MODEL 1
REMARK VINA RESULT:      -8.5      0.000      0.000
REMARK  5 active torsions:
REMARK  status: ('A' for Active; 'I' for Inactive)
REMARK    1  A    between atoms: C_2  and  N_3 
REMARK       I    between atoms: N_3  and  C_4 
REMARK    2  A    between atoms: C_4  and  C_5 
REMARK    3  A    between atoms: N_8  and  C_10 
REMARK    4  A    between atoms: C_10  and  C_11 
REMARK    5  A    between atoms: C_12  and  C_13 
ROOT
HETATM    1  C   UNL     1      40.866 -13.912   5.477  1.00  0.00     0.081 C 
HETATM    2  C   UNL     1      42.139 -13.208   5.946  1.00  0.00     0.042 C 
HETATM    3  C   UNL     1      43.365 -14.108   5.831  1.00  0.00     0.236 C 
HETATM    4  N   UNL     1      43.154 -15.374   6.628  1.00  0.00    -0.067 N 
HETATM    5  H   UNL     1      43.034 -15.093   7.606  1.00  0.00     0.280 HD
HETATM    6  C   UNL     1      41.919 -16.135   6.199  1.00  0.00     0.236 C 
HETATM    7  C   UNL     1      40.689 -15.237   6.226  1.00  0.00     0.042 C 
ENDROOT
BRANCH   4   8
HETATM    8  C   UNL     1      44.365 -16.299   6.584  1.00  0.00     0.277 C 
BRANCH   8   9
HETATM    9  C   UNL     1      44.078 -17.704   6.972  1.00  0.00     0.016 A 
HETATM   10  C   UNL     1      43.906 -18.861   6.139  1.00  0.00     0.096 A 
HETATM   11  N   UNL     1      43.695 -19.949   6.892  1.00  0.00    -0.174 NA
HETATM   12  N   UNL     1      43.785 -19.536   8.157  1.00  0.00    -0.288 N 
HETATM   13  H   UNL     1      43.693 -20.228   8.897  1.00  0.00     0.188 HD
HETATM   14  C   UNL     1      44.008 -18.198   8.263  1.00  0.00     0.120 A 
BRANCH  10  15
HETATM   15  C   UNL     1      43.963 -18.999   4.678  1.00  0.00    -0.003 A 
HETATM   16  C   UNL     1      44.257 -20.216   4.058  1.00  0.00     0.037 A 
HETATM   17  C   UNL     1      44.289 -20.308   2.664  1.00  0.00     0.035 A 
HETATM   18 CL   UNL     1      44.626 -21.830   1.935  1.00  0.00    -0.084 Cl
HETATM   19  C   UNL     1      44.051 -19.192   1.869  1.00  0.00     0.024 A 
HETATM   20  C   UNL     1      43.781 -17.967   2.474  1.00  0.00     0.003 A 
HETATM   21  C   UNL     1      43.737 -17.873   3.868  1.00  0.00     0.014 A 
ENDBRANCH  10  15
ENDBRANCH   8   9
ENDBRANCH   4   8
BRANCH   1  22
HETATM   22  C   UNL     1      40.942 -14.116   3.970  1.00  0.00     0.222 C 
HETATM   23  N   UNL     1      40.246 -15.206   3.510  1.00  0.00    -0.357 N 
HETATM   24  H   UNL     1      39.762 -15.814   4.159  1.00  0.00     0.162 HD
HETATM   25  O   UNL     1      41.491 -13.298   3.242  1.00  0.00    -0.273 OA
BRANCH  23  26
HETATM   26  C   UNL     1      40.064 -15.465   2.085  1.00  0.00     0.076 C 
HETATM   27  C   UNL     1      38.696 -14.960   1.632  1.00  0.00     0.032 C 
HETATM   28  C   UNL     1      40.217 -16.953   1.794  1.00  0.00     0.032 C 
ENDBRANCH  23  26
ENDBRANCH   1  22
TORSDOF 5
ENDMDL
MODEL 2
REMARK VINA RESULT:      -8.3      2.250      3.675
REMARK  5 active torsions:
REMARK  status: ('A' for Active; 'I' for Inactive)
REMARK    1  A    between atoms: C_2  and  N_3 
REMARK       I    between atoms: N_3  and  C_4 
REMARK    2  A    between atoms: C_4  and  C_5 
REMARK    3  A    between atoms: N_8  and  C_10 
REMARK    4  A    between atoms: C_10  and  C_11 
REMARK    5  A    between atoms: C_12  and  C_13 
ROOT
HETATM    1  C   UNL     1      42.037 -16.693   0.469  1.00  0.00     0.081 C 
HETATM    2  C   UNL     1      41.011 -17.704   0.979  1.00  0.00     0.042 C 
HETATM    3  C   UNL     1      40.818 -17.608   2.489  1.00  0.00     0.236 C 
HETATM    4  N   UNL     1      42.138 -17.815   3.193  1.00  0.00    -0.067 N 
HETATM    5  H   UNL     1      42.458 -18.759   2.954  1.00  0.00     0.280 HD
HETATM    6  C   UNL     1      43.197 -16.830   2.750  1.00  0.00     0.236 C 
HETATM    7  C   UNL     1      43.354 -16.845   1.235  1.00  0.00     0.042 C 
ENDROOT
BRANCH   4   8
HETATM    8  C   UNL     1      42.002 -17.771   4.711  1.00  0.00     0.277 C 
BRANCH   8   9
HETATM    9  C   UNL     1      43.295 -17.721   5.442  1.00  0.00     0.016 A 
HETATM   10  C   UNL     1      44.330 -18.713   5.529  1.00  0.00     0.096 A 
HETATM   11  N   UNL     1      45.352 -18.254   6.264  1.00  0.00    -0.174 NA
HETATM   12  N   UNL     1      45.030 -17.002   6.590  1.00  0.00    -0.288 N 
HETATM   13  H   UNL     1      45.702 -16.454   7.124  1.00  0.00     0.188 HD
HETATM   14  C   UNL     1      43.805 -16.632   6.128  1.00  0.00     0.120 A 
BRANCH  10  15
HETATM   15  C   UNL     1      44.419 -20.050   4.931  1.00  0.00    -0.003 A 
HETATM   16  C   UNL     1      44.351 -20.253   3.550  1.00  0.00     0.037 A 
HETATM   17  C   UNL     1      44.453 -21.542   3.020  1.00  0.00     0.035 A 
HETATM   18 CL   UNL     1      44.393 -21.750   1.313  1.00  0.00    -0.084 Cl
HETATM   19  C   UNL     1      44.602 -22.646   3.852  1.00  0.00     0.024 A 
HETATM   20  C   UNL     1      44.648 -22.461   5.231  1.00  0.00     0.003 A 
HETATM   21  C   UNL     1      44.558 -21.173   5.766  1.00  0.00     0.014 A 
ENDBRANCH  10  15
ENDBRANCH   8   9
ENDBRANCH   4   8
BRANCH   1  22
HETATM   22  C   UNL     1      41.457 -15.290   0.604  1.00  0.00     0.222 C 
HETATM   23  N   UNL     1      40.187 -15.152   0.104  1.00  0.00    -0.357 N 
HETATM   24  H   UNL     1      39.724 -15.937  -0.338  1.00  0.00     0.162 HD
HETATM   25  O   UNL     1      42.053 -14.410   1.214  1.00  0.00    -0.273 OA
BRANCH  23  26
HETATM   26  C   UNL     1      39.407 -13.932   0.294  1.00  0.00     0.076 C 
HETATM   27  C   UNL     1      38.585 -14.033   1.576  1.00  0.00     0.032 C 
HETATM   28  C   UNL     1      38.507 -13.686  -0.911  1.00  0.00     0.032 C 
ENDBRANCH  23  26
ENDBRANCH   1  22
TORSDOF 5
ENDMDL
MODEL 3
REMARK VINA RESULT:      -8.2      2.800      4.413
REMARK  5 active torsions:
REMARK  status: ('A' for Active; 'I' for Inactive)
REMARK    1  A    between atoms: C_2  and  N_3 
REMARK       I    between atoms: N_3  and  C_4 
REMARK    2  A    between atoms: C_4  and  C_5 
REMARK    3  A    between atoms: N_8  and  C_10 
REMARK    4  A    between atoms: C_10  and  C_11 
REMARK    5  A    between atoms: C_12  and  C_13 
ROOT
HETATM    1  C   UNL     1      40.800 -15.459   2.011  1.00  0.00     0.081 C 
HETATM    2  C   UNL     1      42.019 -15.309   2.921  1.00  0.00     0.042 C 
HETATM    3  C   UNL     1      43.197 -16.150   2.439  1.00  0.00     0.236 C 
HETATM    4  N   UNL     1      42.794 -17.603   2.353  1.00  0.00    -0.067 N 
HETATM    5  H   UNL     1      42.536 -17.897   3.301  1.00  0.00     0.280 HD
HETATM    6  C   UNL     1      41.603 -17.827   1.448  1.00  0.00     0.236 C 
HETATM    7  C   UNL     1      40.434 -16.938   1.855  1.00  0.00     0.042 C 
ENDROOT
BRANCH   4   8
HETATM    8  C   UNL     1      43.945 -18.502   1.915  1.00  0.00     0.277 C 
BRANCH   8   9
HETATM    9  C   UNL     1      44.261 -19.601   2.864  1.00  0.00     0.016 A 
HETATM   10  C   UNL     1      44.187 -19.613   4.298  1.00  0.00     0.096 A 
HETATM   11  N   UNL     1      44.528 -20.820   4.770  1.00  0.00    -0.174 NA
HETATM   12  N   UNL     1      44.755 -21.578   3.696  1.00  0.00    -0.288 N 
HETATM   13  H   UNL     1      44.994 -22.557   3.839  1.00  0.00     0.188 HD
HETATM   14  C   UNL     1      44.615 -20.896   2.527  1.00  0.00     0.120 A 
BRANCH  10  15
HETATM   15  C   UNL     1      43.780 -18.563   5.239  1.00  0.00    -0.003 A 
HETATM   16  C   UNL     1      42.441 -18.202   5.417  1.00  0.00     0.037 A 
HETATM   17  C   UNL     1      42.095 -17.205   6.333  1.00  0.00     0.035 A 
HETATM   18 CL   UNL     1      40.435 -16.807   6.546  1.00  0.00    -0.084 Cl
HETATM   19  C   UNL     1      43.072 -16.540   7.068  1.00  0.00     0.024 A 
HETATM   20  C   UNL     1      44.411 -16.874   6.883  1.00  0.00     0.003 A 
HETATM   21  C   UNL     1      44.761 -17.878   5.977  1.00  0.00     0.014 A 
ENDBRANCH  10  15
ENDBRANCH   8   9
ENDBRANCH   4   8
BRANCH   1  22
HETATM   22  C   UNL     1      41.102 -14.803   0.670  1.00  0.00     0.222 C 
HETATM   23  N   UNL     1      40.347 -15.275  -0.375  1.00  0.00    -0.357 N 
HETATM   24  H   UNL     1      39.678 -16.020  -0.225  1.00  0.00     0.162 HD
HETATM   25  O   UNL     1      41.878 -13.858   0.582  1.00  0.00    -0.273 OA
BRANCH  23  26
HETATM   26  C   UNL     1      40.377 -14.654  -1.696  1.00  0.00     0.076 C 
HETATM   27  C   UNL     1      39.001 -14.084  -2.035  1.00  0.00     0.032 C 
HETATM   28  C   UNL     1      40.821 -15.665  -2.746  1.00  0.00     0.032 C 
ENDBRANCH  23  26
ENDBRANCH   1  22
TORSDOF 5
ENDMDL
MODEL 4
REMARK VINA RESULT:      -7.9      2.914      4.605
REMARK  5 active torsions:
REMARK  status: ('A' for Active; 'I' for Inactive)
REMARK    1  A    between atoms: C_2  and  N_3 
REMARK       I    between atoms: N_3  and  C_4 
REMARK    2  A    between atoms: C_4  and  C_5 
REMARK    3  A    between atoms: N_8  and  C_10 
REMARK    4  A    between atoms: C_10  and  C_11 
REMARK    5  A    between atoms: C_12  and  C_13 
ROOT
HETATM    1  C   UNL     1      38.315 -12.958   0.194  1.00  0.00     0.081 C 
HETATM    2  C   UNL     1      39.083 -11.992   1.095  1.00  0.00     0.042 C 
HETATM    3  C   UNL     1      40.338 -12.633   1.680  1.00  0.00     0.236 C 
HETATM    4  N   UNL     1      39.971 -13.878   2.453  1.00  0.00    -0.067 N 
HETATM    5  H   UNL     1      39.357 -13.582   3.219  1.00  0.00     0.280 HD
HETATM    6  C   UNL     1      39.226 -14.889   1.612  1.00  0.00     0.236 C 
HETATM    7  C   UNL     1      38.009 -14.256   0.949  1.00  0.00     0.042 C 
ENDROOT
BRANCH   4   8
HETATM    8  C   UNL     1      41.183 -14.542   3.097  1.00  0.00     0.277 C 
BRANCH   8   9
HETATM    9  C   UNL     1      40.866 -15.379   4.283  1.00  0.00     0.016 A 
HETATM   10  C   UNL     1      41.301 -16.710   4.599  1.00  0.00     0.096 A 
HETATM   11  N   UNL     1      40.812 -17.089   5.788  1.00  0.00    -0.174 NA
HETATM   12  N   UNL     1      40.141 -16.035   6.255  1.00  0.00    -0.288 N 
HETATM   13  H   UNL     1      39.718 -16.103   7.178  1.00  0.00     0.188 HD
HETATM   14  C   UNL     1      40.136 -14.984   5.390  1.00  0.00     0.120 A 
BRANCH  10  15
HETATM   15  C   UNL     1      42.176 -17.627   3.858  1.00  0.00    -0.003 A 
HETATM   16  C   UNL     1      43.157 -18.394   4.494  1.00  0.00     0.037 A 
HETATM   17  C   UNL     1      43.961 -19.265   3.753  1.00  0.00     0.035 A 
HETATM   18 CL   UNL     1      45.139 -20.214   4.573  1.00  0.00    -0.084 Cl
HETATM   19  C   UNL     1      43.818 -19.370   2.374  1.00  0.00     0.024 A 
HETATM   20  C   UNL     1      42.861 -18.594   1.725  1.00  0.00     0.003 A 
HETATM   21  C   UNL     1      42.046 -17.730   2.463  1.00  0.00     0.014 A 
ENDBRANCH  10  15
ENDBRANCH   8   9
ENDBRANCH   4   8
BRANCH   1  22
HETATM   22  C   UNL     1      39.131 -13.211  -1.067  1.00  0.00     0.222 C 
HETATM   23  N   UNL     1      38.913 -14.436  -1.647  1.00  0.00    -0.357 N 
HETATM   24  H   UNL     1      38.276 -15.097  -1.219  1.00  0.00     0.162 HD
HETATM   25  O   UNL     1      39.830 -12.334  -1.561  1.00  0.00    -0.273 OA
BRANCH  23  26
HETATM   26  C   UNL     1      39.476 -14.790  -2.946  1.00  0.00     0.076 C 
HETATM   27  C   UNL     1      38.382 -15.345  -3.855  1.00  0.00     0.032 C 
HETATM   28  C   UNL     1      40.606 -15.799  -2.777  1.00  0.00     0.032 C 
ENDBRANCH  23  26
ENDBRANCH   1  22
TORSDOF 5
ENDMDL
MODEL 5
REMARK VINA RESULT:      -7.9      2.229      3.188
REMARK  5 active torsions:
REMARK  status: ('A' for Active; 'I' for Inactive)
REMARK    1  A    between atoms: C_2  and  N_3 
REMARK       I    between atoms: N_3  and  C_4 
REMARK    2  A    between atoms: C_4  and  C_5 
REMARK    3  A    between atoms: N_8  and  C_10 
REMARK    4  A    between atoms: C_10  and  C_11 
REMARK    5  A    between atoms: C_12  and  C_13 
ROOT
HETATM    1  C   UNL     1      39.223 -14.649   1.920  1.00  0.00     0.081 C 
HETATM    2  C   UNL     1      39.713 -13.812   3.101  1.00  0.00     0.042 C 
HETATM    3  C   UNL     1      41.216 -13.955   3.318  1.00  0.00     0.236 C 
HETATM    4  N   UNL     1      41.571 -15.408   3.534  1.00  0.00    -0.067 N 
HETATM    5  H   UNL     1      41.079 -15.712   4.380  1.00  0.00     0.280 HD
HETATM    6  C   UNL     1      41.134 -16.292   2.388  1.00  0.00     0.236 C 
HETATM    7  C   UNL     1      39.650 -16.110   2.094  1.00  0.00     0.042 C 
ENDROOT
BRANCH   4   8
HETATM    8  C   UNL     1      43.059 -15.610   3.798  1.00  0.00     0.277 C 
BRANCH   8   9
HETATM    9  C   UNL     1      43.376 -16.138   5.150  1.00  0.00     0.016 A 
HETATM   10  C   UNL     1      43.821 -17.448   5.534  1.00  0.00     0.096 A 
HETATM   11  N   UNL     1      44.027 -17.500   6.857  1.00  0.00    -0.174 NA
HETATM   12  N   UNL     1      43.788 -16.268   7.309  1.00  0.00    -0.288 N 
HETATM   13  H   UNL     1      43.927 -16.082   8.299  1.00  0.00     0.188 HD
HETATM   14  C   UNL     1      43.389 -15.412   6.328  1.00  0.00     0.120 A 
BRANCH  10  15
HETATM   15  C   UNL     1      44.093 -18.638   4.718  1.00  0.00    -0.003 A 
HETATM   16  C   UNL     1      44.531 -19.840   5.281  1.00  0.00     0.037 A 
HETATM   17  C   UNL     1      44.767 -20.954   4.470  1.00  0.00     0.035 A 
HETATM   18 CL   UNL     1      45.279 -22.425   5.201  1.00  0.00    -0.084 Cl
HETATM   19  C   UNL     1      44.590 -20.884   3.092  1.00  0.00     0.024 A 
HETATM   20  C   UNL     1      44.176 -19.686   2.516  1.00  0.00     0.003 A 
HETATM   21  C   UNL     1      43.929 -18.573   3.324  1.00  0.00     0.014 A 
ENDBRANCH  10  15
ENDBRANCH   8   9
ENDBRANCH   4   8
BRANCH   1  22
HETATM   22  C   UNL     1      39.766 -14.047   0.631  1.00  0.00     0.222 C 
HETATM   23  N   UNL     1      39.811 -14.920  -0.428  1.00  0.00    -0.357 N 
HETATM   24  H   UNL     1      39.525 -15.884  -0.306  1.00  0.00     0.162 HD
HETATM   25  O   UNL     1      40.027 -12.853   0.544  1.00  0.00    -0.273 OA
BRANCH  23  26
HETATM   26  C   UNL     1      40.142 -14.483  -1.780  1.00  0.00     0.076 C 
HETATM   27  C   UNL     1      38.867 -14.120  -2.538  1.00  0.00     0.032 C 
HETATM   28  C   UNL     1      40.919 -15.570  -2.513  1.00  0.00     0.032 C 
ENDBRANCH  23  26
ENDBRANCH   1  22
TORSDOF 5
ENDMDL
MODEL 6
REMARK VINA RESULT:      -7.7      2.551      4.343
REMARK  5 active torsions:
REMARK  status: ('A' for Active; 'I' for Inactive)
REMARK    1  A    between atoms: C_2  and  N_3 
REMARK       I    between atoms: N_3  and  C_4 
REMARK    2  A    between atoms: C_4  and  C_5 
REMARK    3  A    between atoms: N_8  and  C_10 
REMARK    4  A    between atoms: C_10  and  C_11 
REMARK    5  A    between atoms: C_12  and  C_13 
ROOT
HETATM    1  C   UNL     1      41.957 -16.680   0.632  1.00  0.00     0.081 C 
HETATM    2  C   UNL     1      40.927 -17.414   1.491  1.00  0.00     0.042 C 
HETATM    3  C   UNL     1      40.593 -16.643   2.764  1.00  0.00     0.236 C 
HETATM    4  N   UNL     1      41.850 -16.397   3.565  1.00  0.00    -0.067 N 
HETATM    5  H   UNL     1      42.227 -17.316   3.818  1.00  0.00     0.280 HD
HETATM    6  C   UNL     1      42.906 -15.652   2.780  1.00  0.00     0.236 C 
HETATM    7  C   UNL     1      43.203 -16.357   1.462  1.00  0.00     0.042 C 
ENDROOT
BRANCH   4   8
HETATM    8  C   UNL     1      41.573 -15.664   4.873  1.00  0.00     0.277 C 
BRANCH   8   9
HETATM    9  C   UNL     1      42.790 -15.327   5.657  1.00  0.00     0.016 A 
HETATM   10  C   UNL     1      43.785 -16.200   6.212  1.00  0.00     0.096 A 
HETATM   11  N   UNL     1      44.742 -15.486   6.820  1.00  0.00    -0.174 NA
HETATM   12  N   UNL     1      44.422 -14.207   6.620  1.00  0.00    -0.288 N 
HETATM   13  H   UNL     1      45.052 -13.491   6.975  1.00  0.00     0.188 HD
HETATM   14  C   UNL     1      43.257 -14.054   5.933  1.00  0.00     0.120 A 
BRANCH  10  15
HETATM   15  C   UNL     1      43.897 -17.663   6.170  1.00  0.00    -0.003 A 
HETATM   16  C   UNL     1      44.328 -18.343   5.027  1.00  0.00     0.037 A 
HETATM   17  C   UNL     1      44.433 -19.736   5.033  1.00  0.00     0.035 A 
HETATM   18 CL   UNL     1      44.993 -20.537   3.616  1.00  0.00    -0.084 Cl
HETATM   19  C   UNL     1      44.095 -20.473   6.163  1.00  0.00     0.024 A 
HETATM   20  C   UNL     1      43.642 -19.810   7.300  1.00  0.00     0.003 A 
HETATM   21  C   UNL     1      43.546 -18.416   7.303  1.00  0.00     0.014 A 
ENDBRANCH  10  15
ENDBRANCH   8   9
ENDBRANCH   4   8
BRANCH   1  22
HETATM   22  C   UNL     1      41.314 -15.425   0.057  1.00  0.00     0.222 C 
HETATM   23  N   UNL     1      42.112 -14.729  -0.816  1.00  0.00    -0.357 N 
HETATM   24  H   UNL     1      43.055 -15.044  -1.008  1.00  0.00     0.162 HD
HETATM   25  O   UNL     1      40.142 -15.146   0.285  1.00  0.00    -0.273 OA
BRANCH  23  26
HETATM   26  C   UNL     1      41.611 -13.598  -1.592  1.00  0.00     0.076 C 
HETATM   27  C   UNL     1      41.763 -13.882  -3.085  1.00  0.00     0.032 C 
HETATM   28  C   UNL     1      42.347 -12.322  -1.204  1.00  0.00     0.032 C 
ENDBRANCH  23  26
ENDBRANCH   1  22
TORSDOF 5
ENDMDL
MODEL 7
REMARK VINA RESULT:      -7.6      1.447      1.814
REMARK  5 active torsions:
REMARK  status: ('A' for Active; 'I' for Inactive)
REMARK    1  A    between atoms: C_2  and  N_3 
REMARK       I    between atoms: N_3  and  C_4 
REMARK    2  A    between atoms: C_4  and  C_5 
REMARK    3  A    between atoms: N_8  and  C_10 
REMARK    4  A    between atoms: C_10  and  C_11 
REMARK    5  A    between atoms: C_12  and  C_13 
ROOT
HETATM    1  C   UNL     1      40.945 -12.561   5.060  1.00  0.00     0.081 C 
HETATM    2  C   UNL     1      42.313 -13.119   5.452  1.00  0.00     0.042 C 
HETATM    3  C   UNL     1      42.362 -14.640   5.340  1.00  0.00     0.236 C 
HETATM    4  N   UNL     1      41.288 -15.257   6.204  1.00  0.00    -0.067 N 
HETATM    5  H   UNL     1      41.491 -14.985   7.171  1.00  0.00     0.280 HD
HETATM    6  C   UNL     1      39.902 -14.764   5.854  1.00  0.00     0.236 C 
HETATM    7  C   UNL     1      39.843 -13.241   5.878  1.00  0.00     0.042 C 
ENDROOT
BRANCH   4   8
HETATM    8  C   UNL     1      41.313 -16.781   6.164  1.00  0.00     0.277 C 
BRANCH   8   9
HETATM    9  C   UNL     1      42.610 -17.384   6.569  1.00  0.00     0.016 A 
HETATM   10  C   UNL     1      43.613 -18.013   5.758  1.00  0.00     0.096 A 
HETATM   11  N   UNL     1      44.652 -18.392   6.514  1.00  0.00    -0.174 NA
HETATM   12  N   UNL     1      44.369 -17.978   7.750  1.00  0.00    -0.288 N 
HETATM   13  H   UNL     1      45.060 -18.137   8.481  1.00  0.00     0.188 HD
HETATM   14  C   UNL     1      43.155 -17.372   7.841  1.00  0.00     0.120 A 
BRANCH  10  15
HETATM   15  C   UNL     1      43.659 -18.243   4.308  1.00  0.00    -0.003 A 
HETATM   16  C   UNL     1      43.713 -19.528   3.761  1.00  0.00     0.037 A 
HETATM   17  C   UNL     1      43.742 -19.704   2.375  1.00  0.00     0.035 A 
HETATM   18 CL   UNL     1      43.780 -21.302   1.738  1.00  0.00    -0.084 Cl
HETATM   19  C   UNL     1      43.738 -18.610   1.516  1.00  0.00     0.024 A 
HETATM   20  C   UNL     1      43.708 -17.324   2.049  1.00  0.00     0.003 A 
HETATM   21  C   UNL     1      43.667 -17.143   3.434  1.00  0.00     0.014 A 
ENDBRANCH  10  15
ENDBRANCH   8   9
ENDBRANCH   4   8
BRANCH   1  22
HETATM   22  C   UNL     1      40.744 -12.753   3.563  1.00  0.00     0.222 C 
HETATM   23  N   UNL     1      39.430 -12.801   3.169  1.00  0.00    -0.357 N 
HETATM   24  H   UNL     1      38.689 -12.741   3.857  1.00  0.00     0.162 HD
HETATM   25  O   UNL     1      41.692 -12.748   2.786  1.00  0.00    -0.273 OA
BRANCH  23  26
HETATM   26  C   UNL     1      39.042 -12.812   1.762  1.00  0.00     0.076 C 
HETATM   27  C   UNL     1      37.849 -11.885   1.543  1.00  0.00     0.032 C 
HETATM   28  C   UNL     1      38.718 -14.232   1.313  1.00  0.00     0.032 C 
ENDBRANCH  23  26
ENDBRANCH   1  22
TORSDOF 5
ENDMDL
MODEL 8
REMARK VINA RESULT:      -7.6      2.146      3.838
REMARK  5 active torsions:
REMARK  status: ('A' for Active; 'I' for Inactive)
REMARK    1  A    between atoms: C_2  and  N_3 
REMARK       I    between atoms: N_3  and  C_4 
REMARK    2  A    between atoms: C_4  and  C_5 
REMARK    3  A    between atoms: N_8  and  C_10 
REMARK    4  A    between atoms: C_10  and  C_11 
REMARK    5  A    between atoms: C_12  and  C_13 
ROOT
HETATM    1  C   UNL     1      41.447 -12.545   5.061  1.00  0.00     0.081 C 
HETATM    2  C   UNL     1      40.337 -13.434   4.502  1.00  0.00     0.042 C 
HETATM    3  C   UNL     1      40.133 -14.690   5.345  1.00  0.00     0.236 C 
HETATM    4  N   UNL     1      41.423 -15.470   5.431  1.00  0.00    -0.067 N 
HETATM    5  H   UNL     1      41.670 -15.744   4.474  1.00  0.00     0.280 HD
HETATM    6  C   UNL     1      42.562 -14.654   5.998  1.00  0.00     0.236 C 
HETATM    7  C   UNL     1      42.738 -13.352   5.225  1.00  0.00     0.042 C 
ENDROOT
BRANCH   4   8
HETATM    8  C   UNL     1      41.271 -16.760   6.229  1.00  0.00     0.277 C 
BRANCH   8   9
HETATM    9  C   UNL     1      42.557 -17.392   6.624  1.00  0.00     0.016 A 
HETATM   10  C   UNL     1      43.556 -18.013   5.800  1.00  0.00     0.096 A 
HETATM   11  N   UNL     1      44.585 -18.428   6.551  1.00  0.00    -0.174 NA
HETATM   12  N   UNL     1      44.302 -18.044   7.797  1.00  0.00    -0.288 N 
HETATM   13  H   UNL     1      44.986 -18.231   8.527  1.00  0.00     0.188 HD
HETATM   14  C   UNL     1      43.096 -17.422   7.898  1.00  0.00     0.120 A 
BRANCH  10  15
HETATM   15  C   UNL     1      43.606 -18.205   4.346  1.00  0.00    -0.003 A 
HETATM   16  C   UNL     1      43.652 -19.475   3.764  1.00  0.00     0.037 A 
HETATM   17  C   UNL     1      43.686 -19.614   2.374  1.00  0.00     0.035 A 
HETATM   18 CL   UNL     1      43.714 -21.194   1.694  1.00  0.00    -0.084 Cl
HETATM   19  C   UNL     1      43.694 -18.498   1.545  1.00  0.00     0.024 A 
HETATM   20  C   UNL     1      43.671 -17.226   2.111  1.00  0.00     0.003 A 
HETATM   21  C   UNL     1      43.627 -17.082   3.501  1.00  0.00     0.014 A 
ENDBRANCH  10  15
ENDBRANCH   8   9
ENDBRANCH   4   8
BRANCH   1  22
HETATM   22  C   UNL     1      40.980 -11.943   6.379  1.00  0.00     0.222 C 
HETATM   23  N   UNL     1      41.989 -11.437   7.160  1.00  0.00    -0.357 N 
HETATM   24  H   UNL     1      42.953 -11.509   6.858  1.00  0.00     0.162 HD
HETATM   25  O   UNL     1      39.788 -11.831   6.643  1.00  0.00    -0.273 OA
BRANCH  23  26
HETATM   26  C   UNL     1      41.721 -10.674   8.376  1.00  0.00     0.076 C 
HETATM   27  C   UNL     1      41.460  -9.211   8.026  1.00  0.00     0.032 C 
HETATM   28  C   UNL     1      42.887 -10.801   9.348  1.00  0.00     0.032 C 
ENDBRANCH  23  26
ENDBRANCH   1  22
TORSDOF 5
ENDMDL
MODEL 9
REMARK VINA RESULT:      -7.4      1.844      2.404
REMARK  5 active torsions:
REMARK  status: ('A' for Active; 'I' for Inactive)
REMARK    1  A    between atoms: C_2  and  N_3 
REMARK       I    between atoms: N_3  and  C_4 
REMARK    2  A    between atoms: C_4  and  C_5 
REMARK    3  A    between atoms: N_8  and  C_10 
REMARK    4  A    between atoms: C_10  and  C_11 
REMARK    5  A    between atoms: C_12  and  C_13 
ROOT
HETATM    1  C   UNL     1      41.174 -13.342   3.635  1.00  0.00     0.081 C 
HETATM    2  C   UNL     1      42.541 -14.008   3.790  1.00  0.00     0.042 C 
HETATM    3  C   UNL     1      42.419 -15.487   4.145  1.00  0.00     0.236 C 
HETATM    4  N   UNL     1      41.621 -15.648   5.417  1.00  0.00    -0.067 N 
HETATM    5  H   UNL     1      42.140 -15.166   6.158  1.00  0.00     0.280 HD
HETATM    6  C   UNL     1      40.244 -15.030   5.325  1.00  0.00     0.236 C 
HETATM    7  C   UNL     1      40.329 -13.571   4.892  1.00  0.00     0.042 C 
ENDROOT
BRANCH   4   8
HETATM    8  C   UNL     1      41.498 -17.106   5.847  1.00  0.00     0.277 C 
BRANCH   8   9
HETATM    9  C   UNL     1      42.636 -17.602   6.664  1.00  0.00     0.016 A 
HETATM   10  C   UNL     1      43.702 -18.491   6.295  1.00  0.00     0.096 A 
HETATM   11  N   UNL     1      44.545 -18.656   7.322  1.00  0.00    -0.174 NA
HETATM   12  N   UNL     1      44.089 -17.867   8.296  1.00  0.00    -0.288 N 
HETATM   13  H   UNL     1      44.618 -17.816   9.164  1.00  0.00     0.188 HD
HETATM   14  C   UNL     1      42.943 -17.216   7.957  1.00  0.00     0.120 A 
BRANCH  10  15
HETATM   15  C   UNL     1      43.983 -19.162   5.020  1.00  0.00    -0.003 A 
HETATM   16  C   UNL     1      43.726 -18.554   3.788  1.00  0.00     0.037 A 
HETATM   17  C   UNL     1      44.020 -19.223   2.596  1.00  0.00     0.035 A 
HETATM   18 CL   UNL     1      43.717 -18.432   1.099  1.00  0.00    -0.084 Cl
HETATM   19  C   UNL     1      44.552 -20.508   2.611  1.00  0.00     0.024 A 
HETATM   20  C   UNL     1      44.791 -21.134   3.832  1.00  0.00     0.003 A 
HETATM   21  C   UNL     1      44.509 -20.465   5.026  1.00  0.00     0.014 A 
ENDBRANCH  10  15
ENDBRANCH   8   9
ENDBRANCH   4   8
BRANCH   1  22
HETATM   22  C   UNL     1      40.497 -13.891   2.385  1.00  0.00     0.222 C 
HETATM   23  N   UNL     1      41.276 -13.853   1.256  1.00  0.00    -0.357 N 
HETATM   24  H   UNL     1      42.207 -13.456   1.291  1.00  0.00     0.162 HD
HETATM   25  O   UNL     1      39.393 -14.419   2.438  1.00  0.00    -0.273 OA
BRANCH  23  26
HETATM   26  C   UNL     1      40.863 -14.485   0.007  1.00  0.00     0.076 C 
HETATM   27  C   UNL     1      41.413 -15.908  -0.065  1.00  0.00     0.032 C 
HETATM   28  C   UNL     1      41.332 -13.660  -1.185  1.00  0.00     0.032 C 
ENDBRANCH  23  26
ENDBRANCH   1  22
TORSDOF 5
ENDMDL
MODEL 10
REMARK VINA RESULT:      -7.4      2.771      5.218
REMARK  5 active torsions:
REMARK  status: ('A' for Active; 'I' for Inactive)
REMARK    1  A    between atoms: C_2  and  N_3 
REMARK       I    between atoms: N_3  and  C_4 
REMARK    2  A    between atoms: C_4  and  C_5 
REMARK    3  A    between atoms: N_8  and  C_10 
REMARK    4  A    between atoms: C_10  and  C_11 
REMARK    5  A    between atoms: C_12  and  C_13 
ROOT
HETATM    1  C   UNL     1      41.849 -13.247   5.583  1.00  0.00     0.081 C 
HETATM    2  C   UNL     1      40.612 -14.068   5.946  1.00  0.00     0.042 C 
HETATM    3  C   UNL     1      40.678 -15.482   5.377  1.00  0.00     0.236 C 
HETATM    4  N   UNL     1      40.837 -15.427   3.876  1.00  0.00    -0.067 N 
HETATM    5  H   UNL     1      40.007 -14.954   3.505  1.00  0.00     0.280 HD
HETATM    6  C   UNL     1      42.059 -14.647   3.446  1.00  0.00     0.236 C 
HETATM    7  C   UNL     1      42.062 -13.255   4.066  1.00  0.00     0.042 C 
ENDROOT
BRANCH   4   8
HETATM    8  C   UNL     1      40.869 -16.815   3.243  1.00  0.00     0.277 C 
BRANCH   8   9
HETATM    9  C   UNL     1      41.779 -16.936   2.075  1.00  0.00     0.016 A 
HETATM   10  C   UNL     1      42.998 -17.684   1.945  1.00  0.00     0.096 A 
HETATM   11  N   UNL     1      43.495 -17.550   0.708  1.00  0.00    -0.174 NA
HETATM   12  N   UNL     1      42.614 -16.802   0.043  1.00  0.00    -0.288 N 
HETATM   13  H   UNL     1      42.788 -16.613  -0.942  1.00  0.00     0.188 HD
HETATM   14  C   UNL     1      41.568 -16.401   0.816  1.00  0.00     0.120 A 
BRANCH  10  15
HETATM   15  C   UNL     1      43.696 -18.540   2.911  1.00  0.00    -0.003 A 
HETATM   16  C   UNL     1      44.042 -18.090   4.189  1.00  0.00     0.037 A 
HETATM   17  C   UNL     1      44.696 -18.941   5.084  1.00  0.00     0.035 A 
HETATM   18 CL   UNL     1      45.080 -18.362   6.657  1.00  0.00    -0.084 Cl
HETATM   19  C   UNL     1      45.032 -20.241   4.717  1.00  0.00     0.024 A 
HETATM   20  C   UNL     1      44.714 -20.694   3.440  1.00  0.00     0.003 A 
HETATM   21  C   UNL     1      44.050 -19.850   2.545  1.00  0.00     0.014 A 
ENDBRANCH  10  15
ENDBRANCH   8   9
ENDBRANCH   4   8
BRANCH   1  22
HETATM   22  C   UNL     1      43.051 -13.811   6.330  1.00  0.00     0.222 C 
HETATM   23  N   UNL     1      43.698 -12.902   7.130  1.00  0.00    -0.357 N 
HETATM   24  H   UNL     1      43.384 -11.940   7.166  1.00  0.00     0.162 HD
HETATM   25  O   UNL     1      43.326 -15.004   6.289  1.00  0.00    -0.273 OA
BRANCH  23  26
HETATM   26  C   UNL     1      44.763 -13.296   8.047  1.00  0.00     0.076 C 
HETATM   27  C   UNL     1      44.584 -12.590   9.389  1.00  0.00     0.032 C 
HETATM   28  C   UNL     1      46.126 -12.978   7.443  1.00  0.00     0.032 C 
ENDBRANCH  23  26
ENDBRANCH   1  22
TORSDOF 5
ENDMDL
