MODEL 1
REMARK VINA RESULT:      -7.2      0.000      0.000
REMARK  5 active torsions:
REMARK  status: ('A' for Active; 'I' for Inactive)
REMARK    1  A    between atoms: C_2  and  O_3 
REMARK    2  A    between atoms: O_3  and  C_4 
REMARK    3  A    between atoms: C_9  and  C_10 
REMARK       I    between atoms: C_10  and  N_11 
REMARK    4  A    between atoms: N_11  and  C_12 
REMARK    5  A    between atoms: C_12  and  C_13 
ROOT
HETATM    1  C   UNL     1      43.739 -18.544   2.625  1.00  0.00     0.256 C 
HETATM    2  N   UNL     1      42.718 -17.989   3.355  1.00  0.00    -0.348 N 
HETATM    3  O   UNL     1      44.373 -17.905   1.790  1.00  0.00    -0.267 OA
HETATM    4  H   UNL     1      42.231 -18.566   4.034  1.00  0.00     0.163 HD
ENDROOT
BRANCH   1   5
HETATM    5  C   UNL     1      44.075 -19.977   2.873  1.00  0.00     0.084 A 
HETATM    6  C   UNL     1      44.414 -20.523   4.113  1.00  0.00     0.180 A 
HETATM    7  N   UNL     1      44.716 -21.834   4.299  1.00  0.00    -0.236 NA
HETATM    8  C   UNL     1      44.689 -22.636   3.214  1.00  0.00     0.119 A 
HETATM    9  C   UNL     1      44.371 -22.196   1.943  1.00  0.00     0.020 A 
HETATM   10  C   UNL     1      44.060 -20.849   1.774  1.00  0.00     0.023 A 
BRANCH   6  11
HETATM   11  O   UNL     1      44.432 -19.697   5.222  1.00  0.00    -0.334 OA
BRANCH  11  12
HETATM   12  C   UNL     1      43.927 -20.304   6.413  1.00  0.00     0.173 C 
HETATM   13  C   UNL     1      43.916 -19.242   7.499  1.00  0.00     0.034 C 
ENDBRANCH  11  12
ENDBRANCH   6  11
ENDBRANCH   1   5
BRANCH   2  14
HETATM   14  C   UNL     1      42.305 -16.604   3.219  1.00  0.00     0.114 C 
HETATM   15  C   UNL     1      40.779 -16.473   3.211  1.00  0.00     0.037 C 
BRANCH  14  16
HETATM   16  C   UNL     1      42.962 -15.782   4.316  1.00  0.00    -0.036 A 
HETATM   17  C   UNL     1      43.126 -14.390   4.202  1.00  0.00     0.010 A 
HETATM   18  C   UNL     1      43.696 -13.651   5.241  1.00  0.00     0.019 A 
HETATM   19  C   UNL     1      44.098 -14.295   6.408  1.00  0.00     0.011 A 
HETATM   20 BR   UNL     1      44.863 -13.294   7.817  1.00  0.00    -0.051 Br
HETATM   21  C   UNL     1      43.933 -15.670   6.548  1.00  0.00     0.019 A 
HETATM   22  C   UNL     1      43.363 -16.408   5.507  1.00  0.00     0.010 A 
ENDBRANCH  14  16
ENDBRANCH   2  14
TORSDOF 5
ENDMDL
MODEL 2
REMARK VINA RESULT:      -7.0      3.151      6.263
REMARK  5 active torsions:
REMARK  status: ('A' for Active; 'I' for Inactive)
REMARK    1  A    between atoms: C_2  and  O_3 
REMARK    2  A    between atoms: O_3  and  C_4 
REMARK    3  A    between atoms: C_9  and  C_10 
REMARK       I    between atoms: C_10  and  N_11 
REMARK    4  A    between atoms: N_11  and  C_12 
REMARK    5  A    between atoms: C_12  and  C_13 
ROOT
HETATM    1  C   UNL     1      40.997 -16.485   2.739  1.00  0.00     0.256 C 
HETATM    2  N   UNL     1      42.274 -16.990   2.750  1.00  0.00    -0.348 N 
HETATM    3  O   UNL     1      40.155 -16.846   1.921  1.00  0.00    -0.267 OA
HETATM    4  H   UNL     1      42.926 -16.656   3.453  1.00  0.00     0.163 HD
ENDROOT
BRANCH   1   5
HETATM    5  C   UNL     1      40.641 -15.466   3.769  1.00  0.00     0.084 A 
HETATM    6  C   UNL     1      40.812 -15.617   5.147  1.00  0.00     0.180 A 
HETATM    7  N   UNL     1      40.473 -14.665   6.054  1.00  0.00    -0.236 NA
HETATM    8  C   UNL     1      39.936 -13.521   5.581  1.00  0.00     0.119 A 
HETATM    9  C   UNL     1      39.721 -13.273   4.238  1.00  0.00     0.020 A 
HETATM   10  C   UNL     1      40.079 -14.260   3.324  1.00  0.00     0.023 A 
BRANCH   6  11
HETATM   11  O   UNL     1      41.370 -16.788   5.624  1.00  0.00    -0.334 OA
BRANCH  11  12
HETATM   12  C   UNL     1      42.273 -16.605   6.717  1.00  0.00     0.173 C 
HETATM   13  C   UNL     1      43.592 -16.117   6.144  1.00  0.00     0.034 C 
ENDBRANCH  11  12
ENDBRANCH   6  11
ENDBRANCH   1   5
BRANCH   2  14
HETATM   14  C   UNL     1      42.739 -17.996   1.813  1.00  0.00     0.114 C 
HETATM   15  C   UNL     1      43.696 -17.397   0.778  1.00  0.00     0.037 C 
BRANCH  14  16
HETATM   16  C   UNL     1      43.357 -19.148   2.590  1.00  0.00    -0.036 A 
HETATM   17  C   UNL     1      43.600 -20.398   1.995  1.00  0.00     0.010 A 
HETATM   18  C   UNL     1      44.205 -21.428   2.718  1.00  0.00     0.019 A 
HETATM   19  C   UNL     1      44.583 -21.214   4.040  1.00  0.00     0.011 A 
HETATM   20 BR   UNL     1      45.409 -22.606   5.017  1.00  0.00    -0.051 Br
HETATM   21  C   UNL     1      44.364 -19.981   4.646  1.00  0.00     0.019 A 
HETATM   22  C   UNL     1      43.758 -18.951   3.921  1.00  0.00     0.010 A 
ENDBRANCH  14  16
ENDBRANCH   2  14
TORSDOF 5
ENDMDL
MODEL 3
REMARK VINA RESULT:      -6.8      3.426      6.936
REMARK  5 active torsions:
REMARK  status: ('A' for Active; 'I' for Inactive)
REMARK    1  A    between atoms: C_2  and  O_3 
REMARK    2  A    between atoms: O_3  and  C_4 
REMARK    3  A    between atoms: C_9  and  C_10 
REMARK       I    between atoms: C_10  and  N_11 
REMARK    4  A    between atoms: N_11  and  C_12 
REMARK    5  A    between atoms: C_12  and  C_13 
ROOT
HETATM    1  C   UNL     1      42.961 -14.986   5.356  1.00  0.00     0.256 C 
HETATM    2  N   UNL     1      42.872 -16.353   5.445  1.00  0.00    -0.348 N 
HETATM    3  O   UNL     1      43.982 -14.374   5.656  1.00  0.00    -0.267 OA
HETATM    4  H   UNL     1      42.002 -16.805   5.180  1.00  0.00     0.163 HD
ENDROOT
BRANCH   1   5
HETATM    5  C   UNL     1      41.763 -14.239   4.873  1.00  0.00     0.084 A 
HETATM    6  C   UNL     1      41.104 -14.467   3.663  1.00  0.00     0.180 A 
HETATM    7  N   UNL     1      40.016 -13.763   3.257  1.00  0.00    -0.236 NA
HETATM    8  C   UNL     1      39.566 -12.789   4.077  1.00  0.00     0.119 A 
HETATM    9  C   UNL     1      40.148 -12.481   5.292  1.00  0.00     0.020 A 
HETATM   10  C   UNL     1      41.260 -13.216   5.692  1.00  0.00     0.023 A 
BRANCH   6  11
HETATM   11  O   UNL     1      41.565 -15.471   2.833  1.00  0.00    -0.334 OA
BRANCH  11  12
HETATM   12  C   UNL     1      40.573 -16.436   2.473  1.00  0.00     0.173 C 
HETATM   13  C   UNL     1      41.034 -17.110   1.193  1.00  0.00     0.034 C 
ENDBRANCH  11  12
ENDBRANCH   6  11
ENDBRANCH   1   5
BRANCH   2  14
HETATM   14  C   UNL     1      43.970 -17.195   5.884  1.00  0.00     0.114 C 
HETATM   15  C   UNL     1      43.775 -17.659   7.331  1.00  0.00     0.037 C 
BRANCH  14  16
HETATM   16  C   UNL     1      44.128 -18.351   4.911  1.00  0.00    -0.036 A 
HETATM   17  C   UNL     1      44.700 -19.575   5.299  1.00  0.00     0.010 A 
HETATM   18  C   UNL     1      44.798 -20.637   4.397  1.00  0.00     0.019 A 
HETATM   19  C   UNL     1      44.315 -20.488   3.100  1.00  0.00     0.011 A 
HETATM   20 BR   UNL     1      44.440 -21.927   1.880  1.00  0.00    -0.051 Br
HETATM   21  C   UNL     1      43.733 -19.290   2.697  1.00  0.00     0.019 A 
HETATM   22  C   UNL     1      43.636 -18.228   3.600  1.00  0.00     0.010 A 
ENDBRANCH  14  16
ENDBRANCH   2  14
TORSDOF 5
ENDMDL
MODEL 4
REMARK VINA RESULT:      -6.8      1.423      1.894
REMARK  5 active torsions:
REMARK  status: ('A' for Active; 'I' for Inactive)
REMARK    1  A    between atoms: C_2  and  O_3 
REMARK    2  A    between atoms: O_3  and  C_4 
REMARK    3  A    between atoms: C_9  and  C_10 
REMARK       I    between atoms: C_10  and  N_11 
REMARK    4  A    between atoms: N_11  and  C_12 
REMARK    5  A    between atoms: C_12  and  C_13 
ROOT
HETATM    1  C   UNL     1      43.655 -18.410   2.261  1.00  0.00     0.256 C 
HETATM    2  N   UNL     1      42.425 -17.875   2.551  1.00  0.00    -0.348 N 
HETATM    3  O   UNL     1      44.431 -17.882   1.471  1.00  0.00    -0.267 OA
HETATM    4  H   UNL     1      41.827 -18.355   3.216  1.00  0.00     0.163 HD
ENDROOT
BRANCH   1   5
HETATM    5  C   UNL     1      44.042 -19.679   2.945  1.00  0.00     0.084 A 
HETATM    6  C   UNL     1      44.407 -19.793   4.288  1.00  0.00     0.180 A 
HETATM    7  N   UNL     1      44.756 -20.967   4.874  1.00  0.00    -0.236 NA
HETATM    8  C   UNL     1      44.751 -22.073   4.099  1.00  0.00     0.119 A 
HETATM    9  C   UNL     1      44.411 -22.068   2.760  1.00  0.00     0.020 A 
HETATM   10  C   UNL     1      44.053 -20.854   2.178  1.00  0.00     0.023 A 
BRANCH   6  11
HETATM   11  O   UNL     1      44.402 -18.658   5.078  1.00  0.00    -0.334 OA
BRANCH  11  12
HETATM   12  C   UNL     1      43.361 -18.630   6.057  1.00  0.00     0.173 C 
HETATM   13  C   UNL     1      42.906 -17.189   6.200  1.00  0.00     0.034 C 
ENDBRANCH  11  12
ENDBRANCH   6  11
ENDBRANCH   1   5
BRANCH   2  14
HETATM   14  C   UNL     1      41.938 -16.639   1.966  1.00  0.00     0.114 C 
HETATM   15  C   UNL     1      40.571 -16.834   1.303  1.00  0.00     0.037 C 
BRANCH  14  16
HETATM   16  C   UNL     1      41.925 -15.557   3.034  1.00  0.00    -0.036 A 
HETATM   17  C   UNL     1      43.059 -14.772   3.308  1.00  0.00     0.010 A 
HETATM   18  C   UNL     1      43.010 -13.757   4.266  1.00  0.00     0.019 A 
HETATM   19  C   UNL     1      41.824 -13.510   4.952  1.00  0.00     0.011 A 
HETATM   20 BR   UNL     1      41.756 -12.131   6.244  1.00  0.00    -0.051 Br
HETATM   21  C   UNL     1      40.686 -14.266   4.688  1.00  0.00     0.019 A 
HETATM   22  C   UNL     1      40.736 -15.282   3.730  1.00  0.00     0.010 A 
ENDBRANCH  14  16
ENDBRANCH   2  14
TORSDOF 5
ENDMDL
MODEL 5
REMARK VINA RESULT:      -6.6      3.613      4.576
REMARK  5 active torsions:
REMARK  status: ('A' for Active; 'I' for Inactive)
REMARK    1  A    between atoms: C_2  and  O_3 
REMARK    2  A    between atoms: O_3  and  C_4 
REMARK    3  A    between atoms: C_9  and  C_10 
REMARK       I    between atoms: C_10  and  N_11 
REMARK    4  A    between atoms: N_11  and  C_12 
REMARK    5  A    between atoms: C_12  and  C_13 
ROOT
HETATM    1  C   UNL     1      42.574 -17.662   3.300  1.00  0.00     0.256 C 
HETATM    2  N   UNL     1      43.038 -16.612   2.547  1.00  0.00    -0.348 N 
HETATM    3  O   UNL     1      41.586 -17.567   4.023  1.00  0.00    -0.267 OA
HETATM    4  H   UNL     1      43.857 -16.751   1.966  1.00  0.00     0.163 HD
ENDROOT
BRANCH   1   5
HETATM    5  C   UNL     1      43.311 -18.957   3.219  1.00  0.00     0.084 A 
HETATM    6  C   UNL     1      44.194 -19.445   4.185  1.00  0.00     0.180 A 
HETATM    7  N   UNL     1      44.849 -20.629   4.074  1.00  0.00    -0.236 NA
HETATM    8  C   UNL     1      44.628 -21.357   2.959  1.00  0.00     0.119 A 
HETATM    9  C   UNL     1      43.779 -20.964   1.942  1.00  0.00     0.020 A 
HETATM   10  C   UNL     1      43.114 -19.748   2.077  1.00  0.00     0.023 A 
BRANCH   6  11
HETATM   11  O   UNL     1      44.409 -18.698   5.328  1.00  0.00    -0.334 OA
BRANCH  11  12
HETATM   12  C   UNL     1      43.812 -19.244   6.507  1.00  0.00     0.173 C 
HETATM   13  C   UNL     1      43.217 -18.091   7.295  1.00  0.00     0.034 C 
ENDBRANCH  11  12
ENDBRANCH   6  11
ENDBRANCH   1   5
BRANCH   2  14
HETATM   14  C   UNL     1      42.401 -15.307   2.527  1.00  0.00     0.114 C 
HETATM   15  C   UNL     1      43.328 -14.223   3.085  1.00  0.00     0.037 C 
BRANCH  14  16
HETATM   16  C   UNL     1      41.930 -15.009   1.112  1.00  0.00    -0.036 A 
HETATM   17  C   UNL     1      41.637 -16.034   0.196  1.00  0.00     0.010 A 
HETATM   18  C   UNL     1      41.168 -15.734  -1.085  1.00  0.00     0.019 A 
HETATM   19  C   UNL     1      40.977 -14.407  -1.458  1.00  0.00     0.011 A 
HETATM   20 BR   UNL     1      40.334 -14.002  -3.189  1.00  0.00    -0.051 Br
HETATM   21  C   UNL     1      41.248 -13.376  -0.563  1.00  0.00     0.019 A 
HETATM   22  C   UNL     1      41.718 -13.677   0.718  1.00  0.00     0.010 A 
ENDBRANCH  14  16
ENDBRANCH   2  14
TORSDOF 5
ENDMDL
MODEL 6
REMARK VINA RESULT:      -6.5      4.122      7.550
REMARK  5 active torsions:
REMARK  status: ('A' for Active; 'I' for Inactive)
REMARK    1  A    between atoms: C_2  and  O_3 
REMARK    2  A    between atoms: O_3  and  C_4 
REMARK    3  A    between atoms: C_9  and  C_10 
REMARK       I    between atoms: C_10  and  N_11 
REMARK    4  A    between atoms: N_11  and  C_12 
REMARK    5  A    between atoms: C_12  and  C_13 
ROOT
HETATM    1  C   UNL     1      41.969 -14.117   2.455  1.00  0.00     0.256 C 
HETATM    2  N   UNL     1      42.087 -15.347   3.053  1.00  0.00    -0.348 N 
HETATM    3  O   UNL     1      42.901 -13.319   2.405  1.00  0.00    -0.267 OA
HETATM    4  H   UNL     1      41.284 -15.967   3.060  1.00  0.00     0.163 HD
ENDROOT
BRANCH   1   5
HETATM    5  C   UNL     1      40.653 -13.760   1.848  1.00  0.00     0.084 A 
HETATM    6  C   UNL     1      40.196 -14.193   0.601  1.00  0.00     0.180 A 
HETATM    7  N   UNL     1      38.991 -13.845   0.081  1.00  0.00    -0.236 NA
HETATM    8  C   UNL     1      38.210 -13.028   0.820  1.00  0.00     0.119 A 
HETATM    9  C   UNL     1      38.570 -12.541   2.062  1.00  0.00     0.020 A 
HETATM   10  C   UNL     1      39.808 -12.913   2.580  1.00  0.00     0.023 A 
BRANCH   6  11
HETATM   11  O   UNL     1      40.998 -15.036  -0.146  1.00  0.00    -0.334 OA
BRANCH  11  12
HETATM   12  C   UNL     1      41.274 -14.564  -1.467  1.00  0.00     0.173 C 
HETATM   13  C   UNL     1      40.878 -15.662  -2.437  1.00  0.00     0.034 C 
ENDBRANCH  11  12
ENDBRANCH   6  11
ENDBRANCH   1   5
BRANCH   2  14
HETATM   14  C   UNL     1      43.316 -15.819   3.665  1.00  0.00     0.114 C 
HETATM   15  C   UNL     1      43.296 -15.625   5.184  1.00  0.00     0.037 C 
BRANCH  14  16
HETATM   16  C   UNL     1      43.548 -17.265   3.259  1.00  0.00    -0.036 A 
HETATM   17  C   UNL     1      43.985 -18.233   4.179  1.00  0.00     0.010 A 
HETATM   18  C   UNL     1      44.153 -19.564   3.791  1.00  0.00     0.019 A 
HETATM   19  C   UNL     1      43.875 -19.942   2.480  1.00  0.00     0.011 A 
HETATM   20 BR   UNL     1      44.095 -21.745   1.957  1.00  0.00    -0.051 Br
HETATM   21  C   UNL     1      43.429 -19.003   1.555  1.00  0.00     0.019 A 
HETATM   22  C   UNL     1      43.263 -17.672   1.945  1.00  0.00     0.010 A 
ENDBRANCH  14  16
ENDBRANCH   2  14
TORSDOF 5
ENDMDL
MODEL 7
REMARK VINA RESULT:      -6.5      2.291      2.958
REMARK  5 active torsions:
REMARK  status: ('A' for Active; 'I' for Inactive)
REMARK    1  A    between atoms: C_2  and  O_3 
REMARK    2  A    between atoms: O_3  and  C_4 
REMARK    3  A    between atoms: C_9  and  C_10 
REMARK       I    between atoms: C_10  and  N_11 
REMARK    4  A    between atoms: N_11  and  C_12 
REMARK    5  A    between atoms: C_12  and  C_13 
ROOT
HETATM    1  C   UNL     1      43.165 -17.427   2.734  1.00  0.00     0.256 C 
HETATM    2  N   UNL     1      41.890 -17.086   3.111  1.00  0.00    -0.348 N 
HETATM    3  O   UNL     1      43.784 -16.806   1.875  1.00  0.00    -0.267 OA
HETATM    4  H   UNL     1      41.429 -17.634   3.830  1.00  0.00     0.163 HD
ENDROOT
BRANCH   1   5
HETATM    5  C   UNL     1      43.803 -18.596   3.409  1.00  0.00     0.084 A 
HETATM    6  C   UNL     1      43.995 -18.726   4.786  1.00  0.00     0.180 A 
HETATM    7  N   UNL     1      44.582 -19.806   5.363  1.00  0.00    -0.236 NA
HETATM    8  C   UNL     1      45.004 -20.794   4.545  1.00  0.00     0.119 A 
HETATM    9  C   UNL     1      44.866 -20.761   3.170  1.00  0.00     0.020 A 
HETATM   10  C   UNL     1      44.257 -19.647   2.598  1.00  0.00     0.023 A 
BRANCH   6  11
HETATM   11  O   UNL     1      43.553 -17.715   5.619  1.00  0.00    -0.334 OA
BRANCH  11  12
HETATM   12  C   UNL     1      44.535 -17.248   6.547  1.00  0.00     0.173 C 
HETATM   13  C   UNL     1      44.247 -15.783   6.819  1.00  0.00     0.034 C 
ENDBRANCH  11  12
ENDBRANCH   6  11
ENDBRANCH   1   5
BRANCH   2  14
HETATM   14  C   UNL     1      41.167 -15.963   2.543  1.00  0.00     0.114 C 
HETATM   15  C   UNL     1      39.996 -16.432   1.674  1.00  0.00     0.037 C 
BRANCH  14  16
HETATM   16  C   UNL     1      40.732 -15.035   3.667  1.00  0.00    -0.036 A 
HETATM   17  C   UNL     1      40.955 -15.351   5.018  1.00  0.00     0.010 A 
HETATM   18  C   UNL     1      40.581 -14.464   6.030  1.00  0.00     0.019 A 
HETATM   19  C   UNL     1      39.991 -13.247   5.699  1.00  0.00     0.011 A 
HETATM   20 BR   UNL     1      39.493 -12.043   7.069  1.00  0.00    -0.051 Br
HETATM   21  C   UNL     1      39.772 -12.908   4.368  1.00  0.00     0.019 A 
HETATM   22  C   UNL     1      40.146 -13.797   3.356  1.00  0.00     0.010 A 
ENDBRANCH  14  16
ENDBRANCH   2  14
TORSDOF 5
ENDMDL
MODEL 8
REMARK VINA RESULT:      -6.4      2.834      3.836
REMARK  5 active torsions:
REMARK  status: ('A' for Active; 'I' for Inactive)
REMARK    1  A    between atoms: C_2  and  O_3 
REMARK    2  A    between atoms: O_3  and  C_4 
REMARK    3  A    between atoms: C_9  and  C_10 
REMARK       I    between atoms: C_10  and  N_11 
REMARK    4  A    between atoms: N_11  and  C_12 
REMARK    5  A    between atoms: C_12  and  C_13 
ROOT
HETATM    1  C   UNL     1      42.941 -17.451   4.245  1.00  0.00     0.256 C 
HETATM    2  N   UNL     1      43.188 -16.310   3.524  1.00  0.00    -0.348 N 
HETATM    3  O   UNL     1      42.280 -17.445   5.280  1.00  0.00    -0.267 OA
HETATM    4  H   UNL     1      43.739 -16.378   2.674  1.00  0.00     0.163 HD
ENDROOT
BRANCH   1   5
HETATM    5  C   UNL     1      43.503 -18.736   3.733  1.00  0.00     0.084 A 
HETATM    6  C   UNL     1      44.393 -19.560   4.426  1.00  0.00     0.180 A 
HETATM    7  N   UNL     1      44.886 -20.722   3.925  1.00  0.00    -0.236 NA
HETATM    8  C   UNL     1      44.488 -21.080   2.685  1.00  0.00     0.119 A 
HETATM    9  C   UNL     1      43.616 -20.334   1.915  1.00  0.00     0.020 A 
HETATM   10  C   UNL     1      43.119 -19.148   2.448  1.00  0.00     0.023 A 
BRANCH   6  11
HETATM   11  O   UNL     1      44.789 -19.191   5.698  1.00  0.00    -0.334 OA
BRANCH  11  12
HETATM   12  C   UNL     1      44.103 -19.876   6.748  1.00  0.00     0.173 C 
HETATM   13  C   UNL     1      43.962 -18.909   7.910  1.00  0.00     0.034 C 
ENDBRANCH  11  12
ENDBRANCH   6  11
ENDBRANCH   1   5
BRANCH   2  14
HETATM   14  C   UNL     1      42.685 -15.003   3.906  1.00  0.00     0.114 C 
HETATM   15  C   UNL     1      43.740 -13.913   3.695  1.00  0.00     0.037 C 
BRANCH  14  16
HETATM   16  C   UNL     1      41.394 -14.729   3.151  1.00  0.00    -0.036 A 
HETATM   17  C   UNL     1      40.937 -13.421   2.915  1.00  0.00     0.010 A 
HETATM   18  C   UNL     1      39.769 -13.194   2.184  1.00  0.00     0.019 A 
HETATM   19  C   UNL     1      39.052 -14.273   1.673  1.00  0.00     0.011 A 
HETATM   20 BR   UNL     1      37.475 -13.966   0.676  1.00  0.00    -0.051 Br
HETATM   21  C   UNL     1      39.494 -15.576   1.883  1.00  0.00     0.019 A 
HETATM   22  C   UNL     1      40.662 -15.802   2.615  1.00  0.00     0.010 A 
ENDBRANCH  14  16
ENDBRANCH   2  14
TORSDOF 5
ENDMDL
MODEL 9
REMARK VINA RESULT:      -6.4      2.474      3.901
REMARK  5 active torsions:
REMARK  status: ('A' for Active; 'I' for Inactive)
REMARK    1  A    between atoms: C_2  and  O_3 
REMARK    2  A    between atoms: O_3  and  C_4 
REMARK    3  A    between atoms: C_9  and  C_10 
REMARK       I    between atoms: C_10  and  N_11 
REMARK    4  A    between atoms: N_11  and  C_12 
REMARK    5  A    between atoms: C_12  and  C_13 
ROOT
HETATM    1  C   UNL     1      43.528 -17.980   5.987  1.00  0.00     0.256 C 
HETATM    2  N   UNL     1      43.570 -16.656   5.627  1.00  0.00    -0.348 N 
HETATM    3  O   UNL     1      43.151 -18.348   7.096  1.00  0.00    -0.267 OA
HETATM    4  H   UNL     1      43.887 -16.413   4.694  1.00  0.00     0.163 HD
ENDROOT
BRANCH   1   5
HETATM    5  C   UNL     1      43.958 -18.992   4.978  1.00  0.00     0.084 A 
HETATM    6  C   UNL     1      43.825 -18.858   3.594  1.00  0.00     0.180 A 
HETATM    7  N   UNL     1      44.228 -19.803   2.706  1.00  0.00    -0.236 NA
HETATM    8  C   UNL     1      44.777 -20.930   3.207  1.00  0.00     0.119 A 
HETATM    9  C   UNL     1      44.950 -21.163   4.558  1.00  0.00     0.020 A 
HETATM   10  C   UNL     1      44.534 -20.180   5.452  1.00  0.00     0.023 A 
BRANCH   6  11
HETATM   11  O   UNL     1      43.270 -17.697   3.088  1.00  0.00    -0.334 OA
BRANCH  11  12
HETATM   12  C   UNL     1      42.111 -17.907   2.277  1.00  0.00     0.173 C 
HETATM   13  C   UNL     1      41.056 -16.908   2.720  1.00  0.00     0.034 C 
ENDBRANCH  11  12
ENDBRANCH   6  11
ENDBRANCH   1   5
BRANCH   2  14
HETATM   14  C   UNL     1      43.163 -15.579   6.510  1.00  0.00     0.114 C 
HETATM   15  C   UNL     1      44.375 -14.830   7.074  1.00  0.00     0.037 C 
BRANCH  14  16
HETATM   16  C   UNL     1      42.200 -14.667   5.769  1.00  0.00    -0.036 A 
HETATM   17  C   UNL     1      42.653 -13.632   4.932  1.00  0.00     0.010 A 
HETATM   18  C   UNL     1      41.748 -12.832   4.231  1.00  0.00     0.019 A 
HETATM   19  C   UNL     1      40.381 -13.067   4.350  1.00  0.00     0.011 A 
HETATM   20 BR   UNL     1      39.157 -11.990   3.394  1.00  0.00    -0.051 Br
HETATM   21  C   UNL     1      39.911 -14.094   5.162  1.00  0.00     0.019 A 
HETATM   22  C   UNL     1      40.817 -14.893   5.864  1.00  0.00     0.010 A 
ENDBRANCH  14  16
ENDBRANCH   2  14
TORSDOF 5
ENDMDL
MODEL 10
REMARK VINA RESULT:      -6.2      2.240      3.698
REMARK  5 active torsions:
REMARK  status: ('A' for Active; 'I' for Inactive)
REMARK    1  A    between atoms: C_2  and  O_3 
REMARK    2  A    between atoms: O_3  and  C_4 
REMARK    3  A    between atoms: C_9  and  C_10 
REMARK       I    between atoms: C_10  and  N_11 
REMARK    4  A    between atoms: N_11  and  C_12 
REMARK    5  A    between atoms: C_12  and  C_13 
ROOT
HETATM    1  C   UNL     1      44.190 -18.136   4.557  1.00  0.00     0.256 C 
HETATM    2  N   UNL     1      43.863 -18.241   3.228  1.00  0.00    -0.348 N 
HETATM    3  O   UNL     1      44.531 -17.074   5.069  1.00  0.00    -0.267 OA
HETATM    4  H   UNL     1      43.584 -19.145   2.862  1.00  0.00     0.163 HD
ENDROOT
BRANCH   1   5
HETATM    5  C   UNL     1      44.119 -19.372   5.392  1.00  0.00     0.084 A 
HETATM    6  C   UNL     1      44.484 -20.652   4.971  1.00  0.00     0.180 A 
HETATM    7  N   UNL     1      44.403 -21.754   5.760  1.00  0.00    -0.236 NA
HETATM    8  C   UNL     1      43.933 -21.584   7.015  1.00  0.00     0.119 A 
HETATM    9  C   UNL     1      43.541 -20.362   7.527  1.00  0.00     0.020 A 
HETATM   10  C   UNL     1      43.636 -19.244   6.703  1.00  0.00     0.023 A 
BRANCH   6  11
HETATM   11  O   UNL     1      44.972 -20.817   3.688  1.00  0.00    -0.334 OA
BRANCH  11  12
HETATM   12  C   UNL     1      44.530 -22.012   3.041  1.00  0.00     0.173 C 
HETATM   13  C   UNL     1      43.795 -21.604   1.776  1.00  0.00     0.034 C 
ENDBRANCH  11  12
ENDBRANCH   6  11
ENDBRANCH   1   5
BRANCH   2  14
HETATM   14  C   UNL     1      43.877 -17.112   2.316  1.00  0.00     0.114 C 
HETATM   15  C   UNL     1      43.665 -17.561   0.867  1.00  0.00     0.037 C 
BRANCH  14  16
HETATM   16  C   UNL     1      42.846 -16.092   2.773  1.00  0.00    -0.036 A 
HETATM   17  C   UNL     1      41.519 -16.455   3.058  1.00  0.00     0.010 A 
HETATM   18  C   UNL     1      40.601 -15.507   3.515  1.00  0.00     0.019 A 
HETATM   19  C   UNL     1      41.005 -14.188   3.702  1.00  0.00     0.011 A 
HETATM   20 BR   UNL     1      39.765 -12.906   4.328  1.00  0.00    -0.051 Br
HETATM   21  C   UNL     1      42.318 -13.809   3.439  1.00  0.00     0.019 A 
HETATM   22  C   UNL     1      43.235 -14.758   2.981  1.00  0.00     0.010 A 
ENDBRANCH  14  16
ENDBRANCH   2  14
TORSDOF 5
ENDMDL
