MODEL 1
REMARK VINA RESULT:      -7.9      0.000      0.000
REMARK  2 active torsions:
REMARK  status: ('A' for Active; 'I' for Inactive)
REMARK    1  A    between atoms: C_8  and  N_9 
REMARK       I    between atoms: N_9  and  C_10 
REMARK       I    between atoms: C_10  and  N_11 
REMARK    2  A    between atoms: N_11  and  C_12 
ROOT
HETATM    1  C   UNL     1      44.741 -21.385   4.932  1.00  0.00     0.044 A 
HETATM    2  C   UNL     1      44.657 -21.822   3.617  1.00  0.00     0.117 A 
HETATM    3  F   UNL     1      44.964 -23.091   3.324  1.00  0.00    -0.206 F 
HETATM    4  C   UNL     1      44.287 -20.954   2.598  1.00  0.00     0.067 A 
HETATM    5  C   UNL     1      43.973 -19.619   2.892  1.00  0.00     0.074 A 
HETATM    6  C   UNL     1      43.757 -18.737   1.778  1.00  0.00     0.102 C 
HETATM    7  N   UNL     1      43.624 -18.014   0.877  1.00  0.00    -0.191 NA
HETATM    8  C   UNL     1      44.005 -19.173   4.233  1.00  0.00     0.057 A 
HETATM    9  C   UNL     1      44.424 -20.060   5.238  1.00  0.00     0.034 A 
ENDROOT
BRANCH   8  10
HETATM   10  N   UNL     1      43.695 -17.855   4.655  1.00  0.00    -0.308 N 
HETATM   11  C   UNL     1      42.420 -17.363   4.787  1.00  0.00     0.321 C 
HETATM   12  N   UNL     1      42.414 -15.993   4.921  1.00  0.00    -0.336 N 
HETATM   13  O   UNL     1      41.391 -18.025   4.796  1.00  0.00    -0.247 OA
HETATM   14  H   UNL     1      43.250 -15.547   4.565  1.00  0.00     0.164 HD
HETATM   15  H   UNL     1      44.377 -17.400   5.250  1.00  0.00     0.170 HD
BRANCH  12  16
HETATM   16  C   UNL     1      41.181 -15.225   4.829  1.00  0.00     0.118 C 
HETATM   17  C   UNL     1      40.797 -14.652   3.455  1.00  0.00     0.210 C 
HETATM   18  N   UNL     1      39.732 -13.641   3.837  1.00  0.00    -0.065 N 
HETATM   19  C   UNL     1      40.193 -15.622   2.452  1.00  0.00     0.035 C 
HETATM   20  H   UNL     1      38.896 -14.144   4.166  1.00  0.00     0.280 HD
HETATM   21  C   UNL     1      39.318 -12.792   2.677  1.00  0.00     0.235 C 
HETATM   22  C   UNL     1      40.325 -12.925   5.021  1.00  0.00     0.237 C 
HETATM   23  C   UNL     1      38.734 -13.712   1.606  1.00  0.00     0.028 C 
HETATM   24  C   UNL     1      39.683 -14.855   1.227  1.00  0.00     0.004 C 
HETATM   25  C   UNL     1      41.161 -13.985   5.739  1.00  0.00     0.055 C 
ENDBRANCH  12  16
ENDBRANCH   8  10
TORSDOF 2
ENDMDL
MODEL 2
REMARK VINA RESULT:      -7.9      2.505      3.756
REMARK  2 active torsions:
REMARK  status: ('A' for Active; 'I' for Inactive)
REMARK    1  A    between atoms: C_8  and  N_9 
REMARK       I    between atoms: N_9  and  C_10 
REMARK       I    between atoms: C_10  and  N_11 
REMARK    2  A    between atoms: N_11  and  C_12 
ROOT
HETATM    1  C   UNL     1      44.580 -20.374   3.006  1.00  0.00     0.044 A 
HETATM    2  C   UNL     1      44.825 -20.439   4.370  1.00  0.00     0.117 A 
HETATM    3  F   UNL     1      45.293 -21.574   4.901  1.00  0.00    -0.206 F 
HETATM    4  C   UNL     1      44.567 -19.353   5.195  1.00  0.00     0.067 A 
HETATM    5  C   UNL     1      44.067 -18.161   4.651  1.00  0.00     0.074 A 
HETATM    6  C   UNL     1      43.668 -17.135   5.575  1.00  0.00     0.102 C 
HETATM    7  N   UNL     1      43.307 -16.322   6.323  1.00  0.00    -0.191 NA
HETATM    8  C   UNL     1      43.859 -18.063   3.256  1.00  0.00     0.057 A 
HETATM    9  C   UNL     1      44.089 -19.190   2.450  1.00  0.00     0.034 A 
ENDROOT
BRANCH   8  10
HETATM   10  N   UNL     1      43.374 -16.909   2.588  1.00  0.00    -0.308 N 
HETATM   11  C   UNL     1      42.056 -16.700   2.260  1.00  0.00     0.321 C 
HETATM   12  N   UNL     1      41.913 -15.660   1.371  1.00  0.00    -0.336 N 
HETATM   13  O   UNL     1      41.100 -17.331   2.687  1.00  0.00    -0.247 OA
HETATM   14  H   UNL     1      42.755 -15.454   0.847  1.00  0.00     0.164 HD
HETATM   15  H   UNL     1      43.909 -16.059   2.711  1.00  0.00     0.170 HD
BRANCH  12  16
HETATM   16  C   UNL     1      40.651 -15.408   0.692  1.00  0.00     0.118 C 
HETATM   17  C   UNL     1      40.707 -14.811  -0.724  1.00  0.00     0.210 C 
HETATM   18  N   UNL     1      39.275 -14.350  -0.915  1.00  0.00    -0.065 N 
HETATM   19  C   UNL     1      41.054 -15.763  -1.857  1.00  0.00     0.035 C 
HETATM   20  H   UNL     1      38.664 -15.176  -0.991  1.00  0.00     0.280 HD
HETATM   21  C   UNL     1      39.101 -13.546  -2.164  1.00  0.00     0.235 C 
HETATM   22  C   UNL     1      38.942 -13.662   0.383  1.00  0.00     0.237 C 
HETATM   23  C   UNL     1      39.474 -14.435  -3.350  1.00  0.00     0.028 C 
HETATM   24  C   UNL     1      40.866 -15.060  -3.206  1.00  0.00     0.004 C 
HETATM   25  C   UNL     1      39.733 -14.429   1.444  1.00  0.00     0.055 C 
ENDBRANCH  12  16
ENDBRANCH   8  10
TORSDOF 2
ENDMDL
MODEL 3
REMARK VINA RESULT:      -7.8      1.213      2.176
REMARK  2 active torsions:
REMARK  status: ('A' for Active; 'I' for Inactive)
REMARK    1  A    between atoms: C_8  and  N_9 
REMARK       I    between atoms: N_9  and  C_10 
REMARK       I    between atoms: C_10  and  N_11 
REMARK    2  A    between atoms: N_11  and  C_12 
ROOT
HETATM    1  C   UNL     1      43.622 -20.282   1.789  1.00  0.00     0.044 A 
HETATM    2  C   UNL     1      44.305 -21.066   2.708  1.00  0.00     0.117 A 
HETATM    3  F   UNL     1      44.552 -22.350   2.424  1.00  0.00    -0.206 F 
HETATM    4  C   UNL     1      44.711 -20.545   3.930  1.00  0.00     0.067 A 
HETATM    5  C   UNL     1      44.448 -19.203   4.243  1.00  0.00     0.074 A 
HETATM    6  C   UNL     1      44.747 -18.772   5.580  1.00  0.00     0.102 C 
HETATM    7  N   UNL     1      44.949 -18.435   6.674  1.00  0.00    -0.191 NA
HETATM    8  C   UNL     1      43.798 -18.379   3.296  1.00  0.00     0.057 A 
HETATM    9  C   UNL     1      43.361 -18.943   2.085  1.00  0.00     0.034 A 
ENDROOT
BRANCH   8  10
HETATM   10  N   UNL     1      43.491 -17.008   3.490  1.00  0.00    -0.308 N 
HETATM   11  C   UNL     1      42.269 -16.538   3.904  1.00  0.00     0.321 C 
HETATM   12  N   UNL     1      42.160 -15.177   3.724  1.00  0.00    -0.336 N 
HETATM   13  O   UNL     1      41.366 -17.207   4.384  1.00  0.00    -0.247 OA
HETATM   14  H   UNL     1      42.801 -14.806   3.033  1.00  0.00     0.164 HD
HETATM   15  H   UNL     1      44.268 -16.401   3.722  1.00  0.00     0.170 HD
BRANCH  12  16
HETATM   16  C   UNL     1      40.884 -14.492   3.857  1.00  0.00     0.118 C 
HETATM   17  C   UNL     1      40.226 -13.952   2.577  1.00  0.00     0.210 C 
HETATM   18  N   UNL     1      39.181 -13.012   3.147  1.00  0.00    -0.065 N 
HETATM   19  C   UNL     1      39.519 -14.964   1.689  1.00  0.00     0.035 C 
HETATM   20  H   UNL     1      38.451 -13.566   3.616  1.00  0.00     0.280 HD
HETATM   21  C   UNL     1      38.514 -12.196   2.085  1.00  0.00     0.235 C 
HETATM   22  C   UNL     1      39.926 -12.252   4.214  1.00  0.00     0.237 C 
HETATM   23  C   UNL     1      37.811 -13.158   1.128  1.00  0.00     0.028 C 
HETATM   24  C   UNL     1      38.751 -14.238   0.578  1.00  0.00     0.004 C 
HETATM   25  C   UNL     1      40.944 -13.252   4.765  1.00  0.00     0.055 C 
ENDBRANCH  12  16
ENDBRANCH   8  10
TORSDOF 2
ENDMDL
MODEL 4
REMARK VINA RESULT:      -7.7      3.293      7.569
REMARK  2 active torsions:
REMARK  status: ('A' for Active; 'I' for Inactive)
REMARK    1  A    between atoms: C_8  and  N_9 
REMARK       I    between atoms: N_9  and  C_10 
REMARK       I    between atoms: C_10  and  N_11 
REMARK    2  A    between atoms: N_11  and  C_12 
ROOT
HETATM    1  C   UNL     1      38.255 -14.407   1.070  1.00  0.00     0.044 A 
HETATM    2  C   UNL     1      38.117 -13.036   1.231  1.00  0.00     0.117 A 
HETATM    3  F   UNL     1      37.399 -12.338   0.344  1.00  0.00    -0.206 F 
HETATM    4  C   UNL     1      38.737 -12.374   2.282  1.00  0.00     0.067 A 
HETATM    5  C   UNL     1      39.502 -13.093   3.212  1.00  0.00     0.074 A 
HETATM    6  C   UNL     1      40.247 -12.332   4.177  1.00  0.00     0.102 C 
HETATM    7  N   UNL     1      40.882 -11.715   4.930  1.00  0.00    -0.191 NA
HETATM    8  C   UNL     1      39.610 -14.498   3.090  1.00  0.00     0.057 A 
HETATM    9  C   UNL     1      39.008 -15.136   1.993  1.00  0.00     0.034 A 
ENDROOT
BRANCH   8  10
HETATM   10  N   UNL     1      40.340 -15.334   3.973  1.00  0.00    -0.308 N 
HETATM   11  C   UNL     1      41.661 -15.670   3.808  1.00  0.00     0.321 C 
HETATM   12  N   UNL     1      42.027 -16.712   4.630  1.00  0.00    -0.336 N 
HETATM   13  O   UNL     1      42.450 -15.133   3.044  1.00  0.00    -0.247 OA
HETATM   14  H   UNL     1      41.246 -17.275   4.944  1.00  0.00     0.164 HD
HETATM   15  H   UNL     1      40.024 -15.357   4.935  1.00  0.00     0.170 HD
BRANCH  12  16
HETATM   16  C   UNL     1      43.297 -17.402   4.462  1.00  0.00     0.118 C 
HETATM   17  C   UNL     1      43.265 -18.826   3.883  1.00  0.00     0.210 C 
HETATM   18  N   UNL     1      44.657 -19.322   4.224  1.00  0.00    -0.065 N 
HETATM   19  C   UNL     1      43.071 -18.952   2.381  1.00  0.00     0.035 C 
HETATM   20  H   UNL     1      45.345 -18.811   3.652  1.00  0.00     0.280 HD
HETATM   21  C   UNL     1      44.826 -20.780   3.931  1.00  0.00     0.235 C 
HETATM   22  C   UNL     1      44.852 -18.894   5.654  1.00  0.00     0.237 C 
HETATM   23  C   UNL     1      44.604 -20.987   2.434  1.00  0.00     0.028 C 
HETATM   24  C   UNL     1      43.269 -20.410   1.949  1.00  0.00     0.004 C 
HETATM   25  C   UNL     1      44.077 -17.581   5.776  1.00  0.00     0.055 C 
ENDBRANCH  12  16
ENDBRANCH   8  10
TORSDOF 2
ENDMDL
MODEL 5
REMARK VINA RESULT:      -7.6      2.282      3.897
REMARK  2 active torsions:
REMARK  status: ('A' for Active; 'I' for Inactive)
REMARK    1  A    between atoms: C_8  and  N_9 
REMARK       I    between atoms: N_9  and  C_10 
REMARK       I    between atoms: C_10  and  N_11 
REMARK    2  A    between atoms: N_11  and  C_12 
ROOT
HETATM    1  C   UNL     1      44.511 -20.595   2.771  1.00  0.00     0.044 A 
HETATM    2  C   UNL     1      44.650 -20.262   4.111  1.00  0.00     0.117 A 
HETATM    3  F   UNL     1      45.545 -20.913   4.862  1.00  0.00    -0.206 F 
HETATM    4  C   UNL     1      43.854 -19.282   4.690  1.00  0.00     0.067 A 
HETATM    5  C   UNL     1      42.905 -18.600   3.915  1.00  0.00     0.074 A 
HETATM    6  C   UNL     1      42.006 -17.718   4.607  1.00  0.00     0.102 C 
HETATM    7  N   UNL     1      41.252 -17.037   5.172  1.00  0.00    -0.191 NA
HETATM    8  C   UNL     1      42.787 -18.893   2.537  1.00  0.00     0.057 A 
HETATM    9  C   UNL     1      43.575 -19.918   1.987  1.00  0.00     0.034 A 
ENDROOT
BRANCH   8  10
HETATM   10  N   UNL     1      41.879 -18.262   1.649  1.00  0.00    -0.308 N 
HETATM   11  C   UNL     1      42.119 -17.069   1.014  1.00  0.00     0.321 C 
HETATM   12  N   UNL     1      40.972 -16.549   0.457  1.00  0.00    -0.336 N 
HETATM   13  O   UNL     1      43.201 -16.507   0.924  1.00  0.00    -0.247 OA
HETATM   14  H   UNL     1      40.121 -16.905   0.874  1.00  0.00     0.164 HD
HETATM   15  H   UNL     1      41.232 -18.869   1.160  1.00  0.00     0.170 HD
BRANCH  12  16
HETATM   16  C   UNL     1      40.923 -15.187  -0.052  1.00  0.00     0.118 C 
HETATM   17  C   UNL     1      39.742 -14.304   0.383  1.00  0.00     0.210 C 
HETATM   18  N   UNL     1      39.831 -13.167  -0.617  1.00  0.00    -0.065 N 
HETATM   19  C   UNL     1      39.807 -13.712   1.782  1.00  0.00     0.035 C 
HETATM   20  H   UNL     1      40.675 -12.611  -0.419  1.00  0.00     0.280 HD
HETATM   21  C   UNL     1      38.655 -12.245  -0.531  1.00  0.00     0.235 C 
HETATM   22  C   UNL     1      40.048 -13.863  -1.934  1.00  0.00     0.237 C 
HETATM   23  C   UNL     1      38.636 -11.640   0.873  1.00  0.00     0.028 C 
HETATM   24  C   UNL     1      38.668 -12.704   1.976  1.00  0.00     0.004 C 
HETATM   25  C   UNL     1      40.868 -15.107  -1.587  1.00  0.00     0.055 C 
ENDBRANCH  12  16
ENDBRANCH   8  10
TORSDOF 2
ENDMDL
MODEL 6
REMARK VINA RESULT:      -7.6      3.767      7.685
REMARK  2 active torsions:
REMARK  status: ('A' for Active; 'I' for Inactive)
REMARK    1  A    between atoms: C_8  and  N_9 
REMARK       I    between atoms: N_9  and  C_10 
REMARK       I    between atoms: C_10  and  N_11 
REMARK    2  A    between atoms: N_11  and  C_12 
ROOT
HETATM    1  C   UNL     1      39.686 -14.063  -1.899  1.00  0.00     0.044 A 
HETATM    2  C   UNL     1      39.535 -12.941  -1.096  1.00  0.00     0.117 A 
HETATM    3  F   UNL     1      38.664 -11.990  -1.451  1.00  0.00    -0.206 F 
HETATM    4  C   UNL     1      40.295 -12.778   0.055  1.00  0.00     0.067 A 
HETATM    5  C   UNL     1      41.218 -13.764   0.432  1.00  0.00     0.074 A 
HETATM    6  C   UNL     1      42.085 -13.462   1.538  1.00  0.00     0.102 C 
HETATM    7  N   UNL     1      42.813 -13.201   2.405  1.00  0.00    -0.191 NA
HETATM    8  C   UNL     1      41.347 -14.936  -0.349  1.00  0.00     0.057 A 
HETATM    9  C   UNL     1      40.597 -15.055  -1.531  1.00  0.00     0.034 A 
ENDROOT
BRANCH   8  10
HETATM   10  N   UNL     1      42.232 -16.007  -0.063  1.00  0.00    -0.308 N 
HETATM   11  C   UNL     1      41.965 -17.016   0.829  1.00  0.00     0.321 C 
HETATM   12  N   UNL     1      43.095 -17.743   1.128  1.00  0.00    -0.336 N 
HETATM   13  O   UNL     1      40.874 -17.276   1.315  1.00  0.00    -0.247 OA
HETATM   14  H   UNL     1      43.958 -17.244   0.948  1.00  0.00     0.164 HD
HETATM   15  H   UNL     1      42.880 -16.264  -0.798  1.00  0.00     0.170 HD
BRANCH  12  16
HETATM   16  C   UNL     1      43.116 -18.699   2.225  1.00  0.00     0.118 C 
HETATM   17  C   UNL     1      43.885 -18.309   3.497  1.00  0.00     0.210 C 
HETATM   18  N   UNL     1      44.004 -19.648   4.201  1.00  0.00    -0.065 N 
HETATM   19  C   UNL     1      43.199 -17.336   4.443  1.00  0.00     0.035 C 
HETATM   20  H   UNL     1      43.071 -19.940   4.525  1.00  0.00     0.280 HD
HETATM   21  C   UNL     1      44.894 -19.579   5.401  1.00  0.00     0.235 C 
HETATM   22  C   UNL     1      44.419 -20.593   3.105  1.00  0.00     0.237 C 
HETATM   23  C   UNL     1      44.281 -18.582   6.384  1.00  0.00     0.028 C 
HETATM   24  C   UNL     1      44.001 -17.217   5.744  1.00  0.00     0.004 C 
HETATM   25  C   UNL     1      43.738 -20.054   1.846  1.00  0.00     0.055 C 
ENDBRANCH  12  16
ENDBRANCH   8  10
TORSDOF 2
ENDMDL
MODEL 7
REMARK VINA RESULT:      -7.4      3.778      7.719
REMARK  2 active torsions:
REMARK  status: ('A' for Active; 'I' for Inactive)
REMARK    1  A    between atoms: C_8  and  N_9 
REMARK       I    between atoms: N_9  and  C_10 
REMARK       I    between atoms: C_10  and  N_11 
REMARK    2  A    between atoms: N_11  and  C_12 
ROOT
HETATM    1  C   UNL     1      38.507 -13.688   0.689  1.00  0.00     0.044 A 
HETATM    2  C   UNL     1      38.232 -13.334  -0.624  1.00  0.00     0.117 A 
HETATM    3  F   UNL     1      37.134 -12.621  -0.897  1.00  0.00    -0.206 F 
HETATM    4  C   UNL     1      39.064 -13.733  -1.661  1.00  0.00     0.067 A 
HETATM    5  C   UNL     1      40.213 -14.490  -1.388  1.00  0.00     0.074 A 
HETATM    6  C   UNL     1      40.940 -15.007  -2.515  1.00  0.00     0.102 C 
HETATM    7  N   UNL     1      41.504 -15.460  -3.425  1.00  0.00    -0.191 NA
HETATM    8  C   UNL     1      40.534 -14.816  -0.050  1.00  0.00     0.057 A 
HETATM    9  C   UNL     1      39.652 -14.436   0.975  1.00  0.00     0.034 A 
ENDROOT
BRANCH   8  10
HETATM   10  N   UNL     1      41.672 -15.560   0.352  1.00  0.00    -0.308 N 
HETATM   11  C   UNL     1      41.618 -16.786   0.968  1.00  0.00     0.321 C 
HETATM   12  N   UNL     1      42.835 -17.138   1.507  1.00  0.00    -0.336 N 
HETATM   13  O   UNL     1      40.635 -17.509   1.046  1.00  0.00    -0.247 OA
HETATM   14  H   UNL     1      43.447 -16.350   1.677  1.00  0.00     0.164 HD
HETATM   15  H   UNL     1      42.524 -15.396  -0.170  1.00  0.00     0.170 HD
BRANCH  12  16
HETATM   16  C   UNL     1      42.966 -18.268   2.414  1.00  0.00     0.118 C 
HETATM   17  C   UNL     1      43.838 -18.081   3.666  1.00  0.00     0.210 C 
HETATM   18  N   UNL     1      44.038 -19.517   4.113  1.00  0.00    -0.065 N 
HETATM   19  C   UNL     1      43.223 -17.307   4.821  1.00  0.00     0.035 C 
HETATM   20  H   UNL     1      43.142 -19.889   4.458  1.00  0.00     0.280 HD
HETATM   21  C   UNL     1      45.030 -19.630   5.228  1.00  0.00     0.235 C 
HETATM   22  C   UNL     1      44.370 -20.247   2.838  1.00  0.00     0.237 C 
HETATM   23  C   UNL     1      44.491 -18.836   6.417  1.00  0.00     0.028 C 
HETATM   24  C   UNL     1      44.135 -17.390   6.051  1.00  0.00     0.004 C 
HETATM   25  C   UNL     1      43.573 -19.518   1.754  1.00  0.00     0.055 C 
ENDBRANCH  12  16
ENDBRANCH   8  10
TORSDOF 2
ENDMDL
MODEL 8
REMARK VINA RESULT:      -7.3      3.503      7.549
REMARK  2 active torsions:
REMARK  status: ('A' for Active; 'I' for Inactive)
REMARK    1  A    between atoms: C_8  and  N_9 
REMARK       I    between atoms: N_9  and  C_10 
REMARK       I    between atoms: C_10  and  N_11 
REMARK    2  A    between atoms: N_11  and  C_12 
ROOT
HETATM    1  C   UNL     1      38.977 -11.678   5.009  1.00  0.00     0.044 A 
HETATM    2  C   UNL     1      38.905 -11.543   3.630  1.00  0.00     0.117 A 
HETATM    3  F   UNL     1      38.527 -10.373   3.102  1.00  0.00    -0.206 F 
HETATM    4  C   UNL     1      39.192 -12.611   2.791  1.00  0.00     0.067 A 
HETATM    5  C   UNL     1      39.579 -13.846   3.333  1.00  0.00     0.074 A 
HETATM    6  C   UNL     1      39.703 -14.951   2.423  1.00  0.00     0.102 C 
HETATM    7  N   UNL     1      39.762 -15.854   1.694  1.00  0.00    -0.191 NA
HETATM    8  C   UNL     1      39.705 -13.985   4.734  1.00  0.00     0.057 A 
HETATM    9  C   UNL     1      39.368 -12.900   5.561  1.00  0.00     0.034 A 
ENDROOT
BRANCH   8  10
HETATM   10  N   UNL     1      40.102 -15.173   5.398  1.00  0.00    -0.308 N 
HETATM   11  C   UNL     1      41.405 -15.514   5.665  1.00  0.00     0.321 C 
HETATM   12  N   UNL     1      41.519 -16.833   6.043  1.00  0.00    -0.336 N 
HETATM   13  O   UNL     1      42.372 -14.769   5.594  1.00  0.00    -0.247 OA
HETATM   14  H   UNL     1      40.744 -17.410   5.741  1.00  0.00     0.164 HD
HETATM   15  H   UNL     1      39.430 -15.578   6.038  1.00  0.00     0.170 HD
BRANCH  12  16
HETATM   16  C   UNL     1      42.815 -17.488   6.138  1.00  0.00     0.118 C 
HETATM   17  C   UNL     1      43.086 -18.674   5.199  1.00  0.00     0.210 C 
HETATM   18  N   UNL     1      44.309 -19.298   5.846  1.00  0.00    -0.065 N 
HETATM   19  C   UNL     1      43.431 -18.343   3.756  1.00  0.00     0.035 C 
HETATM   20  H   UNL     1      45.112 -18.665   5.724  1.00  0.00     0.280 HD
HETATM   21  C   UNL     1      44.672 -20.609   5.222  1.00  0.00     0.235 C 
HETATM   22  C   UNL     1      43.968 -19.319   7.312  1.00  0.00     0.237 C 
HETATM   23  C   UNL     1      44.994 -20.355   3.750  1.00  0.00     0.028 C 
HETATM   24  C   UNL     1      43.869 -19.613   3.018  1.00  0.00     0.004 C 
HETATM   25  C   UNL     1      43.106 -18.074   7.530  1.00  0.00     0.055 C 
ENDBRANCH  12  16
ENDBRANCH   8  10
TORSDOF 2
ENDMDL
MODEL 9
REMARK VINA RESULT:      -7.2      3.849      7.744
REMARK  2 active torsions:
REMARK  status: ('A' for Active; 'I' for Inactive)
REMARK    1  A    between atoms: C_8  and  N_9 
REMARK       I    between atoms: N_9  and  C_10 
REMARK       I    between atoms: C_10  and  N_11 
REMARK    2  A    between atoms: N_11  and  C_12 
ROOT
HETATM    1  C   UNL     1      37.134 -12.472   0.230  1.00  0.00     0.044 A 
HETATM    2  C   UNL     1      37.827 -12.169  -0.934  1.00  0.00     0.117 A 
HETATM    3  F   UNL     1      37.415 -11.152  -1.699  1.00  0.00    -0.206 F 
HETATM    4  C   UNL     1      38.924 -12.923  -1.329  1.00  0.00     0.067 A 
HETATM    5  C   UNL     1      39.358 -13.998  -0.540  1.00  0.00     0.074 A 
HETATM    6  C   UNL     1      40.392 -14.835  -1.084  1.00  0.00     0.102 C 
HETATM    7  N   UNL     1      41.198 -15.536  -1.543  1.00  0.00    -0.191 NA
HETATM    8  C   UNL     1      38.693 -14.287   0.674  1.00  0.00     0.057 A 
HETATM    9  C   UNL     1      37.561 -13.535   1.028  1.00  0.00     0.034 A 
ENDROOT
BRANCH   8  10
HETATM   10  N   UNL     1      39.048 -15.335   1.562  1.00  0.00    -0.308 N 
HETATM   11  C   UNL     1      40.139 -15.309   2.395  1.00  0.00     0.321 C 
HETATM   12  N   UNL     1      40.409 -16.553   2.918  1.00  0.00    -0.336 N 
HETATM   13  O   UNL     1      40.810 -14.325   2.670  1.00  0.00    -0.247 OA
HETATM   14  H   UNL     1      40.023 -17.315   2.374  1.00  0.00     0.164 HD
HETATM   15  H   UNL     1      38.291 -15.923   1.889  1.00  0.00     0.170 HD
BRANCH  12  16
HETATM   16  C   UNL     1      41.650 -16.827   3.627  1.00  0.00     0.118 C 
HETATM   17  C   UNL     1      42.284 -18.216   3.446  1.00  0.00     0.210 C 
HETATM   18  N   UNL     1      43.279 -18.246   4.591  1.00  0.00    -0.065 N 
HETATM   19  C   UNL     1      43.043 -18.461   2.152  1.00  0.00     0.035 C 
HETATM   20  H   UNL     1      44.034 -17.574   4.396  1.00  0.00     0.280 HD
HETATM   21  C   UNL     1      43.908 -19.593   4.758  1.00  0.00     0.235 C 
HETATM   22  C   UNL     1      42.494 -17.716   5.762  1.00  0.00     0.237 C 
HETATM   23  C   UNL     1      44.661 -19.922   3.470  1.00  0.00     0.028 C 
HETATM   24  C   UNL     1      43.777 -19.804   2.222  1.00  0.00     0.004 C 
HETATM   25  C   UNL     1      41.525 -16.700   5.155  1.00  0.00     0.055 C 
ENDBRANCH  12  16
ENDBRANCH   8  10
TORSDOF 2
ENDMDL
MODEL 10
REMARK VINA RESULT:      -7.2      4.085      7.874
REMARK  2 active torsions:
REMARK  status: ('A' for Active; 'I' for Inactive)
REMARK    1  A    between atoms: C_8  and  N_9 
REMARK       I    between atoms: N_9  and  C_10 
REMARK       I    between atoms: C_10  and  N_11 
REMARK    2  A    between atoms: N_11  and  C_12 
ROOT
HETATM    1  C   UNL     1      41.416 -13.915  -3.143  1.00  0.00     0.044 A 
HETATM    2  C   UNL     1      40.329 -13.060  -3.259  1.00  0.00     0.117 A 
HETATM    3  F   UNL     1      40.276 -12.197  -4.280  1.00  0.00    -0.206 F 
HETATM    4  C   UNL     1      39.309 -13.069  -2.317  1.00  0.00     0.067 A 
HETATM    5  C   UNL     1      39.358 -13.963  -1.237  1.00  0.00     0.074 A 
HETATM    6  C   UNL     1      38.360 -13.811  -0.214  1.00  0.00     0.102 C 
HETATM    7  N   UNL     1      37.579 -13.661   0.633  1.00  0.00    -0.191 NA
HETATM    8  C   UNL     1      40.435 -14.874  -1.133  1.00  0.00     0.057 A 
HETATM    9  C   UNL     1      41.474 -14.814  -2.076  1.00  0.00     0.034 A 
ENDROOT
BRANCH   8  10
HETATM   10  N   UNL     1      40.587 -15.832  -0.099  1.00  0.00    -0.308 N 
HETATM   11  C   UNL     1      41.468 -15.710   0.948  1.00  0.00     0.321 C 
HETATM   12  N   UNL     1      41.619 -16.898   1.627  1.00  0.00    -0.336 N 
HETATM   13  O   UNL     1      42.060 -14.691   1.274  1.00  0.00    -0.247 OA
HETATM   14  H   UNL     1      41.364 -17.712   1.082  1.00  0.00     0.164 HD
HETATM   15  H   UNL     1      39.779 -16.406   0.106  1.00  0.00     0.170 HD
BRANCH  12  16
HETATM   16  C   UNL     1      42.674 -17.082   2.611  1.00  0.00     0.118 C 
HETATM   17  C   UNL     1      43.030 -18.522   3.016  1.00  0.00     0.210 C 
HETATM   18  N   UNL     1      43.840 -18.289   4.278  1.00  0.00    -0.065 N 
HETATM   19  C   UNL     1      43.887 -19.316   2.044  1.00  0.00     0.035 C 
HETATM   20  H   UNL     1      44.735 -17.848   4.026  1.00  0.00     0.280 HD
HETATM   21  C   UNL     1      44.154 -19.567   4.992  1.00  0.00     0.235 C 
HETATM   22  C   UNL     1      43.033 -17.271   5.040  1.00  0.00     0.237 C 
HETATM   23  C   UNL     1      44.986 -20.437   4.050  1.00  0.00     0.028 C 
HETATM   24  C   UNL     1      44.316 -20.640   2.686  1.00  0.00     0.004 C 
HETATM   25  C   UNL     1      42.379 -16.406   3.961  1.00  0.00     0.055 C 
ENDBRANCH  12  16
ENDBRANCH   8  10
TORSDOF 2
ENDMDL
