MODEL 1
REMARK VINA RESULT:      -8.2      0.000      0.000
REMARK  6 active torsions:
REMARK  status: ('A' for Active; 'I' for Inactive)
REMARK    1  A    between atoms: C_2  and  C_3 
REMARK       I    between atoms: C_3  and  N_4 
REMARK    2  A    between atoms: N_4  and  C_5 
REMARK    3  A    between atoms: C_7  and  N_8 
REMARK       I    between atoms: N_8  and  C_9 
REMARK    4  A    between atoms: C_9  and  C_10 
REMARK    5  A    between atoms: C_12  and  O_13 
REMARK    6  A    between atoms: O_13  and  C_14 
ROOT
HETATM    1  N   UNL     1      43.594 -14.996   7.192  1.00  0.00    -0.323 N 
HETATM    2  C   UNL     1      44.250 -13.911   6.640  1.00  0.00     0.256 C 
HETATM    3  O   UNL     1      44.435 -13.700   5.446  1.00  0.00    -0.267 OA
HETATM    4  H   UNL     1      43.642 -15.115   8.196  1.00  0.00     0.169 HD
ENDROOT
BRANCH   1   5
HETATM    5  C   UNL     1      42.920 -16.026   6.495  1.00  0.00     0.037 A 
HETATM    6  C   UNL     1      43.710 -17.034   5.915  1.00  0.00     0.059 A 
HETATM    7  C   UNL     1      43.127 -18.091   5.209  1.00  0.00     0.036 A 
HETATM    8  C   UNL     1      41.735 -18.139   5.088  1.00  0.00     0.029 A 
HETATM    9  C   UNL     1      40.942 -17.149   5.666  1.00  0.00     0.004 A 
HETATM   10  C   UNL     1      41.533 -16.099   6.367  1.00  0.00     0.029 A 
BRANCH   7  11
HETATM   11  N   UNL     1      43.856 -19.133   4.597  1.00  0.00    -0.327 N 
HETATM   12  C   UNL     1      44.154 -19.283   3.255  1.00  0.00     0.221 C 
HETATM   13  O   UNL     1      43.833 -18.527   2.344  1.00  0.00    -0.273 OA
HETATM   14  H   UNL     1      44.203 -19.850   5.221  1.00  0.00     0.169 HD
BRANCH  12  15
HETATM   15  C   UNL     1      44.959 -20.539   2.972  1.00  0.00     0.098 C 
HETATM   16  C   UNL     1      44.168 -21.553   2.165  1.00  0.00     0.014 C 
ENDBRANCH  12  15
ENDBRANCH   7  11
ENDBRANCH   1   5
BRANCH   2  17
HETATM   17  C   UNL     1      44.809 -12.924   7.606  1.00  0.00     0.037 A 
HETATM   18  C   UNL     1      44.003 -12.155   8.444  1.00  0.00     0.075 A 
HETATM   19  C   UNL     1      44.626 -11.219   9.249  1.00  0.00     0.165 A 
HETATM   20  N   UNL     1      45.959 -11.014   9.284  1.00  0.00    -0.237 NA
HETATM   21  C   UNL     1      46.714 -11.772   8.465  1.00  0.00     0.120 A 
HETATM   22  C   UNL     1      46.192 -12.726   7.612  1.00  0.00     0.036 A 
BRANCH  19  23
HETATM   23  O   UNL     1      43.810 -10.453  10.059  1.00  0.00    -0.329 OA
BRANCH  23  24
HETATM   24  C   UNL     1      43.967 -10.658  11.482  1.00  0.00     0.130 C 
HETATM   25  C   UNL     1      43.375  -9.529  12.367  1.00  0.00     0.032 C 
HETATM   26  C   UNL     1      42.971 -10.620  13.374  1.00  0.00     0.005 C 
HETATM   27  C   UNL     1      42.964 -11.606  12.192  1.00  0.00     0.032 C 
ENDBRANCH  23  24
ENDBRANCH  19  23
ENDBRANCH   2  17
TORSDOF 6
ENDMDL
MODEL 2
REMARK VINA RESULT:      -8.1      1.279      9.536
REMARK  6 active torsions:
REMARK  status: ('A' for Active; 'I' for Inactive)
REMARK    1  A    between atoms: C_2  and  C_3 
REMARK       I    between atoms: C_3  and  N_4 
REMARK    2  A    between atoms: N_4  and  C_5 
REMARK    3  A    between atoms: C_7  and  N_8 
REMARK       I    between atoms: N_8  and  C_9 
REMARK    4  A    between atoms: C_9  and  C_10 
REMARK    5  A    between atoms: C_12  and  O_13 
REMARK    6  A    between atoms: O_13  and  C_14 
ROOT
HETATM    1  N   UNL     1      44.140 -14.242   7.517  1.00  0.00    -0.323 N 
HETATM    2  C   UNL     1      43.840 -14.452   6.183  1.00  0.00     0.256 C 
HETATM    3  O   UNL     1      44.091 -13.696   5.251  1.00  0.00    -0.267 OA
HETATM    4  H   UNL     1      43.745 -14.882   8.195  1.00  0.00     0.169 HD
ENDROOT
BRANCH   1   5
HETATM    5  C   UNL     1      44.882 -13.169   8.062  1.00  0.00     0.037 A 
HETATM    6  C   UNL     1      44.273 -12.419   9.083  1.00  0.00     0.059 A 
HETATM    7  C   UNL     1      44.935 -11.340   9.680  1.00  0.00     0.036 A 
HETATM    8  C   UNL     1      46.224 -11.014   9.249  1.00  0.00     0.029 A 
HETATM    9  C   UNL     1      46.841 -11.757   8.243  1.00  0.00     0.004 A 
HETATM   10  C   UNL     1      46.172 -12.829   7.654  1.00  0.00     0.029 A 
BRANCH   7  11
HETATM   11  N   UNL     1      44.383 -10.541  10.704  1.00  0.00    -0.327 N 
HETATM   12  C   UNL     1      43.785 -10.962  11.877  1.00  0.00     0.221 C 
HETATM   13  O   UNL     1      43.624 -12.122  12.242  1.00  0.00    -0.273 OA
HETATM   14  H   UNL     1      44.439  -9.541  10.558  1.00  0.00     0.169 HD
BRANCH  12  15
HETATM   15  C   UNL     1      43.306  -9.806  12.737  1.00  0.00     0.098 C 
HETATM   16  C   UNL     1      42.529 -10.283  13.951  1.00  0.00     0.014 C 
ENDBRANCH  12  15
ENDBRANCH   7  11
ENDBRANCH   1   5
BRANCH   2  17
HETATM   17  C   UNL     1      43.110 -15.712   5.868  1.00  0.00     0.037 A 
HETATM   18  C   UNL     1      43.725 -16.963   5.900  1.00  0.00     0.075 A 
HETATM   19  C   UNL     1      42.970 -18.056   5.518  1.00  0.00     0.165 A 
HETATM   20  N   UNL     1      41.679 -17.991   5.132  1.00  0.00    -0.237 NA
HETATM   21  C   UNL     1      41.110 -16.770   5.111  1.00  0.00     0.120 A 
HETATM   22  C   UNL     1      41.778 -15.611   5.460  1.00  0.00     0.036 A 
BRANCH  19  23
HETATM   23  O   UNL     1      43.600 -19.286   5.539  1.00  0.00    -0.329 OA
BRANCH  23  24
HETATM   24  C   UNL     1      44.502 -19.549   4.441  1.00  0.00     0.130 C 
HETATM   25  C   UNL     1      44.767 -21.053   4.167  1.00  0.00     0.032 C 
HETATM   26  C   UNL     1      44.810 -20.705   2.668  1.00  0.00     0.005 C 
HETATM   27  C   UNL     1      43.927 -19.488   3.000  1.00  0.00     0.032 C 
ENDBRANCH  23  24
ENDBRANCH  19  23
ENDBRANCH   2  17
TORSDOF 6
ENDMDL
MODEL 3
REMARK VINA RESULT:      -7.9      5.316      9.024
REMARK  6 active torsions:
REMARK  status: ('A' for Active; 'I' for Inactive)
REMARK    1  A    between atoms: C_2  and  C_3 
REMARK       I    between atoms: C_3  and  N_4 
REMARK    2  A    between atoms: N_4  and  C_5 
REMARK    3  A    between atoms: C_7  and  N_8 
REMARK       I    between atoms: N_8  and  C_9 
REMARK    4  A    between atoms: C_9  and  C_10 
REMARK    5  A    between atoms: C_12  and  O_13 
REMARK    6  A    between atoms: O_13  and  C_14 
ROOT
HETATM    1  N   UNL     1      42.684 -15.600   2.291  1.00  0.00    -0.323 N 
HETATM    2  C   UNL     1      42.148 -16.055   3.482  1.00  0.00     0.256 C 
HETATM    3  O   UNL     1      41.051 -15.763   3.947  1.00  0.00    -0.267 OA
HETATM    4  H   UNL     1      43.656 -15.807   2.102  1.00  0.00     0.169 HD
ENDROOT
BRANCH   1   5
HETATM    5  C   UNL     1      42.041 -14.792   1.324  1.00  0.00     0.037 A 
HETATM    6  C   UNL     1      41.348 -15.450   0.294  1.00  0.00     0.059 A 
HETATM    7  C   UNL     1      40.683 -14.729  -0.704  1.00  0.00     0.036 A 
HETATM    8  C   UNL     1      40.711 -13.332  -0.664  1.00  0.00     0.029 A 
HETATM    9  C   UNL     1      41.389 -12.670   0.358  1.00  0.00     0.004 A 
HETATM   10  C   UNL     1      42.050 -13.397   1.348  1.00  0.00     0.029 A 
BRANCH   7  11
HETATM   11  N   UNL     1      39.972 -15.322  -1.770  1.00  0.00    -0.327 N 
HETATM   12  C   UNL     1      40.420 -15.564  -3.055  1.00  0.00     0.221 C 
HETATM   13  O   UNL     1      41.531 -15.302  -3.505  1.00  0.00    -0.273 OA
HETATM   14  H   UNL     1      39.023 -15.605  -1.560  1.00  0.00     0.169 HD
BRANCH  12  15
HETATM   15  C   UNL     1      39.365 -16.217  -3.929  1.00  0.00     0.098 C 
HETATM   16  C   UNL     1      38.053 -15.454  -3.906  1.00  0.00     0.014 C 
ENDBRANCH  12  15
ENDBRANCH   7  11
ENDBRANCH   1   5
BRANCH   2  17
HETATM   17  C   UNL     1      43.014 -16.963   4.284  1.00  0.00     0.037 A 
HETATM   18  C   UNL     1      43.180 -18.311   3.972  1.00  0.00     0.075 A 
HETATM   19  C   UNL     1      43.950 -19.076   4.828  1.00  0.00     0.165 A 
HETATM   20  N   UNL     1      44.559 -18.600   5.933  1.00  0.00    -0.237 NA
HETATM   21  C   UNL     1      44.382 -17.293   6.212  1.00  0.00     0.120 A 
HETATM   22  C   UNL     1      43.622 -16.444   5.430  1.00  0.00     0.036 A 
BRANCH  19  23
HETATM   23  O   UNL     1      44.090 -20.414   4.512  1.00  0.00    -0.329 OA
BRANCH  23  24
HETATM   24  C   UNL     1      44.517 -20.701   3.161  1.00  0.00     0.130 C 
HETATM   25  C   UNL     1      44.632 -22.211   2.825  1.00  0.00     0.032 C 
HETATM   26  C   UNL     1      44.125 -21.869   1.413  1.00  0.00     0.005 C 
HETATM   27  C   UNL     1      43.452 -20.631   2.034  1.00  0.00     0.032 C 
ENDBRANCH  23  24
ENDBRANCH  19  23
ENDBRANCH   2  17
TORSDOF 6
ENDMDL
MODEL 4
REMARK VINA RESULT:      -7.8      1.845      2.706
REMARK  6 active torsions:
REMARK  status: ('A' for Active; 'I' for Inactive)
REMARK    1  A    between atoms: C_2  and  C_3 
REMARK       I    between atoms: C_3  and  N_4 
REMARK    2  A    between atoms: N_4  and  C_5 
REMARK    3  A    between atoms: C_7  and  N_8 
REMARK       I    between atoms: N_8  and  C_9 
REMARK    4  A    between atoms: C_9  and  C_10 
REMARK    5  A    between atoms: C_12  and  O_13 
REMARK    6  A    between atoms: O_13  and  C_14 
ROOT
HETATM    1  N   UNL     1      43.984 -14.956   7.582  1.00  0.00    -0.323 N 
HETATM    2  C   UNL     1      44.705 -13.901   7.052  1.00  0.00     0.256 C 
HETATM    3  O   UNL     1      45.105 -13.797   5.897  1.00  0.00    -0.267 OA
HETATM    4  H   UNL     1      43.846 -14.976   8.584  1.00  0.00     0.169 HD
ENDROOT
BRANCH   1   5
HETATM    5  C   UNL     1      43.478 -16.076   6.882  1.00  0.00     0.037 A 
HETATM    6  C   UNL     1      42.498 -15.835   5.904  1.00  0.00     0.059 A 
HETATM    7  C   UNL     1      41.944 -16.885   5.163  1.00  0.00     0.036 A 
HETATM    8  C   UNL     1      42.383 -18.190   5.404  1.00  0.00     0.029 A 
HETATM    9  C   UNL     1      43.361 -18.439   6.366  1.00  0.00     0.004 A 
HETATM   10  C   UNL     1      43.906 -17.386   7.100  1.00  0.00     0.029 A 
BRANCH   7  11
HETATM   11  N   UNL     1      40.954 -16.718   4.171  1.00  0.00    -0.327 N 
HETATM   12  C   UNL     1      41.129 -16.318   2.859  1.00  0.00     0.221 C 
HETATM   13  O   UNL     1      42.190 -16.033   2.315  1.00  0.00    -0.273 OA
HETATM   14  H   UNL     1      40.005 -16.920   4.460  1.00  0.00     0.169 HD
BRANCH  12  15
HETATM   15  C   UNL     1      39.822 -16.250   2.090  1.00  0.00     0.098 C 
HETATM   16  C   UNL     1      39.223 -14.855   2.107  1.00  0.00     0.014 C 
ENDBRANCH  12  15
ENDBRANCH   7  11
ENDBRANCH   1   5
BRANCH   2  17
HETATM   17  C   UNL     1      45.048 -12.803   7.998  1.00  0.00     0.037 A 
HETATM   18  C   UNL     1      44.096 -12.184   8.807  1.00  0.00     0.075 A 
HETATM   19  C   UNL     1      44.515 -11.127   9.594  1.00  0.00     0.165 A 
HETATM   20  N   UNL     1      45.783 -10.669   9.638  1.00  0.00    -0.237 NA
HETATM   21  C   UNL     1      46.683 -11.286   8.847  1.00  0.00     0.120 A 
HETATM   22  C   UNL     1      46.367 -12.342   8.013  1.00  0.00     0.036 A 
BRANCH  19  23
HETATM   23  O   UNL     1      43.555 -10.514  10.376  1.00  0.00    -0.329 OA
BRANCH  23  24
HETATM   24  C   UNL     1      43.640 -10.775  11.795  1.00  0.00     0.130 C 
HETATM   25  C   UNL     1      43.462  -9.523  12.695  1.00  0.00     0.032 C 
HETATM   26  C   UNL     1      42.722 -10.427  13.695  1.00  0.00     0.005 C 
HETATM   27  C   UNL     1      42.381 -11.342  12.505  1.00  0.00     0.032 C 
ENDBRANCH  23  24
ENDBRANCH  19  23
ENDBRANCH   2  17
TORSDOF 6
ENDMDL
MODEL 5
REMARK VINA RESULT:      -7.5      6.068      8.671
REMARK  6 active torsions:
REMARK  status: ('A' for Active; 'I' for Inactive)
REMARK    1  A    between atoms: C_2  and  C_3 
REMARK       I    between atoms: C_3  and  N_4 
REMARK    2  A    between atoms: N_4  and  C_5 
REMARK    3  A    between atoms: C_7  and  N_8 
REMARK       I    between atoms: N_8  and  C_9 
REMARK    4  A    between atoms: C_9  and  C_10 
REMARK    5  A    between atoms: C_12  and  O_13 
REMARK    6  A    between atoms: O_13  and  C_14 
ROOT
HETATM    1  N   UNL     1      41.792 -17.750   1.990  1.00  0.00    -0.323 N 
HETATM    2  C   UNL     1      43.011 -18.238   1.555  1.00  0.00     0.256 C 
HETATM    3  O   UNL     1      43.669 -17.819   0.610  1.00  0.00    -0.267 OA
HETATM    4  H   UNL     1      41.293 -18.285   2.690  1.00  0.00     0.169 HD
ENDROOT
BRANCH   1   5
HETATM    5  C   UNL     1      41.108 -16.614   1.500  1.00  0.00     0.037 A 
HETATM    6  C   UNL     1      41.663 -15.959   0.387  1.00  0.00     0.059 A 
HETATM    7  C   UNL     1      41.052 -14.828  -0.165  1.00  0.00     0.036 A 
HETATM    8  C   UNL     1      39.868 -14.351   0.406  1.00  0.00     0.029 A 
HETATM    9  C   UNL     1      39.304 -14.998   1.505  1.00  0.00     0.004 A 
HETATM   10  C   UNL     1      39.922 -16.125   2.048  1.00  0.00     0.029 A 
BRANCH   7  11
HETATM   11  N   UNL     1      41.555 -14.118  -1.276  1.00  0.00    -0.327 N 
HETATM   12  C   UNL     1      41.328 -14.372  -2.616  1.00  0.00     0.221 C 
HETATM   13  O   UNL     1      40.639 -15.272  -3.085  1.00  0.00    -0.273 OA
HETATM   14  H   UNL     1      42.148 -13.328  -1.059  1.00  0.00     0.169 HD
BRANCH  12  15
HETATM   15  C   UNL     1      42.044 -13.391  -3.527  1.00  0.00     0.098 C 
HETATM   16  C   UNL     1      42.705 -12.268  -2.748  1.00  0.00     0.014 C 
ENDBRANCH  12  15
ENDBRANCH   7  11
ENDBRANCH   1   5
BRANCH   2  17
HETATM   17  C   UNL     1      43.550 -19.410   2.301  1.00  0.00     0.037 A 
HETATM   18  C   UNL     1      43.918 -19.340   3.643  1.00  0.00     0.075 A 
HETATM   19  C   UNL     1      44.474 -20.470   4.214  1.00  0.00     0.165 A 
HETATM   20  N   UNL     1      44.668 -21.634   3.560  1.00  0.00    -0.237 NA
HETATM   21  C   UNL     1      44.302 -21.674   2.264  1.00  0.00     0.120 A 
HETATM   22  C   UNL     1      43.750 -20.598   1.594  1.00  0.00     0.036 A 
BRANCH  19  23
HETATM   23  O   UNL     1      44.850 -20.378   5.541  1.00  0.00    -0.329 OA
BRANCH  23  24
HETATM   24  C   UNL     1      44.150 -19.385   6.324  1.00  0.00     0.130 C 
HETATM   25  C   UNL     1      43.815 -19.824   7.774  1.00  0.00     0.032 C 
HETATM   26  C   UNL     1      44.084 -18.371   8.207  1.00  0.00     0.005 C 
HETATM   27  C   UNL     1      44.989 -18.247   6.967  1.00  0.00     0.032 C 
ENDBRANCH  23  24
ENDBRANCH  19  23
ENDBRANCH   2  17
TORSDOF 6
ENDMDL
MODEL 6
REMARK VINA RESULT:      -7.4      2.889      3.554
REMARK  6 active torsions:
REMARK  status: ('A' for Active; 'I' for Inactive)
REMARK    1  A    between atoms: C_2  and  C_3 
REMARK       I    between atoms: C_3  and  N_4 
REMARK    2  A    between atoms: N_4  and  C_5 
REMARK    3  A    between atoms: C_7  and  N_8 
REMARK       I    between atoms: N_8  and  C_9 
REMARK    4  A    between atoms: C_9  and  C_10 
REMARK    5  A    between atoms: C_12  and  O_13 
REMARK    6  A    between atoms: O_13  and  C_14 
ROOT
HETATM    1  N   UNL     1      40.626 -14.096   4.931  1.00  0.00    -0.323 N 
HETATM    2  C   UNL     1      41.460 -13.002   5.083  1.00  0.00     0.256 C 
HETATM    3  O   UNL     1      42.406 -12.701   4.364  1.00  0.00    -0.267 OA
HETATM    4  H   UNL     1      39.977 -14.301   5.681  1.00  0.00     0.169 HD
ENDROOT
BRANCH   1   5
HETATM    5  C   UNL     1      40.632 -15.028   3.868  1.00  0.00     0.037 A 
HETATM    6  C   UNL     1      41.520 -16.112   3.968  1.00  0.00     0.059 A 
HETATM    7  C   UNL     1      41.591 -17.083   2.962  1.00  0.00     0.036 A 
HETATM    8  C   UNL     1      40.758 -16.964   1.846  1.00  0.00     0.029 A 
HETATM    9  C   UNL     1      39.868 -15.896   1.741  1.00  0.00     0.004 A 
HETATM   10  C   UNL     1      39.805 -14.934   2.748  1.00  0.00     0.029 A 
BRANCH   7  11
HETATM   11  N   UNL     1      42.461 -18.193   2.993  1.00  0.00    -0.327 N 
HETATM   12  C   UNL     1      43.689 -18.325   2.372  1.00  0.00     0.221 C 
HETATM   13  O   UNL     1      44.250 -17.487   1.673  1.00  0.00    -0.273 OA
HETATM   14  H   UNL     1      42.144 -18.984   3.540  1.00  0.00     0.169 HD
BRANCH  12  15
HETATM   15  C   UNL     1      44.336 -19.673   2.632  1.00  0.00     0.098 C 
HETATM   16  C   UNL     1      43.618 -20.799   1.908  1.00  0.00     0.014 C 
ENDBRANCH  12  15
ENDBRANCH   7  11
ENDBRANCH   1   5
BRANCH   2  17
HETATM   17  C   UNL     1      41.187 -12.130   6.259  1.00  0.00     0.037 A 
HETATM   18  C   UNL     1      42.203 -11.533   7.003  1.00  0.00     0.075 A 
HETATM   19  C   UNL     1      41.836 -10.802   8.118  1.00  0.00     0.165 A 
HETATM   20  N   UNL     1      40.562 -10.621   8.521  1.00  0.00    -0.237 NA
HETATM   21  C   UNL     1      39.599 -11.209   7.784  1.00  0.00     0.120 A 
HETATM   22  C   UNL     1      39.858 -11.970   6.660  1.00  0.00     0.036 A 
BRANCH  19  23
HETATM   23  O   UNL     1      42.858 -10.232   8.853  1.00  0.00    -0.329 OA
BRANCH  23  24
HETATM   24  C   UNL     1      43.602 -11.135   9.701  1.00  0.00     0.130 C 
HETATM   25  C   UNL     1      45.063 -11.394   9.247  1.00  0.00     0.032 C 
HETATM   26  C   UNL     1      45.449 -11.441  10.736  1.00  0.00     0.005 C 
HETATM   27  C   UNL     1      44.213 -10.564  11.009  1.00  0.00     0.032 C 
ENDBRANCH  23  24
ENDBRANCH  19  23
ENDBRANCH   2  17
TORSDOF 6
ENDMDL
MODEL 7
REMARK VINA RESULT:      -7.3      3.725      4.699
REMARK  6 active torsions:
REMARK  status: ('A' for Active; 'I' for Inactive)
REMARK    1  A    between atoms: C_2  and  C_3 
REMARK       I    between atoms: C_3  and  N_4 
REMARK    2  A    between atoms: N_4  and  C_5 
REMARK    3  A    between atoms: C_7  and  N_8 
REMARK       I    between atoms: N_8  and  C_9 
REMARK    4  A    between atoms: C_9  and  C_10 
REMARK    5  A    between atoms: C_12  and  O_13 
REMARK    6  A    between atoms: O_13  and  C_14 
ROOT
HETATM    1  N   UNL     1      42.404 -15.679   4.985  1.00  0.00    -0.323 N 
HETATM    2  C   UNL     1      41.136 -15.492   5.503  1.00  0.00     0.256 C 
HETATM    3  O   UNL     1      40.530 -16.259   6.244  1.00  0.00    -0.267 OA
HETATM    4  H   UNL     1      42.722 -15.035   4.271  1.00  0.00     0.169 HD
ENDROOT
BRANCH   1   5
HETATM    5  C   UNL     1      43.296 -16.737   5.281  1.00  0.00     0.037 A 
HETATM    6  C   UNL     1      43.289 -17.844   4.416  1.00  0.00     0.059 A 
HETATM    7  C   UNL     1      44.139 -18.935   4.632  1.00  0.00     0.036 A 
HETATM    8  C   UNL     1      45.008 -18.909   5.727  1.00  0.00     0.029 A 
HETATM    9  C   UNL     1      45.029 -17.811   6.586  1.00  0.00     0.004 A 
HETATM   10  C   UNL     1      44.177 -16.730   6.362  1.00  0.00     0.029 A 
BRANCH   7  11
HETATM   11  N   UNL     1      44.183 -20.081   3.810  1.00  0.00    -0.327 N 
HETATM   12  C   UNL     1      43.973 -20.153   2.446  1.00  0.00     0.221 C 
HETATM   13  O   UNL     1      43.707 -19.220   1.695  1.00  0.00    -0.273 OA
HETATM   14  H   UNL     1      44.398 -20.950   4.282  1.00  0.00     0.169 HD
BRANCH  12  15
HETATM   15  C   UNL     1      44.099 -21.566   1.908  1.00  0.00     0.098 C 
HETATM   16  C   UNL     1      44.550 -22.545   2.977  1.00  0.00     0.014 C 
ENDBRANCH  12  15
ENDBRANCH   7  11
ENDBRANCH   1   5
BRANCH   2  17
HETATM   17  C   UNL     1      40.436 -14.245   5.086  1.00  0.00     0.037 A 
HETATM   18  C   UNL     1      40.003 -13.286   5.999  1.00  0.00     0.075 A 
HETATM   19  C   UNL     1      39.300 -12.203   5.505  1.00  0.00     0.165 A 
HETATM   20  N   UNL     1      39.021 -12.010   4.199  1.00  0.00    -0.237 NA
HETATM   21  C   UNL     1      39.453 -12.952   3.338  1.00  0.00     0.120 A 
HETATM   22  C   UNL     1      40.151 -14.079   3.728  1.00  0.00     0.036 A 
BRANCH  19  23
HETATM   23  O   UNL     1      38.863 -11.270   6.426  1.00  0.00    -0.329 OA
BRANCH  23  24
HETATM   24  C   UNL     1      39.742 -11.037   7.550  1.00  0.00     0.130 C 
HETATM   25  C   UNL     1      39.939  -9.542   7.918  1.00  0.00     0.032 C 
HETATM   26  C   UNL     1      39.981  -9.978   9.393  1.00  0.00     0.005 C 
HETATM   27  C   UNL     1      39.155 -11.209   8.977  1.00  0.00     0.032 C 
ENDBRANCH  23  24
ENDBRANCH  19  23
ENDBRANCH   2  17
TORSDOF 6
ENDMDL
MODEL 8
REMARK VINA RESULT:      -7.3      4.864      8.452
REMARK  6 active torsions:
REMARK  status: ('A' for Active; 'I' for Inactive)
REMARK    1  A    between atoms: C_2  and  C_3 
REMARK       I    between atoms: C_3  and  N_4 
REMARK    2  A    between atoms: N_4  and  C_5 
REMARK    3  A    between atoms: C_7  and  N_8 
REMARK       I    between atoms: N_8  and  C_9 
REMARK    4  A    between atoms: C_9  and  C_10 
REMARK    5  A    between atoms: C_12  and  O_13 
REMARK    6  A    between atoms: O_13  and  C_14 
ROOT
HETATM    1  N   UNL     1      42.070 -16.277   3.282  1.00  0.00    -0.323 N 
HETATM    2  C   UNL     1      42.249 -15.894   4.599  1.00  0.00     0.256 C 
HETATM    3  O   UNL     1      41.805 -14.883   5.132  1.00  0.00    -0.267 OA
HETATM    4  H   UNL     1      42.614 -17.060   2.941  1.00  0.00     0.169 HD
ENDROOT
BRANCH   1   5
HETATM    5  C   UNL     1      41.261 -15.638   2.314  1.00  0.00     0.037 A 
HETATM    6  C   UNL     1      41.890 -15.207   1.133  1.00  0.00     0.059 A 
HETATM    7  C   UNL     1      41.166 -14.567   0.121  1.00  0.00     0.036 A 
HETATM    8  C   UNL     1      39.794 -14.362   0.296  1.00  0.00     0.029 A 
HETATM    9  C   UNL     1      39.159 -14.794   1.460  1.00  0.00     0.004 A 
HETATM   10  C   UNL     1      39.890 -15.430   2.463  1.00  0.00     0.029 A 
BRANCH   7  11
HETATM   11  N   UNL     1      41.731 -14.104  -1.085  1.00  0.00    -0.327 N 
HETATM   12  C   UNL     1      42.415 -12.921  -1.301  1.00  0.00     0.221 C 
HETATM   13  O   UNL     1      42.654 -12.051  -0.470  1.00  0.00    -0.273 OA
HETATM   14  H   UNL     1      41.624 -14.716  -1.884  1.00  0.00     0.169 HD
BRANCH  12  15
HETATM   15  C   UNL     1      42.874 -12.765  -2.739  1.00  0.00     0.098 C 
HETATM   16  C   UNL     1      42.055 -11.730  -3.490  1.00  0.00     0.014 C 
ENDBRANCH  12  15
ENDBRANCH   7  11
ENDBRANCH   1   5
BRANCH   2  17
HETATM   17  C   UNL     1      43.094 -16.794   5.433  1.00  0.00     0.037 A 
HETATM   18  C   UNL     1      43.832 -17.845   4.891  1.00  0.00     0.075 A 
HETATM   19  C   UNL     1      44.524 -18.660   5.768  1.00  0.00     0.165 A 
HETATM   20  N   UNL     1      44.540 -18.495   7.106  1.00  0.00    -0.237 NA
HETATM   21  C   UNL     1      43.818 -17.471   7.603  1.00  0.00     0.120 A 
HETATM   22  C   UNL     1      43.082 -16.605   6.817  1.00  0.00     0.036 A 
BRANCH  19  23
HETATM   23  O   UNL     1      45.236 -19.707   5.215  1.00  0.00    -0.329 OA
BRANCH  23  24
HETATM   24  C   UNL     1      44.452 -20.700   4.515  1.00  0.00     0.130 C 
HETATM   25  C   UNL     1      44.834 -20.893   3.024  1.00  0.00     0.032 C 
HETATM   26  C   UNL     1      44.535 -22.391   3.208  1.00  0.00     0.005 C 
HETATM   27  C   UNL     1      44.836 -22.193   4.705  1.00  0.00     0.032 C 
ENDBRANCH  23  24
ENDBRANCH  19  23
ENDBRANCH   2  17
TORSDOF 6
ENDMDL
MODEL 9
REMARK VINA RESULT:      -7.2      2.910      9.630
REMARK  6 active torsions:
REMARK  status: ('A' for Active; 'I' for Inactive)
REMARK    1  A    between atoms: C_2  and  C_3 
REMARK       I    between atoms: C_3  and  N_4 
REMARK    2  A    between atoms: N_4  and  C_5 
REMARK    3  A    between atoms: C_7  and  N_8 
REMARK       I    between atoms: N_8  and  C_9 
REMARK    4  A    between atoms: C_9  and  C_10 
REMARK    5  A    between atoms: C_12  and  O_13 
REMARK    6  A    between atoms: O_13  and  C_14 
ROOT
HETATM    1  N   UNL     1      41.530 -13.263   4.321  1.00  0.00    -0.323 N 
HETATM    2  C   UNL     1      42.647 -13.952   3.883  1.00  0.00     0.256 C 
HETATM    3  O   UNL     1      43.812 -13.576   3.958  1.00  0.00    -0.267 OA
HETATM    4  H   UNL     1      40.621 -13.626   4.064  1.00  0.00     0.169 HD
ENDROOT
BRANCH   1   5
HETATM    5  C   UNL     1      41.511 -12.040   5.031  1.00  0.00     0.037 A 
HETATM    6  C   UNL     1      41.661 -12.103   6.427  1.00  0.00     0.059 A 
HETATM    7  C   UNL     1      41.655 -10.942   7.208  1.00  0.00     0.036 A 
HETATM    8  C   UNL     1      41.502  -9.703   6.578  1.00  0.00     0.029 A 
HETATM    9  C   UNL     1      41.362  -9.628   5.193  1.00  0.00     0.004 A 
HETATM   10  C   UNL     1      41.367 -10.791   4.424  1.00  0.00     0.029 A 
BRANCH   7  11
HETATM   11  N   UNL     1      41.794 -10.931   8.612  1.00  0.00    -0.327 N 
HETATM   12  C   UNL     1      42.959 -10.810   9.347  1.00  0.00     0.221 C 
HETATM   13  O   UNL     1      44.096 -10.689   8.903  1.00  0.00    -0.273 OA
HETATM   14  H   UNL     1      40.934 -11.019   9.138  1.00  0.00     0.169 HD
BRANCH  12  15
HETATM   15  C   UNL     1      42.713 -10.844  10.844  1.00  0.00     0.098 C 
HETATM   16  C   UNL     1      43.994 -10.658  11.637  1.00  0.00     0.014 C 
ENDBRANCH  12  15
ENDBRANCH   7  11
ENDBRANCH   1   5
BRANCH   2  17
HETATM   17  C   UNL     1      42.389 -15.264   3.227  1.00  0.00     0.037 A 
HETATM   18  C   UNL     1      43.379 -16.234   3.075  1.00  0.00     0.075 A 
HETATM   19  C   UNL     1      43.046 -17.386   2.387  1.00  0.00     0.165 A 
HETATM   20  N   UNL     1      41.826 -17.635   1.868  1.00  0.00    -0.237 NA
HETATM   21  C   UNL     1      40.888 -16.681   2.031  1.00  0.00     0.120 A 
HETATM   22  C   UNL     1      41.119 -15.489   2.690  1.00  0.00     0.036 A 
BRANCH  19  23
HETATM   23  O   UNL     1      44.044 -18.328   2.229  1.00  0.00    -0.329 OA
BRANCH  23  24
HETATM   24  C   UNL     1      43.776 -19.629   2.799  1.00  0.00     0.130 C 
HETATM   25  C   UNL     1      43.686 -20.783   1.765  1.00  0.00     0.032 C 
HETATM   26  C   UNL     1      44.359 -21.687   2.813  1.00  0.00     0.005 C 
HETATM   27  C   UNL     1      44.967 -20.409   3.419  1.00  0.00     0.032 C 
ENDBRANCH  23  24
ENDBRANCH  19  23
ENDBRANCH   2  17
TORSDOF 6
ENDMDL
MODEL 10
REMARK VINA RESULT:      -7.1      4.873      7.925
REMARK  6 active torsions:
REMARK  status: ('A' for Active; 'I' for Inactive)
REMARK    1  A    between atoms: C_2  and  C_3 
REMARK       I    between atoms: C_3  and  N_4 
REMARK    2  A    between atoms: N_4  and  C_5 
REMARK    3  A    between atoms: C_7  and  N_8 
REMARK       I    between atoms: N_8  and  C_9 
REMARK    4  A    between atoms: C_9  and  C_10 
REMARK    5  A    between atoms: C_12  and  O_13 
REMARK    6  A    between atoms: O_13  and  C_14 
ROOT
HETATM    1  N   UNL     1      41.802 -16.872   2.881  1.00  0.00    -0.323 N 
HETATM    2  C   UNL     1      42.283 -18.089   2.433  1.00  0.00     0.256 C 
HETATM    3  O   UNL     1      42.080 -18.594   1.334  1.00  0.00    -0.267 OA
HETATM    4  H   UNL     1      41.927 -16.647   3.860  1.00  0.00     0.169 HD
ENDROOT
BRANCH   1   5
HETATM    5  C   UNL     1      41.066 -15.922   2.134  1.00  0.00     0.037 A 
HETATM    6  C   UNL     1      41.770 -15.169   1.179  1.00  0.00     0.059 A 
HETATM    7  C   UNL     1      41.121 -14.209   0.395  1.00  0.00     0.036 A 
HETATM    8  C   UNL     1      39.749 -14.007   0.570  1.00  0.00     0.029 A 
HETATM    9  C   UNL     1      39.039 -14.754   1.508  1.00  0.00     0.004 A 
HETATM   10  C   UNL     1      39.695 -15.708   2.285  1.00  0.00     0.029 A 
BRANCH   7  11
HETATM   11  N   UNL     1      41.765 -13.413  -0.577  1.00  0.00    -0.327 N 
HETATM   12  C   UNL     1      42.349 -12.173  -0.403  1.00  0.00     0.221 C 
HETATM   13  O   UNL     1      42.414 -11.533   0.641  1.00  0.00    -0.273 OA
HETATM   14  H   UNL     1      41.802 -13.805  -1.509  1.00  0.00     0.169 HD
BRANCH  12  15
HETATM   15  C   UNL     1      42.942 -11.621  -1.687  1.00  0.00     0.098 C 
HETATM   16  C   UNL     1      43.469 -10.208  -1.511  1.00  0.00     0.014 C 
ENDBRANCH  12  15
ENDBRANCH   7  11
ENDBRANCH   1   5
BRANCH   2  17
HETATM   17  C   UNL     1      43.102 -18.866   3.405  1.00  0.00     0.037 A 
HETATM   18  C   UNL     1      42.915 -18.777   4.783  1.00  0.00     0.075 A 
HETATM   19  C   UNL     1      43.780 -19.488   5.594  1.00  0.00     0.165 A 
HETATM   20  N   UNL     1      44.781 -20.268   5.136  1.00  0.00    -0.237 NA
HETATM   21  C   UNL     1      44.939 -20.337   3.799  1.00  0.00     0.120 A 
HETATM   22  C   UNL     1      44.138 -19.656   2.902  1.00  0.00     0.036 A 
BRANCH  19  23
HETATM   23  O   UNL     1      43.592 -19.375   6.958  1.00  0.00    -0.329 OA
BRANCH  23  24
HETATM   24  C   UNL     1      44.008 -18.123   7.548  1.00  0.00     0.130 C 
HETATM   25  C   UNL     1      44.736 -17.159   6.574  1.00  0.00     0.032 C 
HETATM   26  C   UNL     1      44.037 -15.998   7.304  1.00  0.00     0.005 C 
HETATM   27  C   UNL     1      42.942 -17.004   7.703  1.00  0.00     0.032 C 
ENDBRANCH  23  24
ENDBRANCH  19  23
ENDBRANCH   2  17
TORSDOF 6
ENDMDL
