MODEL 1
REMARK VINA RESULT:      -9.6      0.000      0.000
REMARK  5 active torsions:
REMARK  status: ('A' for Active; 'I' for Inactive)
REMARK    1  A    between atoms: C_5  and  O_6 
REMARK    2  A    between atoms: O_6  and  C_7 
REMARK    3  A    between atoms: C_7  and  C_8 
REMARK       I    between atoms: C_8  and  N_9 
REMARK    4  A    between atoms: N_9  and  N_10 
REMARK       I    between atoms: N_10  and  C_11 
REMARK    5  A    between atoms: C_11  and  C_12 
ROOT
HETATM    1  N   UNL     1      44.246 -15.929   6.964  1.00  0.00    -0.263 N 
HETATM    2  C   UNL     1      43.188 -16.666   6.467  1.00  0.00     0.276 C 
HETATM    3  O   UNL     1      42.025 -16.270   6.526  1.00  0.00    -0.266 OA
HETATM    4  H   UNL     1      45.189 -16.324   7.006  1.00  0.00     0.190 HD
ENDROOT
BRANCH   1   5
HETATM    5  N   UNL     1      43.997 -14.748   7.664  1.00  0.00    -0.265 N 
HETATM    6  C   UNL     1      44.835 -13.670   7.473  1.00  0.00     0.260 C 
HETATM    7  O   UNL     1      45.752 -13.664   6.653  1.00  0.00    -0.269 OA
HETATM    8  H   UNL     1      43.314 -14.778   8.421  1.00  0.00     0.190 HD
BRANCH   6   9
HETATM    9  C   UNL     1      44.583 -12.508   8.429  1.00  0.00     0.280 C 
BRANCH   9  10
HETATM   10  O   UNL     1      44.859 -12.892   9.772  1.00  0.00    -0.342 OA
BRANCH  10  11
HETATM   11  C   UNL     1      44.340 -12.072  10.736  1.00  0.00     0.069 A 
HETATM   12  C   UNL     1      44.501 -10.704  10.506  1.00  0.00     0.037 A 
HETATM   13  C   UNL     1      44.005  -9.769  11.418  1.00  0.00     0.009 A 
HETATM   14  C   UNL     1      43.335 -10.192  12.570  1.00  0.00    -0.062 A 
HETATM   15  C   UNL     1      42.767  -9.193  13.535  1.00  0.00     0.048 C 
HETATM   16  C   UNL     1      43.145 -11.563  12.779  1.00  0.00     0.009 A 
HETATM   17  C   UNL     1      43.647 -12.499  11.869  1.00  0.00     0.037 A 
ENDBRANCH  10  11
ENDBRANCH   9  10
ENDBRANCH   6   9
ENDBRANCH   1   5
BRANCH   2  18
HETATM   18  C   UNL     1      43.558 -17.936   5.867  1.00  0.00     0.107 A 
HETATM   19  C   UNL     1      43.676 -18.224   4.519  1.00  0.00     0.169 A 
HETATM   20  N   UNL     1      44.034 -19.573   4.425  1.00  0.00    -0.219 N 
HETATM   21  N   UNL     1      43.503 -17.434   3.413  1.00  0.00    -0.233 NA
HETATM   22  C   UNL     1      44.210 -20.178   3.171  1.00  0.00     0.036 A 
HETATM   23  N   UNL     1      44.164 -20.133   5.652  1.00  0.00    -0.170 NA
HETATM   24  C   UNL     1      44.573 -21.630   3.099  1.00  0.00     0.070 C 
HETATM   25  C   UNL     1      44.040 -19.441   2.058  1.00  0.00     0.053 A 
HETATM   26  C   UNL     1      43.677 -18.003   2.256  1.00  0.00     0.035 A 
HETATM   27  C   UNL     1      43.507 -17.155   1.020  1.00  0.00     0.070 C 
HETATM   28  C   UNL     1      43.881 -19.154   6.517  1.00  0.00     0.071 A 
HETATM   29  C   UNL     1      43.927 -19.424   7.978  1.00  0.00     0.073 C 
ENDBRANCH   2  18
TORSDOF 5
ENDMDL
MODEL 2
REMARK VINA RESULT:      -9.1      1.901      3.629
REMARK  5 active torsions:
REMARK  status: ('A' for Active; 'I' for Inactive)
REMARK    1  A    between atoms: C_5  and  O_6 
REMARK    2  A    between atoms: O_6  and  C_7 
REMARK    3  A    between atoms: C_7  and  C_8 
REMARK       I    between atoms: C_8  and  N_9 
REMARK    4  A    between atoms: N_9  and  N_10 
REMARK       I    between atoms: N_10  and  C_11 
REMARK    5  A    between atoms: C_11  and  C_12 
ROOT
HETATM    1  N   UNL     1      43.759 -13.344   7.097  1.00  0.00    -0.263 N 
HETATM    2  C   UNL     1      42.858 -13.423   6.051  1.00  0.00     0.276 C 
HETATM    3  O   UNL     1      41.970 -12.589   5.885  1.00  0.00    -0.266 OA
HETATM    4  H   UNL     1      44.418 -14.105   7.282  1.00  0.00     0.190 HD
ENDROOT
BRANCH   1   5
HETATM    5  N   UNL     1      43.601 -12.359   8.073  1.00  0.00    -0.265 N 
HETATM    6  C   UNL     1      44.588 -12.194   9.020  1.00  0.00     0.260 C 
HETATM    7  O   UNL     1      45.649 -12.818   9.007  1.00  0.00    -0.269 OA
HETATM    8  H   UNL     1      42.686 -11.917   8.158  1.00  0.00     0.190 HD
BRANCH   6   9
HETATM    9  C   UNL     1      44.221 -11.228  10.142  1.00  0.00     0.280 C 
BRANCH   9  10
HETATM   10  O   UNL     1      42.975 -11.591  10.729  1.00  0.00    -0.342 OA
BRANCH  10  11
HETATM   11  C   UNL     1      42.711 -11.022  11.946  1.00  0.00     0.069 A 
HETATM   12  C   UNL     1      43.651 -10.088  12.384  1.00  0.00     0.037 A 
HETATM   13  C   UNL     1      43.484  -9.435  13.608  1.00  0.00     0.009 A 
HETATM   14  C   UNL     1      42.370  -9.706  14.407  1.00  0.00    -0.062 A 
HETATM   15  C   UNL     1      42.164  -8.982  15.705  1.00  0.00     0.048 C 
HETATM   16  C   UNL     1      41.412 -10.618  13.948  1.00  0.00     0.009 A 
HETATM   17  C   UNL     1      41.583 -11.276  12.725  1.00  0.00     0.037 A 
ENDBRANCH  10  11
ENDBRANCH   9  10
ENDBRANCH   6   9
ENDBRANCH   1   5
BRANCH   2  18
HETATM   18  C   UNL     1      43.048 -14.560   5.167  1.00  0.00     0.107 A 
HETATM   19  C   UNL     1      43.345 -15.861   5.529  1.00  0.00     0.169 A 
HETATM   20  N   UNL     1      43.450 -16.594   4.342  1.00  0.00    -0.219 N 
HETATM   21  N   UNL     1      43.524 -16.433   6.761  1.00  0.00    -0.233 NA
HETATM   22  C   UNL     1      43.769 -17.961   4.374  1.00  0.00     0.036 A 
HETATM   23  N   UNL     1      43.212 -15.814   3.260  1.00  0.00    -0.170 NA
HETATM   24  C   UNL     1      43.896 -18.718   3.087  1.00  0.00     0.070 C 
HETATM   25  C   UNL     1      43.962 -18.561   5.563  1.00  0.00     0.053 A 
HETATM   26  C   UNL     1      43.810 -17.703   6.779  1.00  0.00     0.035 A 
HETATM   27  C   UNL     1      43.999 -18.364   8.121  1.00  0.00     0.070 C 
HETATM   28  C   UNL     1      42.970 -14.595   3.752  1.00  0.00     0.071 A 
HETATM   29  C   UNL     1      42.665 -13.472   2.827  1.00  0.00     0.073 C 
ENDBRANCH   2  18
TORSDOF 5
ENDMDL
MODEL 3
REMARK VINA RESULT:      -8.9      1.894      2.312
REMARK  5 active torsions:
REMARK  status: ('A' for Active; 'I' for Inactive)
REMARK    1  A    between atoms: C_5  and  O_6 
REMARK    2  A    between atoms: O_6  and  C_7 
REMARK    3  A    between atoms: C_7  and  C_8 
REMARK       I    between atoms: C_8  and  N_9 
REMARK    4  A    between atoms: N_9  and  N_10 
REMARK       I    between atoms: N_10  and  C_11 
REMARK    5  A    between atoms: C_11  and  C_12 
ROOT
HETATM    1  N   UNL     1      43.769 -14.390   6.827  1.00  0.00    -0.263 N 
HETATM    2  C   UNL     1      43.698 -15.739   7.120  1.00  0.00     0.276 C 
HETATM    3  O   UNL     1      43.683 -16.161   8.275  1.00  0.00    -0.266 OA
HETATM    4  H   UNL     1      43.893 -14.066   5.865  1.00  0.00     0.190 HD
ENDROOT
BRANCH   1   5
HETATM    5  N   UNL     1      43.948 -13.467   7.859  1.00  0.00    -0.265 N 
HETATM    6  C   UNL     1      45.190 -12.895   8.035  1.00  0.00     0.260 C 
HETATM    7  O   UNL     1      46.139 -13.093   7.277  1.00  0.00    -0.269 OA
HETATM    8  H   UNL     1      43.205 -13.381   8.553  1.00  0.00     0.190 HD
BRANCH   6   9
HETATM    9  C   UNL     1      45.315 -12.056   9.303  1.00  0.00     0.280 C 
BRANCH   9  10
HETATM   10  O   UNL     1      44.440 -10.933   9.250  1.00  0.00    -0.342 OA
BRANCH  10  11
HETATM   11  C   UNL     1      43.620 -10.775  10.335  1.00  0.00     0.069 A 
HETATM   12  C   UNL     1      44.261 -10.406  11.518  1.00  0.00     0.037 A 
HETATM   13  C   UNL     1      43.526 -10.208  12.690  1.00  0.00     0.009 A 
HETATM   14  C   UNL     1      42.138 -10.373  12.690  1.00  0.00    -0.062 A 
HETATM   15  C   UNL     1      41.338 -10.125  13.935  1.00  0.00     0.048 C 
HETATM   16  C   UNL     1      41.496 -10.709  11.493  1.00  0.00     0.009 A 
HETATM   17  C   UNL     1      42.233 -10.913  10.321  1.00  0.00     0.037 A 
ENDBRANCH  10  11
ENDBRANCH   9  10
ENDBRANCH   6   9
ENDBRANCH   1   5
BRANCH   2  18
HETATM   18  C   UNL     1      43.637 -16.612   5.961  1.00  0.00     0.107 A 
HETATM   19  C   UNL     1      42.766 -16.524   4.891  1.00  0.00     0.169 A 
HETATM   20  N   UNL     1      43.072 -17.587   4.034  1.00  0.00    -0.219 N 
HETATM   21  N   UNL     1      41.766 -15.628   4.617  1.00  0.00    -0.233 NA
HETATM   22  C   UNL     1      42.339 -17.786   2.854  1.00  0.00     0.036 A 
HETATM   23  N   UNL     1      44.107 -18.320   4.510  1.00  0.00    -0.170 NA
HETATM   24  C   UNL     1      42.675 -18.943   1.964  1.00  0.00     0.070 C 
HETATM   25  C   UNL     1      41.342 -16.933   2.550  1.00  0.00     0.053 A 
HETATM   26  C   UNL     1      41.099 -15.816   3.515  1.00  0.00     0.035 A 
HETATM   27  C   UNL     1      40.002 -14.838   3.179  1.00  0.00     0.070 C 
HETATM   28  C   UNL     1      44.448 -17.737   5.664  1.00  0.00     0.071 A 
HETATM   29  C   UNL     1      45.569 -18.291   6.469  1.00  0.00     0.073 C 
ENDBRANCH   2  18
TORSDOF 5
ENDMDL
MODEL 4
REMARK VINA RESULT:      -8.5      2.561      3.564
REMARK  5 active torsions:
REMARK  status: ('A' for Active; 'I' for Inactive)
REMARK    1  A    between atoms: C_5  and  O_6 
REMARK    2  A    between atoms: O_6  and  C_7 
REMARK    3  A    between atoms: C_7  and  C_8 
REMARK       I    between atoms: C_8  and  N_9 
REMARK    4  A    between atoms: N_9  and  N_10 
REMARK       I    between atoms: N_10  and  C_11 
REMARK    5  A    between atoms: C_11  and  C_12 
ROOT
HETATM    1  N   UNL     1      42.042 -13.990   5.590  1.00  0.00    -0.263 N 
HETATM    2  C   UNL     1      40.984 -14.787   5.198  1.00  0.00     0.276 C 
HETATM    3  O   UNL     1      39.843 -14.624   5.628  1.00  0.00    -0.266 OA
HETATM    4  H   UNL     1      43.001 -14.210   5.309  1.00  0.00     0.190 HD
ENDROOT
BRANCH   1   5
HETATM    5  N   UNL     1      41.856 -13.037   6.593  1.00  0.00    -0.265 N 
HETATM    6  C   UNL     1      41.686 -11.716   6.236  1.00  0.00     0.260 C 
HETATM    7  O   UNL     1      41.608 -11.337   5.068  1.00  0.00    -0.269 OA
HETATM    8  H   UNL     1      42.028 -13.322   7.557  1.00  0.00     0.190 HD
BRANCH   6   9
HETATM    9  C   UNL     1      41.685 -10.747   7.414  1.00  0.00     0.280 C 
BRANCH   9  10
HETATM   10  O   UNL     1      42.948 -10.757   8.073  1.00  0.00    -0.342 OA
BRANCH  10  11
HETATM   11  C   UNL     1      42.921 -10.418   9.399  1.00  0.00     0.069 A 
HETATM   12  C   UNL     1      44.093 -10.689  10.108  1.00  0.00     0.037 A 
HETATM   13  C   UNL     1      44.187 -10.379  11.467  1.00  0.00     0.009 A 
HETATM   14  C   UNL     1      43.109  -9.789  12.133  1.00  0.00    -0.062 A 
HETATM   15  C   UNL     1      43.215  -9.419  13.583  1.00  0.00     0.048 C 
HETATM   16  C   UNL     1      41.948  -9.488  11.411  1.00  0.00     0.009 A 
HETATM   17  C   UNL     1      41.853  -9.804  10.051  1.00  0.00     0.037 A 
ENDBRANCH  10  11
ENDBRANCH   9  10
ENDBRANCH   6   9
ENDBRANCH   1   5
BRANCH   2  18
HETATM   18  C   UNL     1      41.324 -15.824   4.240  1.00  0.00     0.107 A 
HETATM   19  C   UNL     1      42.317 -16.780   4.357  1.00  0.00     0.169 A 
HETATM   20  N   UNL     1      42.281 -17.543   3.185  1.00  0.00    -0.219 N 
HETATM   21  N   UNL     1      43.212 -17.027   5.364  1.00  0.00    -0.233 NA
HETATM   22  C   UNL     1      43.191 -18.593   2.989  1.00  0.00     0.036 A 
HETATM   23  N   UNL     1      41.299 -17.119   2.353  1.00  0.00    -0.170 NA
HETATM   24  C   UNL     1      43.144 -19.381   1.716  1.00  0.00     0.070 C 
HETATM   25  C   UNL     1      44.094 -18.864   3.949  1.00  0.00     0.053 A 
HETATM   26  C   UNL     1      44.046 -18.009   5.176  1.00  0.00     0.035 A 
HETATM   27  C   UNL     1      45.035 -18.314   6.272  1.00  0.00     0.070 C 
HETATM   28  C   UNL     1      40.724 -16.090   2.983  1.00  0.00     0.071 A 
HETATM   29  C   UNL     1      39.589 -15.374   2.345  1.00  0.00     0.073 C 
ENDBRANCH   2  18
TORSDOF 5
ENDMDL
MODEL 5
REMARK VINA RESULT:      -8.5      3.256     10.051
REMARK  5 active torsions:
REMARK  status: ('A' for Active; 'I' for Inactive)
REMARK    1  A    between atoms: C_5  and  O_6 
REMARK    2  A    between atoms: O_6  and  C_7 
REMARK    3  A    between atoms: C_7  and  C_8 
REMARK       I    between atoms: C_8  and  N_9 
REMARK    4  A    between atoms: N_9  and  N_10 
REMARK       I    between atoms: N_10  and  C_11 
REMARK    5  A    between atoms: C_11  and  C_12 
ROOT
HETATM    1  N   UNL     1      41.960 -12.442   6.622  1.00  0.00    -0.263 N 
HETATM    2  C   UNL     1      41.588 -11.115   6.716  1.00  0.00     0.276 C 
HETATM    3  O   UNL     1      41.353 -10.425   5.726  1.00  0.00    -0.266 OA
HETATM    4  H   UNL     1      42.259 -12.965   7.449  1.00  0.00     0.190 HD
ENDROOT
BRANCH   1   5
HETATM    5  N   UNL     1      42.195 -13.006   5.367  1.00  0.00    -0.265 N 
HETATM    6  C   UNL     1      43.372 -13.693   5.154  1.00  0.00     0.260 C 
HETATM    7  O   UNL     1      44.199 -13.907   6.039  1.00  0.00    -0.269 OA
HETATM    8  H   UNL     1      41.573 -12.743   4.603  1.00  0.00     0.190 HD
BRANCH   6   9
HETATM    9  C   UNL     1      43.604 -14.096   3.701  1.00  0.00     0.280 C 
BRANCH   9  10
HETATM   10  O   UNL     1      42.615 -15.027   3.274  1.00  0.00    -0.342 OA
BRANCH  10  11
HETATM   11  C   UNL     1      43.071 -16.292   3.016  1.00  0.00     0.069 A 
HETATM   12  C   UNL     1      42.971 -17.190   4.079  1.00  0.00     0.037 A 
HETATM   13  C   UNL     1      43.397 -18.513   3.932  1.00  0.00     0.009 A 
HETATM   14  C   UNL     1      43.926 -18.953   2.715  1.00  0.00    -0.062 A 
HETATM   15  C   UNL     1      44.351 -20.381   2.538  1.00  0.00     0.048 C 
HETATM   16  C   UNL     1      43.993 -18.058   1.641  1.00  0.00     0.009 A 
HETATM   17  C   UNL     1      43.571 -16.733   1.791  1.00  0.00     0.037 A 
ENDBRANCH  10  11
ENDBRANCH   9  10
ENDBRANCH   6   9
ENDBRANCH   1   5
BRANCH   2  18
HETATM   18  C   UNL     1      41.493 -10.603   8.073  1.00  0.00     0.107 A 
HETATM   19  C   UNL     1      42.500 -10.546   9.019  1.00  0.00     0.169 A 
HETATM   20  N   UNL     1      41.935  -9.997  10.175  1.00  0.00    -0.219 N 
HETATM   21  N   UNL     1      43.816 -10.922   8.955  1.00  0.00    -0.233 NA
HETATM   22  C   UNL     1      42.707  -9.827  11.335  1.00  0.00     0.036 A 
HETATM   23  N   UNL     1      40.629  -9.689   9.985  1.00  0.00    -0.170 NA
HETATM   24  C   UNL     1      42.072  -9.255  12.565  1.00  0.00     0.070 C 
HETATM   25  C   UNL     1      44.002 -10.191  11.318  1.00  0.00     0.053 A 
HETATM   26  C   UNL     1      44.525 -10.752  10.033  1.00  0.00     0.035 A 
HETATM   27  C   UNL     1      45.980 -11.143   9.989  1.00  0.00     0.070 C 
HETATM   28  C   UNL     1      40.362 -10.051   8.726  1.00  0.00     0.071 A 
HETATM   29  C   UNL     1      38.996  -9.852   8.174  1.00  0.00     0.073 C 
ENDBRANCH   2  18
TORSDOF 5
ENDMDL
MODEL 6
REMARK VINA RESULT:      -8.2      5.867      9.906
REMARK  5 active torsions:
REMARK  status: ('A' for Active; 'I' for Inactive)
REMARK    1  A    between atoms: C_5  and  O_6 
REMARK    2  A    between atoms: O_6  and  C_7 
REMARK    3  A    between atoms: C_7  and  C_8 
REMARK       I    between atoms: C_8  and  N_9 
REMARK    4  A    between atoms: N_9  and  N_10 
REMARK       I    between atoms: N_10  and  C_11 
REMARK    5  A    between atoms: C_11  and  C_12 
ROOT
HETATM    1  N   UNL     1      41.257 -14.087   0.720  1.00  0.00    -0.263 N 
HETATM    2  C   UNL     1      41.379 -14.871  -0.411  1.00  0.00     0.276 C 
HETATM    3  O   UNL     1      41.454 -16.097  -0.357  1.00  0.00    -0.266 OA
HETATM    4  H   UNL     1      41.309 -13.067   0.662  1.00  0.00     0.190 HD
ENDROOT
BRANCH   1   5
HETATM    5  N   UNL     1      41.336 -14.678   1.982  1.00  0.00    -0.265 N 
HETATM    6  C   UNL     1      42.335 -14.280   2.844  1.00  0.00     0.260 C 
HETATM    7  O   UNL     1      43.121 -13.368   2.592  1.00  0.00    -0.269 OA
HETATM    8  H   UNL     1      40.764 -15.504   2.157  1.00  0.00     0.190 HD
BRANCH   6   9
HETATM    9  C   UNL     1      42.440 -15.125   4.110  1.00  0.00     0.280 C 
BRANCH   9  10
HETATM   10  O   UNL     1      41.706 -16.338   3.967  1.00  0.00    -0.342 OA
BRANCH  10  11
HETATM   11  C   UNL     1      42.458 -17.453   3.712  1.00  0.00     0.069 A 
HETATM   12  C   UNL     1      42.286 -18.011   2.444  1.00  0.00     0.037 A 
HETATM   13  C   UNL     1      43.007 -19.147   2.067  1.00  0.00     0.009 A 
HETATM   14  C   UNL     1      43.913 -19.736   2.954  1.00  0.00    -0.062 A 
HETATM   15  C   UNL     1      44.718 -20.933   2.543  1.00  0.00     0.048 C 
HETATM   16  C   UNL     1      44.107 -19.152   4.211  1.00  0.00     0.009 A 
HETATM   17  C   UNL     1      43.381 -18.018   4.590  1.00  0.00     0.037 A 
ENDBRANCH  10  11
ENDBRANCH   9  10
ENDBRANCH   6   9
ENDBRANCH   1   5
BRANCH   2  18
HETATM   18  C   UNL     1      41.407 -14.135  -1.663  1.00  0.00     0.107 A 
HETATM   19  C   UNL     1      41.915 -12.867  -1.878  1.00  0.00     0.169 A 
HETATM   20  N   UNL     1      41.704 -12.571  -3.229  1.00  0.00    -0.219 N 
HETATM   21  N   UNL     1      42.523 -11.985  -1.023  1.00  0.00    -0.233 NA
HETATM   22  C   UNL     1      42.095 -11.332  -3.758  1.00  0.00     0.036 A 
HETATM   23  N   UNL     1      41.105 -13.605  -3.869  1.00  0.00    -0.170 NA
HETATM   24  C   UNL     1      41.838 -11.034  -5.203  1.00  0.00     0.070 C 
HETATM   25  C   UNL     1      42.687 -10.433  -2.950  1.00  0.00     0.053 A 
HETATM   26  C   UNL     1      42.891 -10.842  -1.526  1.00  0.00     0.035 A 
HETATM   27  C   UNL     1      43.575  -9.857  -0.613  1.00  0.00     0.070 C 
HETATM   28  C   UNL     1      40.927 -14.543  -2.933  1.00  0.00     0.071 A 
HETATM   29  C   UNL     1      40.286 -15.834  -3.294  1.00  0.00     0.073 C 
ENDBRANCH   2  18
TORSDOF 5
ENDMDL
MODEL 7
REMARK VINA RESULT:      -8.1      5.668     10.440
REMARK  5 active torsions:
REMARK  status: ('A' for Active; 'I' for Inactive)
REMARK    1  A    between atoms: C_5  and  O_6 
REMARK    2  A    between atoms: O_6  and  C_7 
REMARK    3  A    between atoms: C_7  and  C_8 
REMARK       I    between atoms: C_8  and  N_9 
REMARK    4  A    between atoms: N_9  and  N_10 
REMARK       I    between atoms: N_10  and  C_11 
REMARK    5  A    between atoms: C_11  and  C_12 
ROOT
HETATM    1  N   UNL     1      41.847 -16.698   0.627  1.00  0.00    -0.263 N 
HETATM    2  C   UNL     1      41.185 -16.750   1.838  1.00  0.00     0.276 C 
HETATM    3  O   UNL     1      39.965 -16.615   1.927  1.00  0.00    -0.266 OA
HETATM    4  H   UNL     1      42.869 -16.700   0.585  1.00  0.00     0.190 HD
ENDROOT
BRANCH   1   5
HETATM    5  N   UNL     1      41.144 -16.368  -0.533  1.00  0.00    -0.265 N 
HETATM    6  C   UNL     1      41.120 -15.054  -0.948  1.00  0.00     0.260 C 
HETATM    7  O   UNL     1      41.757 -14.158  -0.393  1.00  0.00    -0.269 OA
HETATM    8  H   UNL     1      40.528 -17.076  -0.933  1.00  0.00     0.190 HD
BRANCH   6   9
HETATM    9  C   UNL     1      40.168 -14.784  -2.108  1.00  0.00     0.280 C 
BRANCH   9  10
HETATM   10  O   UNL     1      39.206 -13.796  -1.750  1.00  0.00    -0.342 OA
BRANCH  10  11
HETATM   11  C   UNL     1      38.200 -13.599  -2.657  1.00  0.00     0.069 A 
HETATM   12  C   UNL     1      37.740 -14.751  -3.297  1.00  0.00     0.037 A 
HETATM   13  C   UNL     1      36.710 -14.675  -4.238  1.00  0.00     0.009 A 
HETATM   14  C   UNL     1      36.123 -13.444  -4.545  1.00  0.00    -0.062 A 
HETATM   15  C   UNL     1      34.991 -13.360  -5.526  1.00  0.00     0.048 C 
HETATM   16  C   UNL     1      36.563 -12.297  -3.875  1.00  0.00     0.009 A 
HETATM   17  C   UNL     1      37.599 -12.373  -2.938  1.00  0.00     0.037 A 
ENDBRANCH  10  11
ENDBRANCH   9  10
ENDBRANCH   6   9
ENDBRANCH   1   5
BRANCH   2  18
HETATM   18  C   UNL     1      42.038 -16.979   2.991  1.00  0.00     0.107 A 
HETATM   19  C   UNL     1      42.864 -18.065   3.218  1.00  0.00     0.169 A 
HETATM   20  N   UNL     1      43.471 -17.856   4.461  1.00  0.00    -0.219 N 
HETATM   21  N   UNL     1      43.118 -19.177   2.458  1.00  0.00    -0.233 NA
HETATM   22  C   UNL     1      44.360 -18.805   4.990  1.00  0.00     0.036 A 
HETATM   23  N   UNL     1      43.077 -16.681   5.009  1.00  0.00    -0.170 NA
HETATM   24  C   UNL     1      44.980 -18.566   6.332  1.00  0.00     0.070 C 
HETATM   25  C   UNL     1      44.630 -19.916   4.280  1.00  0.00     0.053 A 
HETATM   26  C   UNL     1      43.950 -20.046   2.953  1.00  0.00     0.035 A 
HETATM   27  C   UNL     1      44.260 -21.273   2.133  1.00  0.00     0.070 C 
HETATM   28  C   UNL     1      42.220 -16.154   4.129  1.00  0.00     0.071 A 
HETATM   29  C   UNL     1      41.583 -14.841   4.414  1.00  0.00     0.073 C 
ENDBRANCH   2  18
TORSDOF 5
ENDMDL
MODEL 8
REMARK VINA RESULT:      -8.1      2.772      3.191
REMARK  5 active torsions:
REMARK  status: ('A' for Active; 'I' for Inactive)
REMARK    1  A    between atoms: C_5  and  O_6 
REMARK    2  A    between atoms: O_6  and  C_7 
REMARK    3  A    between atoms: C_7  and  C_8 
REMARK       I    between atoms: C_8  and  N_9 
REMARK    4  A    between atoms: N_9  and  N_10 
REMARK       I    between atoms: N_10  and  C_11 
REMARK    5  A    between atoms: C_11  and  C_12 
ROOT
HETATM    1  N   UNL     1      42.308 -15.721   5.889  1.00  0.00    -0.263 N 
HETATM    2  C   UNL     1      43.564 -16.156   6.265  1.00  0.00     0.276 C 
HETATM    3  O   UNL     1      44.357 -15.435   6.867  1.00  0.00    -0.266 OA
HETATM    4  H   UNL     1      41.707 -16.297   5.293  1.00  0.00     0.190 HD
ENDROOT
BRANCH   1   5
HETATM    5  N   UNL     1      41.951 -14.386   6.085  1.00  0.00    -0.265 N 
HETATM    6  C   UNL     1      40.707 -13.960   5.671  1.00  0.00     0.260 C 
HETATM    7  O   UNL     1      39.855 -14.715   5.205  1.00  0.00    -0.269 OA
HETATM    8  H   UNL     1      42.684 -13.735   6.366  1.00  0.00     0.190 HD
BRANCH   6   9
HETATM    9  C   UNL     1      40.504 -12.451   5.760  1.00  0.00     0.280 C 
BRANCH   9  10
HETATM   10  O   UNL     1      39.523 -12.133   6.743  1.00  0.00    -0.342 OA
BRANCH  10  11
HETATM   11  C   UNL     1      39.966 -11.369   7.788  1.00  0.00     0.069 A 
HETATM   12  C   UNL     1      41.194 -10.737   7.587  1.00  0.00     0.037 A 
HETATM   13  C   UNL     1      41.744  -9.923   8.581  1.00  0.00     0.009 A 
HETATM   14  C   UNL     1      41.066  -9.728   9.789  1.00  0.00    -0.062 A 
HETATM   15  C   UNL     1      41.632  -8.826  10.846  1.00  0.00     0.048 C 
HETATM   16  C   UNL     1      39.819 -10.336   9.972  1.00  0.00     0.009 A 
HETATM   17  C   UNL     1      39.272 -11.155   8.979  1.00  0.00     0.037 A 
ENDBRANCH  10  11
ENDBRANCH   9  10
ENDBRANCH   6   9
ENDBRANCH   1   5
BRANCH   2  18
HETATM   18  C   UNL     1      43.869 -17.529   5.900  1.00  0.00     0.107 A 
HETATM   19  C   UNL     1      43.944 -18.059   4.625  1.00  0.00     0.169 A 
HETATM   20  N   UNL     1      44.245 -19.418   4.771  1.00  0.00    -0.219 N 
HETATM   21  N   UNL     1      43.778 -17.475   3.397  1.00  0.00    -0.233 NA
HETATM   22  C   UNL     1      44.368 -20.246   3.644  1.00  0.00     0.036 A 
HETATM   23  N   UNL     1      44.381 -19.753   6.076  1.00  0.00    -0.170 NA
HETATM   24  C   UNL     1      44.671 -21.702   3.830  1.00  0.00     0.070 C 
HETATM   25  C   UNL     1      44.203 -19.715   2.419  1.00  0.00     0.053 A 
HETATM   26  C   UNL     1      43.903 -18.250   2.359  1.00  0.00     0.035 A 
HETATM   27  C   UNL     1      43.739 -17.632   0.993  1.00  0.00     0.070 C 
HETATM   28  C   UNL     1      44.157 -18.623   6.754  1.00  0.00     0.071 A 
HETATM   29  C   UNL     1      44.226 -18.626   8.239  1.00  0.00     0.073 C 
ENDBRANCH   2  18
TORSDOF 5
ENDMDL
MODEL 9
REMARK VINA RESULT:      -8.1      5.763      9.920
REMARK  5 active torsions:
REMARK  status: ('A' for Active; 'I' for Inactive)
REMARK    1  A    between atoms: C_5  and  O_6 
REMARK    2  A    between atoms: O_6  and  C_7 
REMARK    3  A    between atoms: C_7  and  C_8 
REMARK       I    between atoms: C_8  and  N_9 
REMARK    4  A    between atoms: N_9  and  N_10 
REMARK       I    between atoms: N_10  and  C_11 
REMARK    5  A    between atoms: C_11  and  C_12 
ROOT
HETATM    1  N   UNL     1      42.036 -16.439   0.259  1.00  0.00    -0.263 N 
HETATM    2  C   UNL     1      41.366 -16.639   1.450  1.00  0.00     0.276 C 
HETATM    3  O   UNL     1      40.141 -16.572   1.536  1.00  0.00    -0.266 OA
HETATM    4  H   UNL     1      43.058 -16.388   0.230  1.00  0.00     0.190 HD
ENDROOT
BRANCH   1   5
HETATM    5  N   UNL     1      41.328 -16.033  -0.873  1.00  0.00    -0.265 N 
HETATM    6  C   UNL     1      41.259 -14.689  -1.171  1.00  0.00     0.260 C 
HETATM    7  O   UNL     1      41.859 -13.824  -0.534  1.00  0.00    -0.269 OA
HETATM    8  H   UNL     1      40.741 -16.725  -1.340  1.00  0.00     0.190 HD
BRANCH   6   9
HETATM    9  C   UNL     1      40.304 -14.351  -2.312  1.00  0.00     0.280 C 
BRANCH   9  10
HETATM   10  O   UNL     1      41.029 -13.995  -3.485  1.00  0.00    -0.342 OA
BRANCH  10  11
HETATM   11  C   UNL     1      41.175 -12.652  -3.700  1.00  0.00     0.069 A 
HETATM   12  C   UNL     1      39.990 -11.951  -3.925  1.00  0.00     0.037 A 
HETATM   13  C   UNL     1      40.013 -10.572  -4.149  1.00  0.00     0.009 A 
HETATM   14  C   UNL     1      41.226  -9.876  -4.144  1.00  0.00    -0.062 A 
HETATM   15  C   UNL     1      41.256  -8.389  -4.346  1.00  0.00     0.048 C 
HETATM   16  C   UNL     1      42.409 -10.577  -3.883  1.00  0.00     0.009 A 
HETATM   17  C   UNL     1      42.385 -11.959  -3.665  1.00  0.00     0.037 A 
ENDBRANCH  10  11
ENDBRANCH   9  10
ENDBRANCH   6   9
ENDBRANCH   1   5
BRANCH   2  18
HETATM   18  C   UNL     1      42.220 -16.937   2.587  1.00  0.00     0.107 A 
HETATM   19  C   UNL     1      42.933 -18.100   2.817  1.00  0.00     0.169 A 
HETATM   20  N   UNL     1      43.590 -17.935   4.041  1.00  0.00    -0.219 N 
HETATM   21  N   UNL     1      43.050 -19.245   2.073  1.00  0.00    -0.233 NA
HETATM   22  C   UNL     1      44.387 -18.962   4.567  1.00  0.00     0.036 A 
HETATM   23  N   UNL     1      43.335 -16.715   4.574  1.00  0.00    -0.170 NA
HETATM   24  C   UNL     1      45.062 -18.767   5.890  1.00  0.00     0.070 C 
HETATM   25  C   UNL     1      44.521 -20.108   3.873  1.00  0.00     0.053 A 
HETATM   26  C   UNL     1      43.799 -20.188   2.566  1.00  0.00     0.035 A 
HETATM   27  C   UNL     1      43.958 -21.454   1.763  1.00  0.00     0.070 C 
HETATM   28  C   UNL     1      42.515 -16.116   3.704  1.00  0.00     0.071 A 
HETATM   29  C   UNL     1      42.027 -14.739   3.978  1.00  0.00     0.073 C 
ENDBRANCH   2  18
TORSDOF 5
ENDMDL
MODEL 10
REMARK VINA RESULT:      -8.1      2.970      4.263
REMARK  5 active torsions:
REMARK  status: ('A' for Active; 'I' for Inactive)
REMARK    1  A    between atoms: C_5  and  O_6 
REMARK    2  A    between atoms: O_6  and  C_7 
REMARK    3  A    between atoms: C_7  and  C_8 
REMARK       I    between atoms: C_8  and  N_9 
REMARK    4  A    between atoms: N_9  and  N_10 
REMARK       I    between atoms: N_10  and  C_11 
REMARK    5  A    between atoms: C_11  and  C_12 
ROOT
HETATM    1  N   UNL     1      41.399 -13.445   5.937  1.00  0.00    -0.263 N 
HETATM    2  C   UNL     1      42.699 -13.897   5.817  1.00  0.00     0.276 C 
HETATM    3  O   UNL     1      43.597 -13.527   6.572  1.00  0.00    -0.266 OA
HETATM    4  H   UNL     1      40.693 -13.677   5.233  1.00  0.00     0.190 HD
ENDROOT
BRANCH   1   5
HETATM    5  N   UNL     1      41.097 -12.448   6.865  1.00  0.00    -0.265 N 
HETATM    6  C   UNL     1      39.784 -12.060   7.025  1.00  0.00     0.260 C 
HETATM    7  O   UNL     1      38.843 -12.605   6.448  1.00  0.00    -0.269 OA
HETATM    8  H   UNL     1      41.872 -11.918   7.264  1.00  0.00     0.190 HD
BRANCH   6   9
HETATM    9  C   UNL     1      39.598 -10.838   7.919  1.00  0.00     0.280 C 
BRANCH   9  10
HETATM   10  O   UNL     1      39.438 -11.229   9.279  1.00  0.00    -0.342 OA
BRANCH  10  11
HETATM   11  C   UNL     1      40.432 -10.823  10.128  1.00  0.00     0.069 A 
HETATM   12  C   UNL     1      40.306 -11.261  11.447  1.00  0.00     0.037 A 
HETATM   13  C   UNL     1      41.264 -10.916  12.403  1.00  0.00     0.009 A 
HETATM   14  C   UNL     1      42.366 -10.132  12.048  1.00  0.00    -0.062 A 
HETATM   15  C   UNL     1      43.419  -9.789  13.060  1.00  0.00     0.048 C 
HETATM   16  C   UNL     1      42.507  -9.724  10.717  1.00  0.00     0.009 A 
HETATM   17  C   UNL     1      41.543 -10.065   9.761  1.00  0.00     0.037 A 
ENDBRANCH  10  11
ENDBRANCH   9  10
ENDBRANCH   6   9
ENDBRANCH   1   5
BRANCH   2  18
HETATM   18  C   UNL     1      42.918 -14.843   4.737  1.00  0.00     0.107 A 
HETATM   19  C   UNL     1      43.208 -16.191   4.850  1.00  0.00     0.169 A 
HETATM   20  N   UNL     1      43.351 -16.682   3.548  1.00  0.00    -0.219 N 
HETATM   21  N   UNL     1      43.351 -16.990   5.953  1.00  0.00    -0.233 NA
HETATM   22  C   UNL     1      43.673 -18.030   3.325  1.00  0.00     0.036 A 
HETATM   23  N   UNL     1      43.144 -15.708   2.629  1.00  0.00    -0.170 NA
HETATM   24  C   UNL     1      43.841 -18.525   1.921  1.00  0.00     0.070 C 
HETATM   25  C   UNL     1      43.832 -18.848   4.382  1.00  0.00     0.053 A 
HETATM   26  C   UNL     1      43.640 -18.241   5.735  1.00  0.00     0.035 A 
HETATM   27  C   UNL     1      43.790 -19.148   6.930  1.00  0.00     0.070 C 
HETATM   28  C   UNL     1      42.884 -14.605   3.340  1.00  0.00     0.071 A 
HETATM   29  C   UNL     1      42.604 -13.324   2.639  1.00  0.00     0.073 C 
ENDBRANCH   2  18
TORSDOF 5
ENDMDL
