MODEL 1
REMARK VINA RESULT:      -8.2      0.000      0.000
REMARK  7 active torsions:
REMARK  status: ('A' for Active; 'I' for Inactive)
REMARK    1  A    between atoms: C_2  and  O_3 
REMARK    2  A    between atoms: O_3  and  C_4 
REMARK       I    between atoms: C_4  and  N_5 
REMARK    3  A    between atoms: C_8  and  N_9 
REMARK       I    between atoms: N_9  and  C_10 
REMARK    4  A    between atoms: C_10  and  C_11 
REMARK    5  A    between atoms: C_13  and  N_14 
REMARK       I    between atoms: N_14  and  C_15 
REMARK    6  A    between atoms: C_15  and  C_16 
REMARK    7  A    between atoms: C_22  and  N_23 
ROOT
HETATM    1  C   UNL     1      39.896 -11.171   5.276  1.00  0.00     0.034 A 
HETATM    2  C   UNL     1      40.381 -10.832   4.010  1.00  0.00     0.049 A 
HETATM    3  C   UNL     1      41.018 -11.789   3.194  1.00  0.00     0.062 A 
HETATM    4  C   UNL     1      41.220 -13.114   3.648  1.00  0.00     0.057 A 
HETATM    5  C   UNL     1      40.723 -13.420   4.930  1.00  0.00     0.033 A 
HETATM    6  C   UNL     1      40.073 -12.474   5.730  1.00  0.00     0.019 A 
ENDROOT
BRANCH   1   7
HETATM    7  C   UNL     1      39.233 -10.185   6.181  1.00  0.00     0.252 C 
HETATM    8  N   UNL     1      39.570 -10.243   7.520  1.00  0.00    -0.352 N 
HETATM    9  H   UNL     1      40.390 -10.767   7.786  1.00  0.00     0.163 HD
HETATM   10  O   UNL     1      38.444  -9.363   5.727  1.00  0.00    -0.268 OA
BRANCH   8  11
HETATM   11  C   UNL     1      39.050  -9.282   8.488  1.00  0.00     0.087 C 
HETATM   12  C   UNL     1      38.690  -9.971   9.805  1.00  0.00     0.045 C 
HETATM   13  C   UNL     1      39.920 -10.441  10.570  1.00  0.00     0.130 C 
HETATM   14  N   UNL     1      40.936  -9.401  10.698  1.00  0.00    -0.328 N 
HETATM   15  C   UNL     1      41.892  -9.459  11.708  1.00  0.00     0.362 C 
HETATM   16  C   UNL     1      41.278  -8.643   9.500  1.00  0.00     0.130 C 
HETATM   17  O   UNL     1      42.905  -8.766  11.733  1.00  0.00    -0.238 OA
HETATM   18  C   UNL     1      40.050  -8.153   8.741  1.00  0.00     0.045 C 
BRANCH  15  19
HETATM   19  O   UNL     1      41.581 -10.375  12.665  1.00  0.00    -0.304 OA
BRANCH  19  20
HETATM   20  C   UNL     1      42.581 -10.613  13.665  1.00  0.00     0.176 C 
HETATM   21  C   UNL     1      42.188  -9.928  14.962  1.00  0.00     0.034 C 
ENDBRANCH  19  20
ENDBRANCH  15  19
ENDBRANCH   8  11
ENDBRANCH   1   7
BRANCH   3  22
HETATM   22  N   UNL     1      41.462 -11.393   1.910  1.00  0.00    -0.320 N 
HETATM   23  C   UNL     1      40.674 -11.094   0.819  1.00  0.00     0.263 C 
HETATM   24  O   UNL     1      41.011 -10.154   0.098  1.00  0.00    -0.267 OA
HETATM   25  H   UNL     1      42.355 -10.929   1.886  1.00  0.00     0.169 HD
BRANCH  23  26
HETATM   26  C   UNL     1      39.560 -11.991   0.533  1.00  0.00     0.072 A 
HETATM   27  S   UNL     1      39.642 -13.050  -0.811  1.00  0.00    -0.097 SA
HETATM   28  C   UNL     1      38.124 -13.747  -0.442  1.00  0.00     0.050 A 
HETATM   29  C   UNL     1      37.559 -13.190   0.683  1.00  0.00     0.009 A 
HETATM   30  C   UNL     1      38.386 -12.177   1.245  1.00  0.00     0.025 A 
ENDBRANCH  23  26
ENDBRANCH   3  22
BRANCH   4  31
HETATM   31  N   UNL     1      41.812 -14.115   2.888  1.00  0.00    -0.378 N 
HETATM   32  C   UNL     1      43.258 -14.352   2.902  1.00  0.00     0.134 C 
HETATM   33  C   UNL     1      43.576 -15.844   3.144  1.00  0.00     0.054 C 
HETATM   34  C   UNL     1      42.867 -16.698   2.096  1.00  0.00     0.020 C 
HETATM   35  C   UNL     1      43.154 -16.228   4.552  1.00  0.00     0.020 A 
HETATM   36  C   UNL     1      41.368 -16.494   2.280  1.00  0.00     0.023 C 
HETATM   37  C   UNL     1      40.961 -17.021   3.661  1.00  0.00     0.138 C 
HETATM   38  C   UNL     1      40.992 -15.016   2.071  1.00  0.00     0.129 C 
HETATM   39  N   UNL     1      41.863 -16.711   4.772  1.00  0.00    -0.317 N 
HETATM   40  C   UNL     1      41.389 -17.015   6.053  1.00  0.00     0.247 A 
HETATM   41  O   UNL     1      40.273 -17.468   6.293  1.00  0.00    -0.268 OA
HETATM   42  C   UNL     1      42.325 -16.762   7.179  1.00  0.00     0.074 A 
HETATM   43  C   UNL     1      43.562 -16.316   6.937  1.00  0.00     0.007 A 
HETATM   44  C   UNL     1      43.991 -16.049   5.591  1.00  0.00     0.026 A 
ENDBRANCH   4  31
TORSDOF 7
ENDMDL
MODEL 2
REMARK VINA RESULT:      -7.9      4.902      8.020
REMARK  7 active torsions:
REMARK  status: ('A' for Active; 'I' for Inactive)
REMARK    1  A    between atoms: C_2  and  O_3 
REMARK    2  A    between atoms: O_3  and  C_4 
REMARK       I    between atoms: C_4  and  N_5 
REMARK    3  A    between atoms: C_8  and  N_9 
REMARK       I    between atoms: N_9  and  C_10 
REMARK    4  A    between atoms: C_10  and  C_11 
REMARK    5  A    between atoms: C_13  and  N_14 
REMARK       I    between atoms: N_14  and  C_15 
REMARK    6  A    between atoms: C_15  and  C_16 
REMARK    7  A    between atoms: C_22  and  N_23 
ROOT
HETATM    1  C   UNL     1      40.914 -13.610   2.656  1.00  0.00     0.034 A 
HETATM    2  C   UNL     1      41.135 -12.232   2.590  1.00  0.00     0.049 A 
HETATM    3  C   UNL     1      41.457 -11.603   1.371  1.00  0.00     0.062 A 
HETATM    4  C   UNL     1      41.606 -12.355   0.181  1.00  0.00     0.057 A 
HETATM    5  C   UNL     1      41.383 -13.741   0.284  1.00  0.00     0.033 A 
HETATM    6  C   UNL     1      41.042 -14.361   1.491  1.00  0.00     0.019 A 
ENDROOT
BRANCH   1   7
HETATM    7  C   UNL     1      40.591 -14.321   3.929  1.00  0.00     0.252 C 
HETATM    8  N   UNL     1      41.308 -15.469   4.203  1.00  0.00    -0.352 N 
HETATM    9  H   UNL     1      42.149 -15.647   3.674  1.00  0.00     0.163 HD
HETATM   10  O   UNL     1      39.735 -13.873   4.685  1.00  0.00    -0.268 OA
BRANCH   8  11
HETATM   11  C   UNL     1      41.138 -16.206   5.451  1.00  0.00     0.087 C 
HETATM   12  C   UNL     1      40.960 -17.701   5.186  1.00  0.00     0.045 C 
HETATM   13  C   UNL     1      42.241 -18.360   4.692  1.00  0.00     0.130 C 
HETATM   14  N   UNL     1      43.399 -18.034   5.518  1.00  0.00    -0.328 N 
HETATM   15  C   UNL     1      44.523 -18.854   5.527  1.00  0.00     0.362 C 
HETATM   16  C   UNL     1      43.593 -16.634   5.881  1.00  0.00     0.130 C 
HETATM   17  O   UNL     1      45.607 -18.526   5.999  1.00  0.00    -0.238 OA
HETATM   18  C   UNL     1      42.318 -15.975   6.396  1.00  0.00     0.045 C 
BRANCH  15  19
HETATM   19  O   UNL     1      44.287 -20.064   4.949  1.00  0.00    -0.304 OA
BRANCH  19  20
HETATM   20  C   UNL     1      45.144 -20.423   3.856  1.00  0.00     0.176 C 
HETATM   21  C   UNL     1      44.328 -20.570   2.586  1.00  0.00     0.034 C 
ENDBRANCH  19  20
ENDBRANCH  15  19
ENDBRANCH   8  11
ENDBRANCH   1   7
BRANCH   3  22
HETATM   22  N   UNL     1      41.639 -10.199   1.363  1.00  0.00    -0.320 N 
HETATM   23  C   UNL     1      40.819  -9.256   1.945  1.00  0.00     0.263 C 
HETATM   24  O   UNL     1      41.345  -8.290   2.498  1.00  0.00    -0.267 OA
HETATM   25  H   UNL     1      42.593  -9.888   1.277  1.00  0.00     0.169 HD
BRANCH  23  26
HETATM   26  C   UNL     1      39.382  -9.414   1.758  1.00  0.00     0.072 A 
HETATM   27  S   UNL     1      38.371  -9.680   3.115  1.00  0.00    -0.097 SA
HETATM   28  C   UNL     1      36.959  -9.684   2.150  1.00  0.00     0.050 A 
HETATM   29  C   UNL     1      37.243  -9.488   0.817  1.00  0.00     0.009 A 
HETATM   30  C   UNL     1      38.639  -9.333   0.591  1.00  0.00     0.025 A 
ENDBRANCH  23  26
ENDBRANCH   3  22
BRANCH   4  31
HETATM   31  N   UNL     1      41.893 -11.798  -1.059  1.00  0.00    -0.378 N 
HETATM   32  C   UNL     1      42.846 -12.413  -1.988  1.00  0.00     0.134 C 
HETATM   33  C   UNL     1      42.236 -12.555  -3.400  1.00  0.00     0.054 C 
HETATM   34  C   UNL     1      41.756 -11.192  -3.892  1.00  0.00     0.020 C 
HETATM   35  C   UNL     1      41.101 -13.563  -3.360  1.00  0.00     0.020 A 
HETATM   36  C   UNL     1      40.659 -10.724  -2.943  1.00  0.00     0.023 C 
HETATM   37  C   UNL     1      39.476 -11.695  -3.038  1.00  0.00     0.138 C 
HETATM   38  C   UNL     1      41.204 -10.585  -1.511  1.00  0.00     0.129 C 
HETATM   39  N   UNL     1      39.802 -13.121  -3.101  1.00  0.00    -0.317 N 
HETATM   40  C   UNL     1      38.724 -14.005  -2.981  1.00  0.00     0.247 A 
HETATM   41  O   UNL     1      37.561 -13.663  -2.782  1.00  0.00    -0.268 OA
HETATM   42  C   UNL     1      39.041 -15.451  -3.109  1.00  0.00     0.074 A 
HETATM   43  C   UNL     1      40.291 -15.844  -3.375  1.00  0.00     0.007 A 
HETATM   44  C   UNL     1      41.346 -14.877  -3.511  1.00  0.00     0.026 A 
ENDBRANCH   4  31
TORSDOF 7
ENDMDL
MODEL 3
REMARK VINA RESULT:      -7.6      2.045      5.421
REMARK  7 active torsions:
REMARK  status: ('A' for Active; 'I' for Inactive)
REMARK    1  A    between atoms: C_2  and  O_3 
REMARK    2  A    between atoms: O_3  and  C_4 
REMARK       I    between atoms: C_4  and  N_5 
REMARK    3  A    between atoms: C_8  and  N_9 
REMARK       I    between atoms: N_9  and  C_10 
REMARK    4  A    between atoms: C_10  and  C_11 
REMARK    5  A    between atoms: C_13  and  N_14 
REMARK       I    between atoms: N_14  and  C_15 
REMARK    6  A    between atoms: C_15  and  C_16 
REMARK    7  A    between atoms: C_22  and  N_23 
ROOT
HETATM    1  C   UNL     1      39.553 -11.436   5.269  1.00  0.00     0.034 A 
HETATM    2  C   UNL     1      39.601 -12.805   5.541  1.00  0.00     0.049 A 
HETATM    3  C   UNL     1      39.916 -13.738   4.533  1.00  0.00     0.062 A 
HETATM    4  C   UNL     1      40.156 -13.318   3.203  1.00  0.00     0.057 A 
HETATM    5  C   UNL     1      40.094 -11.932   2.962  1.00  0.00     0.033 A 
HETATM    6  C   UNL     1      39.801 -11.006   3.969  1.00  0.00     0.019 A 
ENDROOT
BRANCH   1   7
HETATM    7  C   UNL     1      39.203 -10.415   6.302  1.00  0.00     0.252 C 
HETATM    8  N   UNL     1      39.716 -10.609   7.570  1.00  0.00    -0.352 N 
HETATM    9  H   UNL     1      40.467 -11.273   7.688  1.00  0.00     0.163 HD
HETATM   10  O   UNL     1      38.506  -9.451   6.005  1.00  0.00    -0.268 OA
BRANCH   8  11
HETATM   11  C   UNL     1      39.511  -9.640   8.642  1.00  0.00     0.087 C 
HETATM   12  C   UNL     1      39.268 -10.342   9.978  1.00  0.00     0.045 C 
HETATM   13  C   UNL     1      40.520 -11.027  10.511  1.00  0.00     0.130 C 
HETATM   14  N   UNL     1      41.689 -10.153  10.499  1.00  0.00    -0.328 N 
HETATM   15  C   UNL     1      42.776 -10.405  11.331  1.00  0.00     0.362 C 
HETATM   16  C   UNL     1      41.944  -9.386   9.284  1.00  0.00     0.130 C 
HETATM   17  O   UNL     1      43.872  -9.867  11.207  1.00  0.00    -0.238 OA
HETATM   18  C   UNL     1      40.698  -8.682   8.759  1.00  0.00     0.045 C 
BRANCH  15  19
HETATM   19  O   UNL     1      42.489 -11.319  12.298  1.00  0.00    -0.304 OA
BRANCH  19  20
HETATM   20  C   UNL     1      42.629 -10.875  13.653  1.00  0.00     0.176 C 
HETATM   21  C   UNL     1      41.417 -10.057  14.059  1.00  0.00     0.034 C 
ENDBRANCH  19  20
ENDBRANCH  15  19
ENDBRANCH   8  11
ENDBRANCH   1   7
BRANCH   3  22
HETATM   22  N   UNL     1      39.979 -15.109   4.877  1.00  0.00    -0.320 N 
HETATM   23  C   UNL     1      40.728 -15.675   5.887  1.00  0.00     0.263 C 
HETATM   24  O   UNL     1      40.226 -16.588   6.542  1.00  0.00    -0.267 OA
HETATM   25  H   UNL     1      39.161 -15.649   4.647  1.00  0.00     0.169 HD
BRANCH  23  26
HETATM   26  C   UNL     1      42.108 -15.224   6.027  1.00  0.00     0.072 A 
HETATM   27  S   UNL     1      43.206 -16.129   6.982  1.00  0.00    -0.097 SA
HETATM   28  C   UNL     1      44.503 -15.078   6.608  1.00  0.00     0.050 A 
HETATM   29  C   UNL     1      44.116 -14.055   5.772  1.00  0.00     0.009 A 
HETATM   30  C   UNL     1      42.735 -14.139   5.438  1.00  0.00     0.025 A 
ENDBRANCH  23  26
ENDBRANCH   3  22
BRANCH   4  31
HETATM   31  N   UNL     1      40.500 -14.177   2.166  1.00  0.00    -0.378 N 
HETATM   32  C   UNL     1      39.493 -14.906   1.391  1.00  0.00     0.134 C 
HETATM   33  C   UNL     1      39.720 -14.727  -0.127  1.00  0.00     0.054 C 
HETATM   34  C   UNL     1      41.140 -15.156  -0.488  1.00  0.00     0.020 C 
HETATM   35  C   UNL     1      39.463 -13.280  -0.509  1.00  0.00     0.020 A 
HETATM   36  C   UNL     1      42.099 -14.230   0.251  1.00  0.00     0.023 C 
HETATM   37  C   UNL     1      41.901 -12.800  -0.264  1.00  0.00     0.138 C 
HETATM   38  C   UNL     1      41.903 -14.348   1.772  1.00  0.00     0.129 C 
HETATM   39  N   UNL     1      40.519 -12.367  -0.483  1.00  0.00    -0.317 N 
HETATM   40  C   UNL     1      40.335 -11.007  -0.754  1.00  0.00     0.247 A 
HETATM   41  O   UNL     1      41.235 -10.172  -0.771  1.00  0.00    -0.268 OA
HETATM   42  C   UNL     1      38.942 -10.575  -1.039  1.00  0.00     0.074 A 
HETATM   43  C   UNL     1      37.953 -11.474  -1.076  1.00  0.00     0.007 A 
HETATM   44  C   UNL     1      38.220 -12.861  -0.811  1.00  0.00     0.026 A 
ENDBRANCH   4  31
TORSDOF 7
ENDMDL
MODEL 4
REMARK VINA RESULT:      -7.6      4.636      8.650
REMARK  7 active torsions:
REMARK  status: ('A' for Active; 'I' for Inactive)
REMARK    1  A    between atoms: C_2  and  O_3 
REMARK    2  A    between atoms: O_3  and  C_4 
REMARK       I    between atoms: C_4  and  N_5 
REMARK    3  A    between atoms: C_8  and  N_9 
REMARK       I    between atoms: N_9  and  C_10 
REMARK    4  A    between atoms: C_10  and  C_11 
REMARK    5  A    between atoms: C_13  and  N_14 
REMARK       I    between atoms: N_14  and  C_15 
REMARK    6  A    between atoms: C_15  and  C_16 
REMARK    7  A    between atoms: C_22  and  N_23 
ROOT
HETATM    1  C   UNL     1      38.397 -12.235   1.284  1.00  0.00     0.034 A 
HETATM    2  C   UNL     1      38.580 -12.954   0.100  1.00  0.00     0.049 A 
HETATM    3  C   UNL     1      39.439 -14.070   0.051  1.00  0.00     0.062 A 
HETATM    4  C   UNL     1      40.175 -14.473   1.192  1.00  0.00     0.057 A 
HETATM    5  C   UNL     1      39.971 -13.723   2.366  1.00  0.00     0.033 A 
HETATM    6  C   UNL     1      39.101 -12.628   2.418  1.00  0.00     0.019 A 
ENDROOT
BRANCH   1   7
HETATM    7  C   UNL     1      37.512 -11.036   1.376  1.00  0.00     0.252 C 
HETATM    8  N   UNL     1      36.763 -10.725   0.257  1.00  0.00    -0.352 N 
HETATM    9  H   UNL     1      36.666 -11.423  -0.465  1.00  0.00     0.163 HD
HETATM   10  O   UNL     1      37.460 -10.386   2.415  1.00  0.00    -0.268 OA
BRANCH   8  11
HETATM   11  C   UNL     1      35.803  -9.626   0.252  1.00  0.00     0.087 C 
HETATM   12  C   UNL     1      35.660  -9.029  -1.148  1.00  0.00     0.045 C 
HETATM   13  C   UNL     1      34.949  -9.971  -2.111  1.00  0.00     0.130 C 
HETATM   14  N   UNL     1      33.709 -10.510  -1.561  1.00  0.00    -0.328 N 
HETATM   15  C   UNL     1      32.711 -10.999  -2.399  1.00  0.00     0.362 C 
HETATM   16  C   UNL     1      33.746 -11.026  -0.197  1.00  0.00     0.130 C 
HETATM   17  O   UNL     1      31.763 -11.676  -2.012  1.00  0.00    -0.238 OA
HETATM   18  C   UNL     1      34.439 -10.077   0.774  1.00  0.00     0.045 C 
BRANCH  15  19
HETATM   19  O   UNL     1      32.905 -10.646  -3.699  1.00  0.00    -0.304 OA
BRANCH  19  20
HETATM   20  C   UNL     1      32.722 -11.682  -4.672  1.00  0.00     0.176 C 
HETATM   21  C   UNL     1      33.964 -12.551  -4.742  1.00  0.00     0.034 C 
ENDBRANCH  19  20
ENDBRANCH  15  19
ENDBRANCH   8  11
ENDBRANCH   1   7
BRANCH   3  22
HETATM   22  N   UNL     1      39.560 -14.776  -1.169  1.00  0.00    -0.320 N 
HETATM   23  C   UNL     1      40.639 -14.766  -2.027  1.00  0.00     0.263 C 
HETATM   24  O   UNL     1      40.962 -15.824  -2.568  1.00  0.00    -0.267 OA
HETATM   25  H   UNL     1      39.017 -15.622  -1.234  1.00  0.00     0.169 HD
BRANCH  23  26
HETATM   26  C   UNL     1      41.247 -13.473  -2.320  1.00  0.00     0.072 A 
HETATM   27  S   UNL     1      40.503 -12.417  -3.444  1.00  0.00    -0.097 SA
HETATM   28  C   UNL     1      41.683 -11.205  -3.190  1.00  0.00     0.050 A 
HETATM   29  C   UNL     1      42.630 -11.589  -2.268  1.00  0.00     0.009 A 
HETATM   30  C   UNL     1      42.379 -12.897  -1.766  1.00  0.00     0.025 A 
ENDBRANCH  23  26
ENDBRANCH   3  22
BRANCH   4  31
HETATM   31  N   UNL     1      41.017 -15.578   1.224  1.00  0.00    -0.378 N 
HETATM   32  C   UNL     1      42.460 -15.465   1.001  1.00  0.00     0.134 C 
HETATM   33  C   UNL     1      43.255 -16.183   2.115  1.00  0.00     0.054 C 
HETATM   34  C   UNL     1      42.803 -17.638   2.212  1.00  0.00     0.020 C 
HETATM   35  C   UNL     1      43.055 -15.450   3.429  1.00  0.00     0.020 A 
HETATM   36  C   UNL     1      41.331 -17.634   2.603  1.00  0.00     0.023 C 
HETATM   37  C   UNL     1      41.190 -17.010   3.996  1.00  0.00     0.138 C 
HETATM   38  C   UNL     1      40.488 -16.910   1.538  1.00  0.00     0.129 C 
HETATM   39  N   UNL     1      42.001 -15.822   4.268  1.00  0.00    -0.317 N 
HETATM   40  C   UNL     1      41.720 -15.142   5.457  1.00  0.00     0.247 A 
HETATM   41  O   UNL     1      40.824 -15.449   6.239  1.00  0.00    -0.268 OA
HETATM   42  C   UNL     1      42.583 -13.973   5.768  1.00  0.00     0.074 A 
HETATM   43  C   UNL     1      43.596 -13.651   4.957  1.00  0.00     0.007 A 
HETATM   44  C   UNL     1      43.843 -14.411   3.762  1.00  0.00     0.026 A 
ENDBRANCH   4  31
TORSDOF 7
ENDMDL
MODEL 5
REMARK VINA RESULT:      -7.4      5.590     10.192
REMARK  7 active torsions:
REMARK  status: ('A' for Active; 'I' for Inactive)
REMARK    1  A    between atoms: C_2  and  O_3 
REMARK    2  A    between atoms: O_3  and  C_4 
REMARK       I    between atoms: C_4  and  N_5 
REMARK    3  A    between atoms: C_8  and  N_9 
REMARK       I    between atoms: N_9  and  C_10 
REMARK    4  A    between atoms: C_10  and  C_11 
REMARK    5  A    between atoms: C_13  and  N_14 
REMARK       I    between atoms: N_14  and  C_15 
REMARK    6  A    between atoms: C_15  and  C_16 
REMARK    7  A    between atoms: C_22  and  N_23 
ROOT
HETATM    1  C   UNL     1      38.077 -12.416  -0.244  1.00  0.00     0.034 A 
HETATM    2  C   UNL     1      38.733 -13.124  -1.254  1.00  0.00     0.049 A 
HETATM    3  C   UNL     1      38.303 -13.050  -2.594  1.00  0.00     0.062 A 
HETATM    4  C   UNL     1      37.167 -12.284  -2.952  1.00  0.00     0.057 A 
HETATM    5  C   UNL     1      36.526 -11.588  -1.910  1.00  0.00     0.033 A 
HETATM    6  C   UNL     1      36.968 -11.646  -0.583  1.00  0.00     0.019 A 
ENDROOT
BRANCH   1   7
HETATM    7  C   UNL     1      38.486 -12.481   1.191  1.00  0.00     0.252 C 
HETATM    8  N   UNL     1      39.548 -13.309   1.500  1.00  0.00    -0.352 N 
HETATM    9  H   UNL     1      40.134 -13.640   0.747  1.00  0.00     0.163 HD
HETATM   10  O   UNL     1      37.899 -11.808   2.031  1.00  0.00    -0.268 OA
BRANCH   8  11
HETATM   11  C   UNL     1      40.091 -13.396   2.852  1.00  0.00     0.087 C 
HETATM   12  C   UNL     1      39.799 -14.762   3.473  1.00  0.00     0.045 C 
HETATM   13  C   UNL     1      40.602 -15.880   2.821  1.00  0.00     0.130 C 
HETATM   14  N   UNL     1      42.023 -15.564   2.711  1.00  0.00    -0.328 N 
HETATM   15  C   UNL     1      42.970 -16.576   2.581  1.00  0.00     0.362 C 
HETATM   16  C   UNL     1      42.381 -14.246   2.201  1.00  0.00     0.130 C 
HETATM   17  O   UNL     1      44.135 -16.383   2.246  1.00  0.00    -0.238 OA
HETATM   18  C   UNL     1      41.595 -13.121   2.866  1.00  0.00     0.045 C 
BRANCH  15  19
HETATM   19  O   UNL     1      42.458 -17.805   2.861  1.00  0.00    -0.304 OA
BRANCH  19  20
HETATM   20  C   UNL     1      42.813 -18.861   1.958  1.00  0.00     0.176 C 
HETATM   21  C   UNL     1      43.788 -19.810   2.629  1.00  0.00     0.034 C 
ENDBRANCH  19  20
ENDBRANCH  15  19
ENDBRANCH   8  11
ENDBRANCH   1   7
BRANCH   3  22
HETATM   22  N   UNL     1      39.027 -13.766  -3.576  1.00  0.00    -0.320 N 
HETATM   23  C   UNL     1      40.390 -13.970  -3.614  1.00  0.00     0.263 C 
HETATM   24  O   UNL     1      40.804 -15.070  -3.979  1.00  0.00    -0.267 OA
HETATM   25  H   UNL     1      38.511 -14.488  -4.052  1.00  0.00     0.169 HD
BRANCH  23  26
HETATM   26  C   UNL     1      41.245 -12.823  -3.330  1.00  0.00     0.072 A 
HETATM   27  S   UNL     1      41.076 -11.386  -4.247  1.00  0.00    -0.097 SA
HETATM   28  C   UNL     1      42.272 -10.578  -3.329  1.00  0.00     0.050 A 
HETATM   29  C   UNL     1      42.796 -11.380  -2.340  1.00  0.00     0.009 A 
HETATM   30  C   UNL     1      42.204 -12.675  -2.341  1.00  0.00     0.025 A 
ENDBRANCH  23  26
ENDBRANCH   3  22
BRANCH   4  31
HETATM   31  N   UNL     1      36.705 -12.142  -4.255  1.00  0.00    -0.378 N 
HETATM   32  C   UNL     1      35.784 -13.105  -4.864  1.00  0.00     0.134 C 
HETATM   33  C   UNL     1      34.574 -12.390  -5.507  1.00  0.00     0.054 C 
HETATM   34  C   UNL     1      35.066 -11.353  -6.513  1.00  0.00     0.020 C 
HETATM   35  C   UNL     1      33.729 -11.751  -4.418  1.00  0.00     0.020 A 
HETATM   36  C   UNL     1      35.878 -10.318  -5.743  1.00  0.00     0.023 C 
HETATM   37  C   UNL     1      34.954  -9.602  -4.752  1.00  0.00     0.138 C 
HETATM   38  C   UNL     1      37.089 -10.978  -5.061  1.00  0.00     0.129 C 
HETATM   39  N   UNL     1      33.996 -10.438  -4.026  1.00  0.00    -0.317 N 
HETATM   40  C   UNL     1      33.303  -9.816  -2.982  1.00  0.00     0.247 A 
HETATM   41  O   UNL     1      33.482  -8.657  -2.620  1.00  0.00    -0.268 OA
HETATM   42  C   UNL     1      32.284 -10.643  -2.284  1.00  0.00     0.074 A 
HETATM   43  C   UNL     1      32.036 -11.891  -2.693  1.00  0.00     0.007 A 
HETATM   44  C   UNL     1      32.771 -12.458  -3.791  1.00  0.00     0.026 A 
ENDBRANCH   4  31
TORSDOF 7
ENDMDL
MODEL 6
REMARK VINA RESULT:      -7.4      4.660      8.529
REMARK  7 active torsions:
REMARK  status: ('A' for Active; 'I' for Inactive)
REMARK    1  A    between atoms: C_2  and  O_3 
REMARK    2  A    between atoms: O_3  and  C_4 
REMARK       I    between atoms: C_4  and  N_5 
REMARK    3  A    between atoms: C_8  and  N_9 
REMARK       I    between atoms: N_9  and  C_10 
REMARK    4  A    between atoms: C_10  and  C_11 
REMARK    5  A    between atoms: C_13  and  N_14 
REMARK       I    between atoms: N_14  and  C_15 
REMARK    6  A    between atoms: C_15  and  C_16 
REMARK    7  A    between atoms: C_22  and  N_23 
ROOT
HETATM    1  C   UNL     1      39.519 -13.449   3.218  1.00  0.00     0.034 A 
HETATM    2  C   UNL     1      39.696 -14.219   2.065  1.00  0.00     0.049 A 
HETATM    3  C   UNL     1      39.367 -13.710   0.793  1.00  0.00     0.062 A 
HETATM    4  C   UNL     1      38.811 -12.416   0.647  1.00  0.00     0.057 A 
HETATM    5  C   UNL     1      38.641 -11.670   1.829  1.00  0.00     0.033 A 
HETATM    6  C   UNL     1      38.988 -12.169   3.090  1.00  0.00     0.019 A 
ENDROOT
BRANCH   1   7
HETATM    7  C   UNL     1      39.835 -13.955   4.587  1.00  0.00     0.252 C 
HETATM    8  N   UNL     1      40.385 -15.220   4.674  1.00  0.00    -0.352 N 
HETATM    9  H   UNL     1      40.756 -15.640   3.836  1.00  0.00     0.163 HD
HETATM   10  O   UNL     1      39.621 -13.252   5.569  1.00  0.00    -0.268 OA
BRANCH   8  11
HETATM   11  C   UNL     1      40.809 -15.791   5.948  1.00  0.00     0.087 C 
HETATM   12  C   UNL     1      40.593 -17.304   5.971  1.00  0.00     0.045 C 
HETATM   13  C   UNL     1      41.553 -18.042   5.047  1.00  0.00     0.130 C 
HETATM   14  N   UNL     1      42.942 -17.633   5.234  1.00  0.00    -0.328 N 
HETATM   15  C   UNL     1      43.988 -18.466   4.847  1.00  0.00     0.362 C 
HETATM   16  C   UNL     1      43.219 -16.203   5.304  1.00  0.00     0.130 C 
HETATM   17  O   UNL     1      45.155 -18.099   4.751  1.00  0.00    -0.238 OA
HETATM   18  C   UNL     1      42.273 -15.463   6.244  1.00  0.00     0.045 C 
BRANCH  15  19
HETATM   19  O   UNL     1      43.571 -19.734   4.581  1.00  0.00    -0.304 OA
BRANCH  19  20
HETATM   20  C   UNL     1      44.230 -20.405   3.498  1.00  0.00     0.176 C 
HETATM   21  C   UNL     1      43.557 -20.050   2.185  1.00  0.00     0.034 C 
ENDBRANCH  19  20
ENDBRANCH  15  19
ENDBRANCH   8  11
ENDBRANCH   1   7
BRANCH   3  22
HETATM   22  N   UNL     1      39.597 -14.526  -0.341  1.00  0.00    -0.320 N 
HETATM   23  C   UNL     1      40.793 -14.702  -1.004  1.00  0.00     0.263 C 
HETATM   24  O   UNL     1      41.070 -15.830  -1.412  1.00  0.00    -0.267 OA
HETATM   25  H   UNL     1      38.975 -15.312  -0.440  1.00  0.00     0.169 HD
BRANCH  23  26
HETATM   26  C   UNL     1      41.588 -13.511  -1.275  1.00  0.00     0.072 A 
HETATM   27  S   UNL     1      41.752 -12.943  -2.883  1.00  0.00    -0.097 SA
HETATM   28  C   UNL     1      42.682 -11.597  -2.386  1.00  0.00     0.050 A 
HETATM   29  C   UNL     1      42.869 -11.572  -1.022  1.00  0.00     0.009 A 
HETATM   30  C   UNL     1      42.239 -12.675  -0.382  1.00  0.00     0.025 A 
ENDBRANCH  23  26
ENDBRANCH   3  22
BRANCH   4  31
HETATM   31  N   UNL     1      38.491 -11.841  -0.577  1.00  0.00    -0.378 N 
HETATM   32  C   UNL     1      37.355 -12.300  -1.381  1.00  0.00     0.134 C 
HETATM   33  C   UNL     1      36.464 -11.114  -1.814  1.00  0.00     0.054 C 
HETATM   34  C   UNL     1      37.308 -10.080  -2.554  1.00  0.00     0.020 C 
HETATM   35  C   UNL     1      35.794 -10.513  -0.591  1.00  0.00     0.020 A 
HETATM   36  C   UNL     1      38.352  -9.558  -1.575  1.00  0.00     0.023 C 
HETATM   37  C   UNL     1      37.638  -8.838  -0.426  1.00  0.00     0.138 C 
HETATM   38  C   UNL     1      39.260 -10.702  -1.089  1.00  0.00     0.129 C 
HETATM   39  N   UNL     1      36.429  -9.477   0.098  1.00  0.00    -0.317 N 
HETATM   40  C   UNL     1      35.900  -8.929   1.271  1.00  0.00     0.247 A 
HETATM   41  O   UNL     1      36.406  -8.000   1.895  1.00  0.00    -0.268 OA
HETATM   42  C   UNL     1      34.638  -9.533   1.770  1.00  0.00     0.074 A 
HETATM   43  C   UNL     1      34.043 -10.512   1.081  1.00  0.00     0.007 A 
HETATM   44  C   UNL     1      34.630 -11.010  -0.133  1.00  0.00     0.026 A 
ENDBRANCH   4  31
TORSDOF 7
ENDMDL
MODEL 7
REMARK VINA RESULT:      -7.2      4.329      9.012
REMARK  7 active torsions:
REMARK  status: ('A' for Active; 'I' for Inactive)
REMARK    1  A    between atoms: C_2  and  O_3 
REMARK    2  A    between atoms: O_3  and  C_4 
REMARK       I    between atoms: C_4  and  N_5 
REMARK    3  A    between atoms: C_8  and  N_9 
REMARK       I    between atoms: N_9  and  C_10 
REMARK    4  A    between atoms: C_10  and  C_11 
REMARK    5  A    between atoms: C_13  and  N_14 
REMARK       I    between atoms: N_14  and  C_15 
REMARK    6  A    between atoms: C_15  and  C_16 
REMARK    7  A    between atoms: C_22  and  N_23 
ROOT
HETATM    1  C   UNL     1      38.864 -11.672   3.412  1.00  0.00     0.034 A 
HETATM    2  C   UNL     1      38.560 -12.361   2.235  1.00  0.00     0.049 A 
HETATM    3  C   UNL     1      37.578 -11.883   1.345  1.00  0.00     0.062 A 
HETATM    4  C   UNL     1      36.841 -10.709   1.635  1.00  0.00     0.057 A 
HETATM    5  C   UNL     1      37.169 -10.044   2.832  1.00  0.00     0.033 A 
HETATM    6  C   UNL     1      38.159 -10.509   3.705  1.00  0.00     0.019 A 
ENDROOT
BRANCH   1   7
HETATM    7  C   UNL     1      39.882 -12.153   4.393  1.00  0.00     0.252 C 
HETATM    8  N   UNL     1      40.723 -13.166   3.975  1.00  0.00    -0.352 N 
HETATM    9  H   UNL     1      40.773 -13.372   2.988  1.00  0.00     0.163 HD
HETATM   10  O   UNL     1      39.957 -11.642   5.506  1.00  0.00    -0.268 OA
BRANCH   8  11
HETATM   11  C   UNL     1      41.809 -13.665   4.814  1.00  0.00     0.087 C 
HETATM   12  C   UNL     1      41.535 -15.097   5.272  1.00  0.00     0.045 C 
HETATM   13  C   UNL     1      41.634 -16.101   4.131  1.00  0.00     0.130 C 
HETATM   14  N   UNL     1      42.857 -15.948   3.349  1.00  0.00    -0.328 N 
HETATM   15  C   UNL     1      43.353 -17.001   2.588  1.00  0.00     0.362 C 
HETATM   16  C   UNL     1      43.229 -14.597   2.941  1.00  0.00     0.130 C 
HETATM   17  O   UNL     1      44.223 -16.876   1.731  1.00  0.00    -0.238 OA
HETATM   18  C   UNL     1      43.151 -13.592   4.085  1.00  0.00     0.045 C 
BRANCH  15  19
HETATM   19  O   UNL     1      42.763 -18.188   2.896  1.00  0.00    -0.304 OA
BRANCH  19  20
HETATM   20  C   UNL     1      43.644 -19.267   3.233  1.00  0.00     0.176 C 
HETATM   21  C   UNL     1      43.685 -20.275   2.099  1.00  0.00     0.034 C 
ENDBRANCH  19  20
ENDBRANCH  15  19
ENDBRANCH   8  11
ENDBRANCH   1   7
BRANCH   3  22
HETATM   22  N   UNL     1      37.336 -12.608   0.154  1.00  0.00    -0.320 N 
HETATM   23  C   UNL     1      38.265 -12.964  -0.801  1.00  0.00     0.263 C 
HETATM   24  O   UNL     1      38.170 -14.077  -1.319  1.00  0.00    -0.267 OA
HETATM   25  H   UNL     1      36.545 -13.230   0.180  1.00  0.00     0.169 HD
BRANCH  23  26
HETATM   26  C   UNL     1      39.225 -11.946  -1.211  1.00  0.00     0.072 A 
HETATM   27  S   UNL     1      38.681 -10.537  -2.019  1.00  0.00    -0.097 SA
HETATM   28  C   UNL     1      40.258  -9.879  -2.081  1.00  0.00     0.050 A 
HETATM   29  C   UNL     1      41.189 -10.710  -1.499  1.00  0.00     0.009 A 
HETATM   30  C   UNL     1      40.594 -11.902  -0.998  1.00  0.00     0.025 A 
ENDBRANCH  23  26
ENDBRANCH   3  22
BRANCH   4  31
HETATM   31  N   UNL     1      35.881 -10.165   0.791  1.00  0.00    -0.378 N 
HETATM   32  C   UNL     1      34.651 -10.883   0.445  1.00  0.00     0.134 C 
HETATM   33  C   UNL     1      33.407  -9.992   0.660  1.00  0.00     0.054 C 
HETATM   34  C   UNL     1      33.557  -8.698  -0.135  1.00  0.00     0.020 C 
HETATM   35  C   UNL     1      33.234  -9.716   2.143  1.00  0.00     0.020 A 
HETATM   36  C   UNL     1      34.772  -7.962   0.417  1.00  0.00     0.023 C 
HETATM   37  C   UNL     1      34.499  -7.581   1.876  1.00  0.00     0.138 C 
HETATM   38  C   UNL     1      36.043  -8.812   0.250  1.00  0.00     0.129 C 
HETATM   39  N   UNL     1      33.843  -8.593   2.706  1.00  0.00    -0.317 N 
HETATM   40  C   UNL     1      33.782  -8.321   4.077  1.00  0.00     0.247 A 
HETATM   41  O   UNL     1      34.277  -7.333   4.614  1.00  0.00    -0.268 OA
HETATM   42  C   UNL     1      33.062  -9.314   4.915  1.00  0.00     0.074 A 
HETATM   43  C   UNL     1      32.472 -10.371   4.346  1.00  0.00     0.007 A 
HETATM   44  C   UNL     1      32.554 -10.574   2.926  1.00  0.00     0.026 A 
ENDBRANCH   4  31
TORSDOF 7
ENDMDL
MODEL 8
REMARK VINA RESULT:      -7.1      4.761      8.256
REMARK  7 active torsions:
REMARK  status: ('A' for Active; 'I' for Inactive)
REMARK    1  A    between atoms: C_2  and  O_3 
REMARK    2  A    between atoms: O_3  and  C_4 
REMARK       I    between atoms: C_4  and  N_5 
REMARK    3  A    between atoms: C_8  and  N_9 
REMARK       I    between atoms: N_9  and  C_10 
REMARK    4  A    between atoms: C_10  and  C_11 
REMARK    5  A    between atoms: C_13  and  N_14 
REMARK       I    between atoms: N_14  and  C_15 
REMARK    6  A    between atoms: C_15  and  C_16 
REMARK    7  A    between atoms: C_22  and  N_23 
ROOT
HETATM    1  C   UNL     1      41.323 -13.423   2.696  1.00  0.00     0.034 A 
HETATM    2  C   UNL     1      41.357 -14.265   1.583  1.00  0.00     0.049 A 
HETATM    3  C   UNL     1      41.690 -13.772   0.305  1.00  0.00     0.062 A 
HETATM    4  C   UNL     1      41.964 -12.397   0.105  1.00  0.00     0.057 A 
HETATM    5  C   UNL     1      41.915 -11.575   1.247  1.00  0.00     0.033 A 
HETATM    6  C   UNL     1      41.605 -12.071   2.518  1.00  0.00     0.019 A 
ENDROOT
BRANCH   1   7
HETATM    7  C   UNL     1      40.956 -13.899   4.063  1.00  0.00     0.252 C 
HETATM    8  N   UNL     1      41.495 -15.104   4.471  1.00  0.00    -0.352 N 
HETATM    9  H   UNL     1      42.270 -15.484   3.948  1.00  0.00     0.163 HD
HETATM   10  O   UNL     1      40.220 -13.223   4.775  1.00  0.00    -0.268 OA
BRANCH   8  11
HETATM   11  C   UNL     1      41.275 -15.634   5.812  1.00  0.00     0.087 C 
HETATM   12  C   UNL     1      40.958 -17.129   5.767  1.00  0.00     0.045 C 
HETATM   13  C   UNL     1      42.167 -17.967   5.374  1.00  0.00     0.130 C 
HETATM   14  N   UNL     1      43.360 -17.633   6.146  1.00  0.00    -0.328 N 
HETATM   15  C   UNL     1      44.404 -18.543   6.275  1.00  0.00     0.362 C 
HETATM   16  C   UNL     1      43.685 -16.219   6.303  1.00  0.00     0.130 C 
HETATM   17  O   UNL     1      45.520 -18.251   6.696  1.00  0.00    -0.238 OA
HETATM   18  C   UNL     1      42.482 -15.379   6.716  1.00  0.00     0.045 C 
BRANCH  15  19
HETATM   19  O   UNL     1      44.053 -19.797   5.878  1.00  0.00    -0.304 OA
BRANCH  19  20
HETATM   20  C   UNL     1      44.862 -20.389   4.853  1.00  0.00     0.176 C 
HETATM   21  C   UNL     1      44.935 -21.891   5.055  1.00  0.00     0.034 C 
ENDBRANCH  19  20
ENDBRANCH  15  19
ENDBRANCH   8  11
ENDBRANCH   1   7
BRANCH   3  22
HETATM   22  N   UNL     1      41.737 -14.680  -0.779  1.00  0.00    -0.320 N 
HETATM   23  C   UNL     1      41.458 -16.030  -0.739  1.00  0.00     0.263 C 
HETATM   24  O   UNL     1      40.845 -16.525  -1.685  1.00  0.00    -0.267 OA
HETATM   25  H   UNL     1      41.583 -14.276  -1.688  1.00  0.00     0.169 HD
BRANCH  23  26
HETATM   26  C   UNL     1      42.015 -16.795   0.371  1.00  0.00     0.072 A 
HETATM   27  S   UNL     1      40.968 -17.625   1.443  1.00  0.00    -0.097 SA
HETATM   28  C   UNL     1      42.279 -18.272   2.331  1.00  0.00     0.050 A 
HETATM   29  C   UNL     1      43.495 -17.869   1.827  1.00  0.00     0.009 A 
HETATM   30  C   UNL     1      43.343 -17.017   0.697  1.00  0.00     0.025 A 
ENDBRANCH  23  26
ENDBRANCH   3  22
BRANCH   4  31
HETATM   31  N   UNL     1      42.327 -11.847  -1.119  1.00  0.00    -0.378 N 
HETATM   32  C   UNL     1      42.701 -12.678  -2.267  1.00  0.00     0.134 C 
HETATM   33  C   UNL     1      41.922 -12.259  -3.534  1.00  0.00     0.054 C 
HETATM   34  C   UNL     1      42.143 -10.774  -3.807  1.00  0.00     0.020 C 
HETATM   35  C   UNL     1      40.449 -12.577  -3.349  1.00  0.00     0.020 A 
HETATM   36  C   UNL     1      41.575 -10.003  -2.622  1.00  0.00     0.023 C 
HETATM   37  C   UNL     1      40.062 -10.242  -2.554  1.00  0.00     0.138 C 
HETATM   38  C   UNL     1      42.299 -10.395  -1.322  1.00  0.00     0.129 C 
HETATM   39  N   UNL     1      39.604 -11.611  -2.798  1.00  0.00    -0.317 N 
HETATM   40  C   UNL     1      38.253 -11.865  -2.536  1.00  0.00     0.247 A 
HETATM   41  O   UNL     1      37.465 -11.040  -2.080  1.00  0.00    -0.268 OA
HETATM   42  C   UNL     1      37.769 -13.236  -2.843  1.00  0.00     0.074 A 
HETATM   43  C   UNL     1      38.595 -14.135  -3.386  1.00  0.00     0.007 A 
HETATM   44  C   UNL     1      39.967 -13.797  -3.653  1.00  0.00     0.026 A 
ENDBRANCH   4  31
TORSDOF 7
ENDMDL
MODEL 9
REMARK VINA RESULT:      -6.9      4.516      7.968
REMARK  7 active torsions:
REMARK  status: ('A' for Active; 'I' for Inactive)
REMARK    1  A    between atoms: C_2  and  O_3 
REMARK    2  A    between atoms: O_3  and  C_4 
REMARK       I    between atoms: C_4  and  N_5 
REMARK    3  A    between atoms: C_8  and  N_9 
REMARK       I    between atoms: N_9  and  C_10 
REMARK    4  A    between atoms: C_10  and  C_11 
REMARK    5  A    between atoms: C_13  and  N_14 
REMARK       I    between atoms: N_14  and  C_15 
REMARK    6  A    between atoms: C_15  and  C_16 
REMARK    7  A    between atoms: C_22  and  N_23 
ROOT
HETATM    1  C   UNL     1      40.002 -13.334   2.900  1.00  0.00     0.034 A 
HETATM    2  C   UNL     1      40.689 -13.908   1.828  1.00  0.00     0.049 A 
HETATM    3  C   UNL     1      40.213 -13.783   0.507  1.00  0.00     0.062 A 
HETATM    4  C   UNL     1      39.002 -13.104   0.231  1.00  0.00     0.057 A 
HETATM    5  C   UNL     1      38.332 -12.543   1.335  1.00  0.00     0.033 A 
HETATM    6  C   UNL     1      38.817 -12.650   2.643  1.00  0.00     0.019 A 
ENDROOT
BRANCH   1   7
HETATM    7  C   UNL     1      40.459 -13.458   4.316  1.00  0.00     0.252 C 
HETATM    8  N   UNL     1      40.899 -14.703   4.723  1.00  0.00    -0.352 N 
HETATM    9  H   UNL     1      41.109 -15.393   4.017  1.00  0.00     0.163 HD
HETATM   10  O   UNL     1      40.449 -12.480   5.056  1.00  0.00    -0.268 OA
BRANCH   8  11
HETATM   11  C   UNL     1      41.443 -14.931   6.058  1.00  0.00     0.087 C 
HETATM   12  C   UNL     1      40.987 -16.280   6.614  1.00  0.00     0.045 C 
HETATM   13  C   UNL     1      41.630 -17.455   5.890  1.00  0.00     0.130 C 
HETATM   14  N   UNL     1      43.078 -17.318   5.768  1.00  0.00    -0.328 N 
HETATM   15  C   UNL     1      43.885 -18.434   5.567  1.00  0.00     0.362 C 
HETATM   16  C   UNL     1      43.596 -16.031   5.318  1.00  0.00     0.130 C 
HETATM   17  O   UNL     1      45.061 -18.375   5.219  1.00  0.00    -0.238 OA
HETATM   18  C   UNL     1      42.970 -14.852   6.055  1.00  0.00     0.045 C 
BRANCH  15  19
HETATM   19  O   UNL     1      43.223 -19.601   5.794  1.00  0.00    -0.304 OA
BRANCH  19  20
HETATM   20  C   UNL     1      44.023 -20.712   6.222  1.00  0.00     0.176 C 
HETATM   21  C   UNL     1      43.596 -21.151   7.611  1.00  0.00     0.034 C 
ENDBRANCH  19  20
ENDBRANCH  15  19
ENDBRANCH   8  11
ENDBRANCH   1   7
BRANCH   3  22
HETATM   22  N   UNL     1      40.970 -14.361  -0.541  1.00  0.00    -0.320 N 
HETATM   23  C   UNL     1      41.276 -15.696  -0.701  1.00  0.00     0.263 C 
HETATM   24  O   UNL     1      41.253 -16.165  -1.839  1.00  0.00    -0.267 OA
HETATM   25  H   UNL     1      40.957 -13.855  -1.411  1.00  0.00     0.169 HD
BRANCH  23  26
HETATM   26  C   UNL     1      41.717 -16.426   0.481  1.00  0.00     0.072 A 
HETATM   27  S   UNL     1      40.596 -17.373   1.366  1.00  0.00    -0.097 SA
HETATM   28  C   UNL     1      41.803 -17.911   2.452  1.00  0.00     0.050 A 
HETATM   29  C   UNL     1      43.040 -17.385   2.154  1.00  0.00     0.009 A 
HETATM   30  C   UNL     1      42.990 -16.529   1.018  1.00  0.00     0.025 A 
ENDBRANCH  23  26
ENDBRANCH   3  22
BRANCH   4  31
HETATM   31  N   UNL     1      38.489 -12.918  -1.048  1.00  0.00    -0.378 N 
HETATM   32  C   UNL     1      38.003 -11.616  -1.510  1.00  0.00     0.134 C 
HETATM   33  C   UNL     1      38.622 -11.243  -2.876  1.00  0.00     0.054 C 
HETATM   34  C   UNL     1      38.340 -12.351  -3.888  1.00  0.00     0.020 C 
HETATM   35  C   UNL     1      40.113 -11.010  -2.708  1.00  0.00     0.020 A 
HETATM   36  C   UNL     1      39.025 -13.615  -3.383  1.00  0.00     0.023 C 
HETATM   37  C   UNL     1      40.540 -13.382  -3.360  1.00  0.00     0.138 C 
HETATM   38  C   UNL     1      38.464 -14.025  -2.010  1.00  0.00     0.129 C 
HETATM   39  N   UNL     1      40.996 -12.081  -2.867  1.00  0.00    -0.317 N 
HETATM   40  C   UNL     1      42.372 -11.949  -2.656  1.00  0.00     0.247 A 
HETATM   41  O   UNL     1      43.190 -12.852  -2.810  1.00  0.00    -0.268 OA
HETATM   42  C   UNL     1      42.847 -10.611  -2.217  1.00  0.00     0.074 A 
HETATM   43  C   UNL     1      41.982  -9.599  -2.091  1.00  0.00     0.007 A 
HETATM   44  C   UNL     1      40.582  -9.801  -2.349  1.00  0.00     0.026 A 
ENDBRANCH   4  31
TORSDOF 7
ENDMDL
MODEL 10
REMARK VINA RESULT:      -6.8      4.594      8.841
REMARK  7 active torsions:
REMARK  status: ('A' for Active; 'I' for Inactive)
REMARK    1  A    between atoms: C_2  and  O_3 
REMARK    2  A    between atoms: O_3  and  C_4 
REMARK       I    between atoms: C_4  and  N_5 
REMARK    3  A    between atoms: C_8  and  N_9 
REMARK       I    between atoms: N_9  and  C_10 
REMARK    4  A    between atoms: C_10  and  C_11 
REMARK    5  A    between atoms: C_13  and  N_14 
REMARK       I    between atoms: N_14  and  C_15 
REMARK    6  A    between atoms: C_15  and  C_16 
REMARK    7  A    between atoms: C_22  and  N_23 
ROOT
HETATM    1  C   UNL     1      39.882 -13.338   2.546  1.00  0.00     0.034 A 
HETATM    2  C   UNL     1      38.725 -12.559   2.616  1.00  0.00     0.049 A 
HETATM    3  C   UNL     1      38.120 -12.046   1.451  1.00  0.00     0.062 A 
HETATM    4  C   UNL     1      38.690 -12.273   0.175  1.00  0.00     0.057 A 
HETATM    5  C   UNL     1      39.859 -13.057   0.141  1.00  0.00     0.033 A 
HETATM    6  C   UNL     1      40.446 -13.583   1.298  1.00  0.00     0.019 A 
ENDROOT
BRANCH   1   7
HETATM    7  C   UNL     1      40.566 -13.885   3.756  1.00  0.00     0.252 C 
HETATM    8  N   UNL     1      40.912 -15.222   3.727  1.00  0.00    -0.352 N 
HETATM    9  H   UNL     1      40.904 -15.701   2.839  1.00  0.00     0.163 HD
HETATM   10  O   UNL     1      40.813 -13.153   4.709  1.00  0.00    -0.268 OA
BRANCH   8  11
HETATM   11  C   UNL     1      41.655 -15.851   4.814  1.00  0.00     0.087 C 
HETATM   12  C   UNL     1      41.262 -17.320   4.970  1.00  0.00     0.045 C 
HETATM   13  C   UNL     1      41.757 -18.180   3.814  1.00  0.00     0.130 C 
HETATM   14  N   UNL     1      43.170 -17.967   3.518  1.00  0.00    -0.328 N 
HETATM   15  C   UNL     1      43.911 -18.934   2.845  1.00  0.00     0.362 C 
HETATM   16  C   UNL     1      43.640 -16.589   3.433  1.00  0.00     0.130 C 
HETATM   17  O   UNL     1      45.018 -18.731   2.356  1.00  0.00    -0.238 OA
HETATM   18  C   UNL     1      43.164 -15.729   4.599  1.00  0.00     0.045 C 
BRANCH  15  19
HETATM   19  O   UNL     1      43.267 -20.132   2.783  1.00  0.00    -0.304 OA
BRANCH  19  20
HETATM   20  C   UNL     1      44.098 -21.294   2.666  1.00  0.00     0.176 C 
HETATM   21  C   UNL     1      43.923 -21.918   1.294  1.00  0.00     0.034 C 
ENDBRANCH  19  20
ENDBRANCH  15  19
ENDBRANCH   8  11
ENDBRANCH   1   7
BRANCH   3  22
HETATM   22  N   UNL     1      36.932 -11.289   1.584  1.00  0.00    -0.320 N 
HETATM   23  C   UNL     1      36.836  -9.923   1.745  1.00  0.00     0.263 C 
HETATM   24  O   UNL     1      35.930  -9.330   1.158  1.00  0.00    -0.267 OA
HETATM   25  H   UNL     1      36.114 -11.690   1.155  1.00  0.00     0.169 HD
BRANCH  23  26
HETATM   26  C   UNL     1      37.747  -9.297   2.696  1.00  0.00     0.072 A 
HETATM   27  S   UNL     1      39.080  -8.384   2.124  1.00  0.00    -0.097 SA
HETATM   28  C   UNL     1      39.563  -7.967   3.711  1.00  0.00     0.050 A 
HETATM   29  C   UNL     1      38.730  -8.508   4.665  1.00  0.00     0.009 A 
HETATM   30  C   UNL     1      37.684  -9.275   4.080  1.00  0.00     0.025 A 
ENDBRANCH  23  26
ENDBRANCH   3  22
BRANCH   4  31
HETATM   31  N   UNL     1      38.134 -11.823  -1.016  1.00  0.00    -0.378 N 
HETATM   32  C   UNL     1      38.430 -10.496  -1.563  1.00  0.00     0.134 C 
HETATM   33  C   UNL     1      38.846 -10.585  -3.048  1.00  0.00     0.054 C 
HETATM   34  C   UNL     1      37.759 -11.303  -3.845  1.00  0.00     0.020 C 
HETATM   35  C   UNL     1      40.180 -11.303  -3.156  1.00  0.00     0.020 A 
HETATM   36  C   UNL     1      37.650 -12.719  -3.294  1.00  0.00     0.023 C 
HETATM   37  C   UNL     1      38.972 -13.453  -3.548  1.00  0.00     0.138 C 
HETATM   38  C   UNL     1      37.257 -12.694  -1.806  1.00  0.00     0.129 C 
HETATM   39  N   UNL     1      40.200 -12.691  -3.312  1.00  0.00    -0.317 N 
HETATM   40  C   UNL     1      41.393 -13.420  -3.347  1.00  0.00     0.247 A 
HETATM   41  O   UNL     1      41.463 -14.635  -3.510  1.00  0.00    -0.268 OA
HETATM   42  C   UNL     1      42.646 -12.641  -3.172  1.00  0.00     0.074 A 
HETATM   43  C   UNL     1      42.598 -11.311  -3.043  1.00  0.00     0.007 A 
HETATM   44  C   UNL     1      41.336 -10.624  -3.041  1.00  0.00     0.026 A 
ENDBRANCH   4  31
TORSDOF 7
ENDMDL
