MODEL 1
REMARK VINA RESULT:      -9.1      0.000      0.000
REMARK  7 active torsions:
REMARK  status: ('A' for Active; 'I' for Inactive)
REMARK       I    between atoms: C_2  and  N_3 
REMARK    1  A    between atoms: N_3  and  C_4 
REMARK    2  A    between atoms: C_7  and  N_8 
REMARK       I    between atoms: N_8  and  C_9 
REMARK    3  A    between atoms: C_9  and  C_10 
REMARK    4  A    between atoms: C_10  and  S_11 
REMARK    5  A    between atoms: S_11  and  C_12 
REMARK    6  A    between atoms: N_13  and  N_14 
REMARK    7  A    between atoms: C_20  and  C_21 
ROOT
HETATM    1  C   UNL     1      39.088 -14.424   0.331  1.00  0.00     0.206 A 
HETATM    2  N   UNL     1      39.694 -15.329   1.168  1.00  0.00    -0.234 N 
HETATM    3  C   UNL     1      40.880 -15.653   0.542  1.00  0.00     0.197 A 
HETATM    4  C   UNL     1      41.890 -16.538   1.013  1.00  0.00     0.101 A 
HETATM    5  N   UNL     1      43.159 -16.510   0.513  1.00  0.00    -0.274 N 
HETATM    6  H   UNL     1      43.523 -15.897  -0.209  1.00  0.00     0.189 HD
HETATM    7  N   UNL     1      43.988 -17.402   1.080  1.00  0.00    -0.174 NA
HETATM    8  C   UNL     1      43.216 -18.078   1.947  1.00  0.00     0.089 A 
HETATM    9  C   UNL     1      41.894 -17.549   1.947  1.00  0.00     0.069 A 
HETATM   10  N   UNL     1      40.969 -14.980  -0.592  1.00  0.00    -0.125 NA
HETATM   11  N   UNL     1      39.825 -14.230  -0.739  1.00  0.00    -0.121 NA
ENDROOT
BRANCH   1  12
HETATM   12  S   UNL     1      37.601 -13.628   0.717  1.00  0.00    -0.080 SA
BRANCH  12  13
HETATM   13  C   UNL     1      38.184 -11.935   1.031  1.00  0.00     0.185 C 
BRANCH  13  14
HETATM   14  C   UNL     1      39.533 -11.955   1.742  1.00  0.00     0.231 C 
HETATM   15  N   UNL     1      39.487 -12.599   2.966  1.00  0.00    -0.327 N 
HETATM   16  H   UNL     1      38.560 -12.852   3.305  1.00  0.00     0.169 HD
HETATM   17  O   UNL     1      40.517 -11.418   1.240  1.00  0.00    -0.272 OA
BRANCH  15  18
HETATM   18  C   UNL     1      40.528 -12.763   3.899  1.00  0.00     0.034 A 
HETATM   19  C   UNL     1      41.760 -13.343   3.608  1.00  0.00     0.032 A 
HETATM   20  C   UNL     1      42.760 -13.430   4.590  1.00  0.00     0.032 A 
HETATM   21  C   UNL     1      42.542 -12.940   5.876  1.00  0.00     0.034 A 
HETATM   22  C   UNL     1      41.285 -12.405   6.179  1.00  0.00     0.032 A 
HETATM   23  C   UNL     1      40.294 -12.304   5.198  1.00  0.00     0.032 A 
BRANCH  21  24
HETATM   24  N   UNL     1      43.477 -12.976   6.923  1.00  0.00    -0.328 N 
HETATM   25  C   UNL     1      44.204 -13.981   7.487  1.00  0.00     0.218 C 
HETATM   26  C   UNL     1      44.255 -15.351   6.875  1.00  0.00     0.117 C 
HETATM   27  O   UNL     1      44.868 -13.726   8.497  1.00  0.00    -0.274 OA
HETATM   28  H   UNL     1      43.696 -12.089   7.361  1.00  0.00     0.169 HD
ENDBRANCH  21  24
ENDBRANCH  15  18
ENDBRANCH  13  14
ENDBRANCH  12  13
ENDBRANCH   1  12
BRANCH   2  29
HETATM   29  N   UNL     1      39.230 -15.769   2.461  1.00  0.00    -0.239 NA
HETATM   30  H   UNL     1      39.582 -16.707   2.660  1.00  0.00     0.143 HD
HETATM   31  H   UNL     1      38.214 -15.864   2.455  1.00  0.00     0.143 HD
ENDBRANCH   2  29
BRANCH   8  32
HETATM   32  C   UNL     1      43.743 -19.197   2.734  1.00  0.00    -0.006 A 
HETATM   33  C   UNL     1      43.848 -20.477   2.169  1.00  0.00     0.015 A 
HETATM   34  C   UNL     1      44.340 -21.552   2.915  1.00  0.00     0.024 A 
HETATM   35  C   UNL     1      44.725 -21.355   4.239  1.00  0.00     0.034 A 
HETATM   36 CL   UNL     1      45.322 -22.676   5.164  1.00  0.00    -0.084 Cl
HETATM   37  C   UNL     1      44.626 -20.092   4.818  1.00  0.00     0.024 A 
HETATM   38  C   UNL     1      44.138 -19.017   4.069  1.00  0.00     0.015 A 
ENDBRANCH   8  32
TORSDOF 7
ENDMDL
MODEL 2
REMARK VINA RESULT:      -9.0      2.124      2.729
REMARK  7 active torsions:
REMARK  status: ('A' for Active; 'I' for Inactive)
REMARK       I    between atoms: C_2  and  N_3 
REMARK    1  A    between atoms: N_3  and  C_4 
REMARK    2  A    between atoms: C_7  and  N_8 
REMARK       I    between atoms: N_8  and  C_9 
REMARK    3  A    between atoms: C_9  and  C_10 
REMARK    4  A    between atoms: C_10  and  S_11 
REMARK    5  A    between atoms: S_11  and  C_12 
REMARK    6  A    between atoms: N_13  and  N_14 
REMARK    7  A    between atoms: C_20  and  C_21 
ROOT
HETATM    1  C   UNL     1      39.078 -14.331   0.409  1.00  0.00     0.206 A 
HETATM    2  N   UNL     1      39.690 -15.234   1.243  1.00  0.00    -0.234 N 
HETATM    3  C   UNL     1      40.842 -15.604   0.583  1.00  0.00     0.197 A 
HETATM    4  C   UNL     1      41.846 -16.506   1.036  1.00  0.00     0.101 A 
HETATM    5  N   UNL     1      43.096 -16.524   0.490  1.00  0.00    -0.274 N 
HETATM    6  H   UNL     1      43.449 -15.937  -0.259  1.00  0.00     0.189 HD
HETATM    7  N   UNL     1      43.921 -17.426   1.046  1.00  0.00    -0.174 NA
HETATM    8  C   UNL     1      43.163 -18.061   1.956  1.00  0.00     0.089 A 
HETATM    9  C   UNL     1      41.857 -17.496   1.992  1.00  0.00     0.069 A 
HETATM   10  N   UNL     1      40.908 -14.958  -0.570  1.00  0.00    -0.125 NA
HETATM   11  N   UNL     1      39.779 -14.181  -0.691  1.00  0.00    -0.121 NA
ENDROOT
BRANCH   1  12
HETATM   12  S   UNL     1      37.628 -13.486   0.830  1.00  0.00    -0.080 SA
BRANCH  12  13
HETATM   13  C   UNL     1      38.257 -11.790   1.018  1.00  0.00     0.185 C 
BRANCH  13  14
HETATM   14  C   UNL     1      39.156 -11.684   2.245  1.00  0.00     0.231 C 
HETATM   15  N   UNL     1      38.445 -11.615   3.431  1.00  0.00    -0.327 N 
HETATM   16  H   UNL     1      37.436 -11.504   3.342  1.00  0.00     0.169 HD
HETATM   17  O   UNL     1      40.378 -11.644   2.128  1.00  0.00    -0.272 OA
BRANCH  15  18
HETATM   18  C   UNL     1      38.949 -11.469   4.737  1.00  0.00     0.034 A 
HETATM   19  C   UNL     1      39.437 -10.275   5.262  1.00  0.00     0.032 A 
HETATM   20  C   UNL     1      39.884 -10.209   6.591  1.00  0.00     0.032 A 
HETATM   21  C   UNL     1      39.851 -11.334   7.412  1.00  0.00     0.034 A 
HETATM   22  C   UNL     1      39.408 -12.542   6.866  1.00  0.00     0.032 A 
HETATM   23  C   UNL     1      38.949 -12.607   5.547  1.00  0.00     0.032 A 
BRANCH  21  24
HETATM   24  N   UNL     1      40.270 -11.367   8.752  1.00  0.00    -0.328 N 
HETATM   25  C   UNL     1      39.858 -10.711   9.874  1.00  0.00     0.218 C 
HETATM   26  C   UNL     1      38.611  -9.875   9.879  1.00  0.00     0.117 C 
HETATM   27  O   UNL     1      40.512 -10.859  10.911  1.00  0.00    -0.274 OA
HETATM   28  H   UNL     1      41.019 -12.014   8.974  1.00  0.00     0.169 HD
ENDBRANCH  21  24
ENDBRANCH  15  18
ENDBRANCH  13  14
ENDBRANCH  12  13
ENDBRANCH   1  12
BRANCH   2  29
HETATM   29  N   UNL     1      39.263 -15.632   2.563  1.00  0.00    -0.239 NA
HETATM   30  H   UNL     1      39.973 -16.222   2.999  1.00  0.00     0.143 HD
HETATM   31  H   UNL     1      38.433 -16.222   2.498  1.00  0.00     0.143 HD
ENDBRANCH   2  29
BRANCH   8  32
HETATM   32  C   UNL     1      43.689 -19.176   2.750  1.00  0.00    -0.006 A 
HETATM   33  C   UNL     1      44.102 -18.972   4.076  1.00  0.00     0.015 A 
HETATM   34  C   UNL     1      44.616 -20.027   4.837  1.00  0.00     0.024 A 
HETATM   35  C   UNL     1      44.726 -21.295   4.273  1.00  0.00     0.034 A 
HETATM   36 CL   UNL     1      45.364 -22.594   5.202  1.00  0.00    -0.084 Cl
HETATM   37  C   UNL     1      44.323 -21.517   2.958  1.00  0.00     0.024 A 
HETATM   38  C   UNL     1      43.806 -20.462   2.200  1.00  0.00     0.015 A 
ENDBRANCH   8  32
TORSDOF 7
ENDMDL
MODEL 3
REMARK VINA RESULT:      -8.7      4.430      5.694
REMARK  7 active torsions:
REMARK  status: ('A' for Active; 'I' for Inactive)
REMARK       I    between atoms: C_2  and  N_3 
REMARK    1  A    between atoms: N_3  and  C_4 
REMARK    2  A    between atoms: C_7  and  N_8 
REMARK       I    between atoms: N_8  and  C_9 
REMARK    3  A    between atoms: C_9  and  C_10 
REMARK    4  A    between atoms: C_10  and  S_11 
REMARK    5  A    between atoms: S_11  and  C_12 
REMARK    6  A    between atoms: N_13  and  N_14 
REMARK    7  A    between atoms: C_20  and  C_21 
ROOT
HETATM    1  C   UNL     1      40.582 -12.234   5.382  1.00  0.00     0.206 A 
HETATM    2  N   UNL     1      40.772 -13.498   4.880  1.00  0.00    -0.234 N 
HETATM    3  C   UNL     1      41.963 -13.925   5.428  1.00  0.00     0.197 A 
HETATM    4  C   UNL     1      42.597 -15.185   5.242  1.00  0.00     0.101 A 
HETATM    5  N   UNL     1      43.559 -15.639   6.097  1.00  0.00    -0.274 N 
HETATM    6  H   UNL     1      43.923 -15.169   6.920  1.00  0.00     0.189 HD
HETATM    7  N   UNL     1      44.040 -16.852   5.782  1.00  0.00    -0.174 NA
HETATM    8  C   UNL     1      43.406 -17.182   4.644  1.00  0.00     0.089 A 
HETATM    9  C   UNL     1      42.476 -16.166   4.285  1.00  0.00     0.069 A 
HETATM   10  N   UNL     1      42.446 -12.972   6.209  1.00  0.00    -0.125 NA
HETATM   11  N   UNL     1      41.591 -11.896   6.154  1.00  0.00    -0.121 NA
ENDROOT
BRANCH   1  12
HETATM   12  S   UNL     1      39.163 -11.295   5.071  1.00  0.00    -0.080 SA
BRANCH  12  13
HETATM   13  C   UNL     1      39.719  -9.644   5.591  1.00  0.00     0.185 C 
BRANCH  13  14
HETATM   14  C   UNL     1      39.451  -9.431   7.077  1.00  0.00     0.231 C 
HETATM   15  N   UNL     1      40.580  -9.604   7.859  1.00  0.00    -0.327 N 
HETATM   16  H   UNL     1      41.400  -9.981   7.385  1.00  0.00     0.169 HD
HETATM   17  O   UNL     1      38.323  -9.156   7.480  1.00  0.00    -0.272 OA
BRANCH  15  18
HETATM   18  C   UNL     1      40.685  -9.527   9.260  1.00  0.00     0.034 A 
HETATM   19  C   UNL     1      40.869  -8.343   9.970  1.00  0.00     0.032 A 
HETATM   20  C   UNL     1      40.921  -8.352  11.373  1.00  0.00     0.032 A 
HETATM   21  C   UNL     1      40.792  -9.543  12.085  1.00  0.00     0.034 A 
HETATM   22  C   UNL     1      40.659 -10.735  11.366  1.00  0.00     0.032 A 
HETATM   23  C   UNL     1      40.591 -10.726   9.970  1.00  0.00     0.032 A 
BRANCH  21  24
HETATM   24  N   UNL     1      40.826  -9.655  13.485  1.00  0.00    -0.328 N 
HETATM   25  C   UNL     1      41.843  -9.671  14.393  1.00  0.00     0.218 C 
HETATM   26  C   UNL     1      43.254  -9.350  13.995  1.00  0.00     0.117 C 
HETATM   27  O   UNL     1      41.567  -9.910  15.573  1.00  0.00    -0.274 OA
HETATM   28  H   UNL     1      39.930  -9.720  13.953  1.00  0.00     0.169 HD
ENDBRANCH  21  24
ENDBRANCH  15  18
ENDBRANCH  13  14
ENDBRANCH  12  13
ENDBRANCH   1  12
BRANCH   2  29
HETATM   29  N   UNL     1      39.872 -14.246   4.036  1.00  0.00    -0.239 NA
HETATM   30  H   UNL     1      39.473 -13.637   3.320  1.00  0.00     0.143 HD
HETATM   31  H   UNL     1      39.073 -14.572   4.580  1.00  0.00     0.143 HD
ENDBRANCH   2  29
BRANCH   8  32
HETATM   32  C   UNL     1      43.702 -18.431   3.935  1.00  0.00    -0.006 A 
HETATM   33  C   UNL     1      43.227 -18.636   2.630  1.00  0.00     0.015 A 
HETATM   34  C   UNL     1      43.494 -19.828   1.949  1.00  0.00     0.024 A 
HETATM   35  C   UNL     1      44.235 -20.828   2.573  1.00  0.00     0.034 A 
HETATM   36 CL   UNL     1      44.560 -22.300   1.744  1.00  0.00    -0.084 Cl
HETATM   37  C   UNL     1      44.713 -20.644   3.869  1.00  0.00     0.024 A 
HETATM   38  C   UNL     1      44.448 -19.450   4.546  1.00  0.00     0.015 A 
ENDBRANCH   8  32
TORSDOF 7
ENDMDL
MODEL 4
REMARK VINA RESULT:      -8.5      2.850      6.121
REMARK  7 active torsions:
REMARK  status: ('A' for Active; 'I' for Inactive)
REMARK       I    between atoms: C_2  and  N_3 
REMARK    1  A    between atoms: N_3  and  C_4 
REMARK    2  A    between atoms: C_7  and  N_8 
REMARK       I    between atoms: N_8  and  C_9 
REMARK    3  A    between atoms: C_9  and  C_10 
REMARK    4  A    between atoms: C_10  and  S_11 
REMARK    5  A    between atoms: S_11  and  C_12 
REMARK    6  A    between atoms: N_13  and  N_14 
REMARK    7  A    between atoms: C_20  and  C_21 
ROOT
HETATM    1  C   UNL     1      40.490 -12.440   5.273  1.00  0.00     0.206 A 
HETATM    2  N   UNL     1      40.700 -13.713   4.803  1.00  0.00    -0.234 N 
HETATM    3  C   UNL     1      41.909 -14.097   5.345  1.00  0.00     0.197 A 
HETATM    4  C   UNL     1      42.567 -15.349   5.185  1.00  0.00     0.101 A 
HETATM    5  N   UNL     1      43.553 -15.756   6.036  1.00  0.00    -0.274 N 
HETATM    6  H   UNL     1      43.919 -15.255   6.839  1.00  0.00     0.189 HD
HETATM    7  N   UNL     1      44.055 -16.968   5.748  1.00  0.00    -0.174 NA
HETATM    8  C   UNL     1      43.410 -17.344   4.631  1.00  0.00     0.089 A 
HETATM    9  C   UNL     1      42.452 -16.360   4.258  1.00  0.00     0.069 A 
HETATM   10  N   UNL     1      42.383 -13.112   6.089  1.00  0.00    -0.125 NA
HETATM   11  N   UNL     1      41.503 -12.057   6.017  1.00  0.00    -0.121 NA
ENDROOT
BRANCH   1  12
HETATM   12  S   UNL     1      39.046 -11.541   4.957  1.00  0.00    -0.080 SA
BRANCH  12  13
HETATM   13  C   UNL     1      39.467 -10.750   3.376  1.00  0.00     0.185 C 
BRANCH  13  14
HETATM   14  C   UNL     1      39.068 -11.642   2.205  1.00  0.00     0.231 C 
HETATM   15  N   UNL     1      40.158 -12.154   1.522  1.00  0.00    -0.327 N 
HETATM   16  H   UNL     1      41.068 -11.776   1.781  1.00  0.00     0.169 HD
HETATM   17  O   UNL     1      37.886 -11.831   1.932  1.00  0.00    -0.272 OA
BRANCH  15  18
HETATM   18  C   UNL     1      40.157 -12.971   0.376  1.00  0.00     0.034 A 
HETATM   19  C   UNL     1      40.639 -14.277   0.341  1.00  0.00     0.032 A 
HETATM   20  C   UNL     1      40.561 -15.037  -0.836  1.00  0.00     0.032 A 
HETATM   21  C   UNL     1      40.002 -14.503  -1.995  1.00  0.00     0.034 A 
HETATM   22  C   UNL     1      39.566 -13.174  -1.971  1.00  0.00     0.032 A 
HETATM   23  C   UNL     1      39.629 -12.421  -0.794  1.00  0.00     0.032 A 
BRANCH  21  24
HETATM   24  N   UNL     1      39.876 -15.182  -3.218  1.00  0.00    -0.328 N 
HETATM   25  C   UNL     1      38.802 -15.638  -3.923  1.00  0.00     0.218 C 
HETATM   26  C   UNL     1      37.398 -15.275  -3.534  1.00  0.00     0.117 C 
HETATM   27  O   UNL     1      39.012 -16.322  -4.929  1.00  0.00    -0.274 OA
HETATM   28  H   UNL     1      40.737 -15.375  -3.717  1.00  0.00     0.169 HD
ENDBRANCH  21  24
ENDBRANCH  15  18
ENDBRANCH  13  14
ENDBRANCH  12  13
ENDBRANCH   1  12
BRANCH   2  29
HETATM   29  N   UNL     1      39.803 -14.505   3.997  1.00  0.00    -0.239 NA
HETATM   30  H   UNL     1      38.894 -14.584   4.457  1.00  0.00     0.143 HD
HETATM   31  H   UNL     1      40.148 -15.462   3.927  1.00  0.00     0.143 HD
ENDBRANCH   2  29
BRANCH   8  32
HETATM   32  C   UNL     1      43.722 -18.607   3.953  1.00  0.00    -0.006 A 
HETATM   33  C   UNL     1      43.241 -18.856   2.658  1.00  0.00     0.015 A 
HETATM   34  C   UNL     1      43.524 -20.061   2.008  1.00  0.00     0.024 A 
HETATM   35  C   UNL     1      44.287 -21.031   2.653  1.00  0.00     0.034 A 
HETATM   36 CL   UNL     1      44.630 -22.519   1.861  1.00  0.00    -0.084 Cl
HETATM   37  C   UNL     1      44.771 -20.803   3.939  1.00  0.00     0.024 A 
HETATM   38  C   UNL     1      44.491 -19.596   4.586  1.00  0.00     0.015 A 
ENDBRANCH   8  32
TORSDOF 7
ENDMDL
MODEL 5
REMARK VINA RESULT:      -8.5      3.141      3.844
REMARK  7 active torsions:
REMARK  status: ('A' for Active; 'I' for Inactive)
REMARK       I    between atoms: C_2  and  N_3 
REMARK    1  A    between atoms: N_3  and  C_4 
REMARK    2  A    between atoms: C_7  and  N_8 
REMARK       I    between atoms: N_8  and  C_9 
REMARK    3  A    between atoms: C_9  and  C_10 
REMARK    4  A    between atoms: C_10  and  S_11 
REMARK    5  A    between atoms: S_11  and  C_12 
REMARK    6  A    between atoms: N_13  and  N_14 
REMARK    7  A    between atoms: C_20  and  C_21 
ROOT
HETATM    1  C   UNL     1      40.921 -12.499   2.248  1.00  0.00     0.206 A 
HETATM    2  N   UNL     1      41.568 -13.562   2.829  1.00  0.00    -0.234 N 
HETATM    3  C   UNL     1      41.753 -14.468   1.805  1.00  0.00     0.197 A 
HETATM    4  C   UNL     1      42.402 -15.733   1.879  1.00  0.00     0.101 A 
HETATM    5  N   UNL     1      42.849 -16.377   0.763  1.00  0.00    -0.274 N 
HETATM    6  H   UNL     1      42.783 -16.060  -0.199  1.00  0.00     0.189 HD
HETATM    7  N   UNL     1      43.450 -17.552   1.014  1.00  0.00    -0.174 NA
HETATM    8  C   UNL     1      43.342 -17.708   2.345  1.00  0.00     0.089 A 
HETATM    9  C   UNL     1      42.705 -16.574   2.925  1.00  0.00     0.069 A 
HETATM   10  N   UNL     1      41.248 -13.970   0.689  1.00  0.00    -0.125 NA
HETATM   11  N   UNL     1      40.696 -12.743   0.977  1.00  0.00    -0.121 NA
ENDROOT
BRANCH   1  12
HETATM   12  S   UNL     1      40.546 -11.040   3.100  1.00  0.00    -0.080 SA
BRANCH  12  13
HETATM   13  C   UNL     1      39.099 -11.566   4.067  1.00  0.00     0.185 C 
BRANCH  13  14
HETATM   14  C   UNL     1      39.503 -11.902   5.498  1.00  0.00     0.231 C 
HETATM   15  N   UNL     1      39.954 -10.799   6.204  1.00  0.00    -0.327 N 
HETATM   16  H   UNL     1      40.094  -9.947   5.663  1.00  0.00     0.169 HD
HETATM   17  O   UNL     1      39.434 -13.054   5.918  1.00  0.00    -0.272 OA
BRANCH  15  18
HETATM   18  C   UNL     1      40.442 -10.755   7.524  1.00  0.00     0.034 A 
HETATM   19  C   UNL     1      39.641 -10.828   8.660  1.00  0.00     0.032 A 
HETATM   20  C   UNL     1      40.216 -10.818   9.941  1.00  0.00     0.032 A 
HETATM   21  C   UNL     1      41.597 -10.732  10.104  1.00  0.00     0.034 A 
HETATM   22  C   UNL     1      42.393 -10.607   8.961  1.00  0.00     0.032 A 
HETATM   23  C   UNL     1      41.824 -10.632   7.684  1.00  0.00     0.032 A 
BRANCH  21  24
HETATM   24  N   UNL     1      42.265 -10.719  11.339  1.00  0.00    -0.328 N 
HETATM   25  C   UNL     1      42.742  -9.716  12.129  1.00  0.00     0.218 C 
HETATM   26  C   UNL     1      42.422  -8.277  11.847  1.00  0.00     0.117 C 
HETATM   27  O   UNL     1      43.408 -10.023  13.123  1.00  0.00    -0.274 OA
HETATM   28  H   UNL     1      42.429 -11.622  11.772  1.00  0.00     0.169 HD
ENDBRANCH  21  24
ENDBRANCH  15  18
ENDBRANCH  13  14
ENDBRANCH  12  13
ENDBRANCH   1  12
BRANCH   2  29
HETATM   29  N   UNL     1      42.033 -13.663   4.191  1.00  0.00    -0.239 NA
HETATM   30  H   UNL     1      42.990 -13.313   4.262  1.00  0.00     0.143 HD
HETATM   31  H   UNL     1      42.089 -14.642   4.470  1.00  0.00     0.143 HD
ENDBRANCH   2  29
BRANCH   8  32
HETATM   32  C   UNL     1      43.831 -18.915   3.018  1.00  0.00    -0.006 A 
HETATM   33  C   UNL     1      44.147 -18.887   4.385  1.00  0.00     0.015 A 
HETATM   34  C   UNL     1      44.625 -20.030   5.034  1.00  0.00     0.024 A 
HETATM   35  C   UNL     1      44.796 -21.210   4.316  1.00  0.00     0.034 A 
HETATM   36 CL   UNL     1      45.392 -22.617   5.107  1.00  0.00    -0.084 Cl
HETATM   37  C   UNL     1      44.491 -21.257   2.958  1.00  0.00     0.024 A 
HETATM   38  C   UNL     1      44.009 -20.114   2.311  1.00  0.00     0.015 A 
ENDBRANCH   8  32
TORSDOF 7
ENDMDL
MODEL 6
REMARK VINA RESULT:      -8.5      4.622      5.605
REMARK  7 active torsions:
REMARK  status: ('A' for Active; 'I' for Inactive)
REMARK       I    between atoms: C_2  and  N_3 
REMARK    1  A    between atoms: N_3  and  C_4 
REMARK    2  A    between atoms: C_7  and  N_8 
REMARK       I    between atoms: N_8  and  C_9 
REMARK    3  A    between atoms: C_9  and  C_10 
REMARK    4  A    between atoms: C_10  and  S_11 
REMARK    5  A    between atoms: S_11  and  C_12 
REMARK    6  A    between atoms: N_13  and  N_14 
REMARK    7  A    between atoms: C_20  and  C_21 
ROOT
HETATM    1  C   UNL     1      41.608 -12.088   4.464  1.00  0.00     0.206 A 
HETATM    2  N   UNL     1      42.156 -13.304   4.792  1.00  0.00    -0.234 N 
HETATM    3  C   UNL     1      42.338 -13.949   3.587  1.00  0.00     0.197 A 
HETATM    4  C   UNL     1      42.902 -15.239   3.375  1.00  0.00     0.101 A 
HETATM    5  N   UNL     1      43.368 -15.627   2.153  1.00  0.00    -0.274 N 
HETATM    6  H   UNL     1      43.373 -15.085   1.295  1.00  0.00     0.189 HD
HETATM    7  N   UNL     1      43.880 -16.869   2.133  1.00  0.00    -0.174 NA
HETATM    8  C   UNL     1      43.691 -17.331   3.381  1.00  0.00     0.089 A 
HETATM    9  C   UNL     1      43.097 -16.326   4.196  1.00  0.00     0.069 A 
HETATM   10  N   UNL     1      41.926 -13.162   2.607  1.00  0.00    -0.125 NA
HETATM   11  N   UNL     1      41.437 -12.003   3.164  1.00  0.00    -0.121 NA
ENDROOT
BRANCH   1  12
HETATM   12  S   UNL     1      41.279 -10.852   5.629  1.00  0.00    -0.080 SA
BRANCH  12  13
HETATM   13  C   UNL     1      39.829 -11.551   6.475  1.00  0.00     0.185 C 
BRANCH  13  14
HETATM   14  C   UNL     1      39.554 -10.804   7.775  1.00  0.00     0.231 C 
HETATM   15  N   UNL     1      40.501 -11.057   8.753  1.00  0.00    -0.327 N 
HETATM   16  H   UNL     1      41.170 -11.797   8.549  1.00  0.00     0.169 HD
HETATM   17  O   UNL     1      38.566 -10.083   7.891  1.00  0.00    -0.272 OA
BRANCH  15  18
HETATM   18  C   UNL     1      40.533 -10.573  10.075  1.00  0.00     0.034 A 
HETATM   19  C   UNL     1      40.234 -11.338  11.199  1.00  0.00     0.032 A 
HETATM   20  C   UNL     1      40.332 -10.785  12.486  1.00  0.00     0.032 A 
HETATM   21  C   UNL     1      40.727  -9.461  12.667  1.00  0.00     0.034 A 
HETATM   22  C   UNL     1      40.976  -8.682  11.533  1.00  0.00     0.032 A 
HETATM   23  C   UNL     1      40.894  -9.235  10.251  1.00  0.00     0.032 A 
BRANCH  21  24
HETATM   24  N   UNL     1      40.858  -8.821  13.909  1.00  0.00    -0.328 N 
HETATM   25  C   UNL     1      41.899  -8.678  14.778  1.00  0.00     0.218 C 
HETATM   26  C   UNL     1      43.294  -9.085  14.403  1.00  0.00     0.117 C 
HETATM   27  O   UNL     1      41.677  -8.154  15.874  1.00  0.00    -0.274 OA
HETATM   28  H   UNL     1      40.037  -8.338  14.256  1.00  0.00     0.169 HD
ENDBRANCH  21  24
ENDBRANCH  15  18
ENDBRANCH  13  14
ENDBRANCH  12  13
ENDBRANCH   1  12
BRANCH   2  29
HETATM   29  N   UNL     1      42.541 -13.762   6.105  1.00  0.00    -0.239 NA
HETATM   30  H   UNL     1      43.039 -13.022   6.603  1.00  0.00     0.143 HD
HETATM   31  H   UNL     1      43.212 -14.526   6.026  1.00  0.00     0.143 HD
ENDBRANCH   2  29
BRANCH   8  32
HETATM   32  C   UNL     1      44.068 -18.697   3.759  1.00  0.00    -0.006 A 
HETATM   33  C   UNL     1      44.185 -19.698   2.781  1.00  0.00     0.015 A 
HETATM   34  C   UNL     1      44.533 -21.005   3.133  1.00  0.00     0.024 A 
HETATM   35  C   UNL     1      44.761 -21.324   4.469  1.00  0.00     0.034 A 
HETATM   36 CL   UNL     1      45.181 -22.933   4.908  1.00  0.00    -0.084 Cl
HETATM   37  C   UNL     1      44.648 -20.344   5.453  1.00  0.00     0.024 A 
HETATM   38  C   UNL     1      44.304 -19.036   5.100  1.00  0.00     0.015 A 
ENDBRANCH   8  32
TORSDOF 7
ENDMDL
MODEL 7
REMARK VINA RESULT:      -8.3      3.305      6.275
REMARK  7 active torsions:
REMARK  status: ('A' for Active; 'I' for Inactive)
REMARK       I    between atoms: C_2  and  N_3 
REMARK    1  A    between atoms: N_3  and  C_4 
REMARK    2  A    between atoms: C_7  and  N_8 
REMARK       I    between atoms: N_8  and  C_9 
REMARK    3  A    between atoms: C_9  and  C_10 
REMARK    4  A    between atoms: C_10  and  S_11 
REMARK    5  A    between atoms: S_11  and  C_12 
REMARK    6  A    between atoms: N_13  and  N_14 
REMARK    7  A    between atoms: C_20  and  C_21 
ROOT
HETATM    1  C   UNL     1      39.636 -11.173   5.511  1.00  0.00     0.206 A 
HETATM    2  N   UNL     1      40.255 -12.218   4.871  1.00  0.00    -0.234 N 
HETATM    3  C   UNL     1      40.091 -13.299   5.712  1.00  0.00     0.197 A 
HETATM    4  C   UNL     1      40.531 -14.635   5.497  1.00  0.00     0.101 A 
HETATM    5  N   UNL     1      40.011 -15.684   6.197  1.00  0.00    -0.274 N 
HETATM    6  H   UNL     1      39.293 -15.651   6.914  1.00  0.00     0.189 HD
HETATM    7  N   UNL     1      40.528 -16.876   5.858  1.00  0.00    -0.174 NA
HETATM    8  C   UNL     1      41.463 -16.589   4.937  1.00  0.00     0.089 A 
HETATM    9  C   UNL     1      41.480 -15.190   4.669  1.00  0.00     0.069 A 
HETATM   10  N   UNL     1      39.415 -12.916   6.782  1.00  0.00    -0.125 NA
HETATM   11  N   UNL     1      39.157 -11.569   6.668  1.00  0.00    -0.121 NA
ENDROOT
BRANCH   1  12
HETATM   12  S   UNL     1      39.476  -9.597   4.814  1.00  0.00    -0.080 SA
BRANCH  12  13
HETATM   13  C   UNL     1      37.933  -9.791   3.871  1.00  0.00     0.185 C 
BRANCH  13  14
HETATM   14  C   UNL     1      38.227 -10.255   2.449  1.00  0.00     0.231 C 
HETATM   15  N   UNL     1      37.822 -11.559   2.214  1.00  0.00    -0.327 N 
HETATM   16  H   UNL     1      37.517 -12.087   3.029  1.00  0.00     0.169 HD
HETATM   17  O   UNL     1      38.786  -9.512   1.647  1.00  0.00    -0.272 OA
BRANCH  15  18
HETATM   18  C   UNL     1      37.976 -12.314   1.036  1.00  0.00     0.034 A 
HETATM   19  C   UNL     1      37.348 -12.023  -0.172  1.00  0.00     0.032 A 
HETATM   20  C   UNL     1      37.590 -12.808  -1.311  1.00  0.00     0.032 A 
HETATM   21  C   UNL     1      38.460 -13.894  -1.258  1.00  0.00     0.034 A 
HETATM   22  C   UNL     1      39.049 -14.214  -0.030  1.00  0.00     0.032 A 
HETATM   23  C   UNL     1      38.821 -13.425   1.102  1.00  0.00     0.032 A 
BRANCH  21  24
HETATM   24  N   UNL     1      38.770 -14.734  -2.339  1.00  0.00    -0.328 N 
HETATM   25  C   UNL     1      39.686 -14.657  -3.346  1.00  0.00     0.218 C 
HETATM   26  C   UNL     1      40.764 -13.612  -3.345  1.00  0.00     0.117 C 
HETATM   27  O   UNL     1      39.641 -15.505  -4.243  1.00  0.00    -0.274 OA
HETATM   28  H   UNL     1      38.236 -15.593  -2.410  1.00  0.00     0.169 HD
ENDBRANCH  21  24
ENDBRANCH  15  18
ENDBRANCH  13  14
ENDBRANCH  12  13
ENDBRANCH   1  12
BRANCH   2  29
HETATM   29  N   UNL     1      40.862 -12.204   3.562  1.00  0.00    -0.239 NA
HETATM   30  H   UNL     1      40.201 -12.551   2.865  1.00  0.00     0.143 HD
HETATM   31  H   UNL     1      41.645 -12.856   3.532  1.00  0.00     0.143 HD
ENDBRANCH   2  29
BRANCH   8  32
HETATM   32  C   UNL     1      42.309 -17.633   4.350  1.00  0.00    -0.006 A 
HETATM   33  C   UNL     1      43.181 -18.379   5.158  1.00  0.00     0.015 A 
HETATM   34  C   UNL     1      43.999 -19.369   4.605  1.00  0.00     0.024 A 
HETATM   35  C   UNL     1      43.955 -19.616   3.236  1.00  0.00     0.034 A 
HETATM   36 CL   UNL     1      44.966 -20.827   2.550  1.00  0.00    -0.084 Cl
HETATM   37  C   UNL     1      43.098 -18.885   2.417  1.00  0.00     0.024 A 
HETATM   38  C   UNL     1      42.277 -17.898   2.972  1.00  0.00     0.015 A 
ENDBRANCH   8  32
TORSDOF 7
ENDMDL
MODEL 8
REMARK VINA RESULT:      -8.3      5.477      9.737
REMARK  7 active torsions:
REMARK  status: ('A' for Active; 'I' for Inactive)
REMARK       I    between atoms: C_2  and  N_3 
REMARK    1  A    between atoms: N_3  and  C_4 
REMARK    2  A    between atoms: C_7  and  N_8 
REMARK       I    between atoms: N_8  and  C_9 
REMARK    3  A    between atoms: C_9  and  C_10 
REMARK    4  A    between atoms: C_10  and  S_11 
REMARK    5  A    between atoms: S_11  and  C_12 
REMARK    6  A    between atoms: N_13  and  N_14 
REMARK    7  A    between atoms: C_20  and  C_21 
ROOT
HETATM    1  C   UNL     1      40.689 -12.007   4.929  1.00  0.00     0.206 A 
HETATM    2  N   UNL     1      41.083 -11.881   6.238  1.00  0.00    -0.234 N 
HETATM    3  C   UNL     1      40.092 -11.133   6.838  1.00  0.00     0.197 A 
HETATM    4  C   UNL     1      40.013 -10.742   8.204  1.00  0.00     0.101 A 
HETATM    5  N   UNL     1      38.841 -10.329   8.766  1.00  0.00    -0.274 N 
HETATM    6  H   UNL     1      37.935 -10.252   8.315  1.00  0.00     0.189 HD
HETATM    7  N   UNL     1      38.941 -10.012  10.068  1.00  0.00    -0.174 NA
HETATM    8  C   UNL     1      40.245 -10.172  10.354  1.00  0.00     0.089 A 
HETATM    9  C   UNL     1      40.947 -10.650   9.211  1.00  0.00     0.069 A 
HETATM   10  N   UNL     1      39.169 -10.836   5.939  1.00  0.00    -0.125 NA
HETATM   11  N   UNL     1      39.563 -11.361   4.729  1.00  0.00    -0.121 NA
ENDROOT
BRANCH   1  12
HETATM   12  S   UNL     1      41.553 -12.954   3.767  1.00  0.00    -0.080 SA
BRANCH  12  13
HETATM   13  C   UNL     1      40.189 -13.849   2.965  1.00  0.00     0.185 C 
BRANCH  13  14
HETATM   14  C   UNL     1      40.586 -15.294   2.683  1.00  0.00     0.231 C 
HETATM   15  N   UNL     1      41.801 -15.639   3.250  1.00  0.00    -0.327 N 
HETATM   16  H   UNL     1      42.340 -14.875   3.655  1.00  0.00     0.169 HD
HETATM   17  O   UNL     1      39.870 -16.021   1.999  1.00  0.00    -0.272 OA
BRANCH  15  18
HETATM   18  C   UNL     1      42.484 -16.866   3.155  1.00  0.00     0.034 A 
HETATM   19  C   UNL     1      43.242 -17.261   2.056  1.00  0.00     0.032 A 
HETATM   20  C   UNL     1      43.926 -18.487   2.062  1.00  0.00     0.032 A 
HETATM   21  C   UNL     1      43.860 -19.336   3.165  1.00  0.00     0.034 A 
HETATM   22  C   UNL     1      43.055 -18.959   4.245  1.00  0.00     0.032 A 
HETATM   23  C   UNL     1      42.386 -17.732   4.247  1.00  0.00     0.032 A 
BRANCH  21  24
HETATM   24  N   UNL     1      44.509 -20.577   3.268  1.00  0.00    -0.328 N 
HETATM   25  C   UNL     1      44.329 -21.777   2.646  1.00  0.00     0.218 C 
HETATM   26  C   UNL     1      43.404 -21.920   1.473  1.00  0.00     0.117 C 
HETATM   27  O   UNL     1      44.988 -22.743   3.041  1.00  0.00    -0.274 OA
HETATM   28  H   UNL     1      45.288 -20.624   3.915  1.00  0.00     0.169 HD
ENDBRANCH  21  24
ENDBRANCH  15  18
ENDBRANCH  13  14
ENDBRANCH  12  13
ENDBRANCH   1  12
BRANCH   2  29
HETATM   29  N   UNL     1      42.235 -12.483   6.864  1.00  0.00    -0.239 NA
HETATM   30  H   UNL     1      41.939 -13.178   7.551  1.00  0.00     0.143 HD
HETATM   31  H   UNL     1      42.747 -11.782   7.401  1.00  0.00     0.143 HD
ENDBRANCH   2  29
BRANCH   8  32
HETATM   32  C   UNL     1      40.782  -9.865  11.683  1.00  0.00    -0.006 A 
HETATM   33  C   UNL     1      40.839 -10.857  12.674  1.00  0.00     0.015 A 
HETATM   34  C   UNL     1      41.340 -10.571  13.947  1.00  0.00     0.024 A 
HETATM   35  C   UNL     1      41.782  -9.284  14.242  1.00  0.00     0.034 A 
HETATM   36 CL   UNL     1      42.391  -8.924  15.810  1.00  0.00    -0.084 Cl
HETATM   37  C   UNL     1      41.731  -8.285  13.273  1.00  0.00     0.024 A 
HETATM   38  C   UNL     1      41.234  -8.574  11.999  1.00  0.00     0.015 A 
ENDBRANCH   8  32
TORSDOF 7
ENDMDL
MODEL 9
REMARK VINA RESULT:      -8.1      5.827      9.437
REMARK  7 active torsions:
REMARK  status: ('A' for Active; 'I' for Inactive)
REMARK       I    between atoms: C_2  and  N_3 
REMARK    1  A    between atoms: N_3  and  C_4 
REMARK    2  A    between atoms: C_7  and  N_8 
REMARK       I    between atoms: N_8  and  C_9 
REMARK    3  A    between atoms: C_9  and  C_10 
REMARK    4  A    between atoms: C_10  and  S_11 
REMARK    5  A    between atoms: S_11  and  C_12 
REMARK    6  A    between atoms: N_13  and  N_14 
REMARK    7  A    between atoms: C_20  and  C_21 
ROOT
HETATM    1  C   UNL     1      41.213 -13.308  -0.643  1.00  0.00     0.206 A 
HETATM    2  N   UNL     1      40.098 -12.873  -1.314  1.00  0.00    -0.234 N 
HETATM    3  C   UNL     1      39.656 -13.972  -2.021  1.00  0.00     0.197 A 
HETATM    4  C   UNL     1      38.510 -14.055  -2.861  1.00  0.00     0.101 A 
HETATM    5  N   UNL     1      37.963 -15.254  -3.213  1.00  0.00    -0.274 N 
HETATM    6  H   UNL     1      38.278 -16.179  -2.940  1.00  0.00     0.189 HD
HETATM    7  N   UNL     1      36.878 -15.149  -3.998  1.00  0.00    -0.174 NA
HETATM    8  C   UNL     1      36.744 -13.829  -4.214  1.00  0.00     0.089 A 
HETATM    9  C   UNL     1      37.741 -13.108  -3.498  1.00  0.00     0.069 A 
HETATM   10  N   UNL     1      40.460 -14.994  -1.779  1.00  0.00    -0.125 NA
HETATM   11  N   UNL     1      41.459 -14.565  -0.936  1.00  0.00    -0.121 NA
ENDROOT
BRANCH   1  12
HETATM   12  S   UNL     1      42.090 -12.320   0.475  1.00  0.00    -0.080 SA
BRANCH  12  13
HETATM   13  C   UNL     1      41.587 -13.059   2.059  1.00  0.00     0.185 C 
BRANCH  13  14
HETATM   14  C   UNL     1      42.556 -14.161   2.470  1.00  0.00     0.231 C 
HETATM   15  N   UNL     1      42.073 -15.431   2.203  1.00  0.00    -0.327 N 
HETATM   16  H   UNL     1      41.101 -15.487   1.905  1.00  0.00     0.169 HD
HETATM   17  O   UNL     1      43.631 -13.889   3.000  1.00  0.00    -0.272 OA
BRANCH  15  18
HETATM   18  C   UNL     1      42.681 -16.668   2.489  1.00  0.00     0.034 A 
HETATM   19  C   UNL     1      42.635 -17.298   3.730  1.00  0.00     0.032 A 
HETATM   20  C   UNL     1      43.235 -18.553   3.917  1.00  0.00     0.032 A 
HETATM   21  C   UNL     1      43.892 -19.194   2.869  1.00  0.00     0.034 A 
HETATM   22  C   UNL     1      43.981 -18.534   1.639  1.00  0.00     0.032 A 
HETATM   23  C   UNL     1      43.370 -17.291   1.446  1.00  0.00     0.032 A 
BRANCH  21  24
HETATM   24  N   UNL     1      44.518 -20.448   2.955  1.00  0.00    -0.328 N 
HETATM   25  C   UNL     1      44.204 -21.681   2.466  1.00  0.00     0.218 C 
HETATM   26  C   UNL     1      43.087 -21.872   1.481  1.00  0.00     0.117 C 
HETATM   27  O   UNL     1      44.897 -22.642   2.816  1.00  0.00    -0.274 OA
HETATM   28  H   UNL     1      45.395 -20.479   3.461  1.00  0.00     0.169 HD
ENDBRANCH  21  24
ENDBRANCH  15  18
ENDBRANCH  13  14
ENDBRANCH  12  13
ENDBRANCH   1  12
BRANCH   2  29
HETATM   29  N   UNL     1      39.475 -11.575  -1.223  1.00  0.00    -0.239 NA
HETATM   30  H   UNL     1      40.169 -10.841  -1.373  1.00  0.00     0.143 HD
HETATM   31  H   UNL     1      39.126 -11.420  -0.277  1.00  0.00     0.143 HD
ENDBRANCH   2  29
BRANCH   8  32
HETATM   32  C   UNL     1      35.693 -13.297  -5.086  1.00  0.00    -0.006 A 
HETATM   33  C   UNL     1      35.705 -13.572  -6.463  1.00  0.00     0.015 A 
HETATM   34  C   UNL     1      34.713 -13.060  -7.305  1.00  0.00     0.024 A 
HETATM   35  C   UNL     1      33.703 -12.261  -6.776  1.00  0.00     0.034 A 
HETATM   36 CL   UNL     1      32.485 -11.621  -7.808  1.00  0.00    -0.084 Cl
HETATM   37  C   UNL     1      33.676 -11.975  -5.413  1.00  0.00     0.024 A 
HETATM   38  C   UNL     1      34.666 -12.491  -4.571  1.00  0.00     0.015 A 
ENDBRANCH   8  32
TORSDOF 7
ENDMDL
MODEL 10
REMARK VINA RESULT:      -8.1      4.959      8.259
REMARK  7 active torsions:
REMARK  status: ('A' for Active; 'I' for Inactive)
REMARK       I    between atoms: C_2  and  N_3 
REMARK    1  A    between atoms: N_3  and  C_4 
REMARK    2  A    between atoms: C_7  and  N_8 
REMARK       I    between atoms: N_8  and  C_9 
REMARK    3  A    between atoms: C_9  and  C_10 
REMARK    4  A    between atoms: C_10  and  S_11 
REMARK    5  A    between atoms: S_11  and  C_12 
REMARK    6  A    between atoms: N_13  and  N_14 
REMARK    7  A    between atoms: C_20  and  C_21 
ROOT
HETATM    1  C   UNL     1      40.121 -14.375   3.405  1.00  0.00     0.206 A 
HETATM    2  N   UNL     1      40.194 -13.530   2.325  1.00  0.00    -0.234 N 
HETATM    3  C   UNL     1      40.260 -14.361   1.226  1.00  0.00     0.197 A 
HETATM    4  C   UNL     1      40.325 -13.979  -0.143  1.00  0.00     0.101 A 
HETATM    5  N   UNL     1      40.022 -14.851  -1.147  1.00  0.00    -0.274 N 
HETATM    6  H   UNL     1      39.731 -15.818  -1.056  1.00  0.00     0.189 HD
HETATM    7  N   UNL     1      40.120 -14.321  -2.378  1.00  0.00    -0.174 NA
HETATM    8  C   UNL     1      40.559 -13.068  -2.171  1.00  0.00     0.089 A 
HETATM    9  C   UNL     1      40.680 -12.810  -0.776  1.00  0.00     0.069 A 
HETATM   10  N   UNL     1      40.226 -15.620   1.632  1.00  0.00    -0.125 NA
HETATM   11  N   UNL     1      40.170 -15.626   3.007  1.00  0.00    -0.121 NA
ENDROOT
BRANCH   1  12
HETATM   12  S   UNL     1      39.919 -13.818   5.031  1.00  0.00    -0.080 SA
BRANCH  12  13
HETATM   13  C   UNL     1      41.600 -14.043   5.686  1.00  0.00     0.185 C 
BRANCH  13  14
HETATM   14  C   UNL     1      41.953 -15.524   5.761  1.00  0.00     0.231 C 
HETATM   15  N   UNL     1      42.948 -15.887   4.869  1.00  0.00    -0.327 N 
HETATM   16  H   UNL     1      43.220 -15.179   4.189  1.00  0.00     0.169 HD
HETATM   17  O   UNL     1      41.366 -16.273   6.538  1.00  0.00    -0.272 OA
BRANCH  15  18
HETATM   18  C   UNL     1      43.484 -17.169   4.643  1.00  0.00     0.034 A 
HETATM   19  C   UNL     1      44.174 -17.912   5.596  1.00  0.00     0.032 A 
HETATM   20  C   UNL     1      44.640 -19.202   5.298  1.00  0.00     0.032 A 
HETATM   21  C   UNL     1      44.425 -19.766   4.042  1.00  0.00     0.034 A 
HETATM   22  C   UNL     1      43.776 -18.997   3.071  1.00  0.00     0.032 A 
HETATM   23  C   UNL     1      43.298 -17.718   3.371  1.00  0.00     0.032 A 
BRANCH  21  24
HETATM   24  N   UNL     1      44.846 -21.047   3.649  1.00  0.00    -0.328 N 
HETATM   25  C   UNL     1      44.391 -21.933   2.719  1.00  0.00     0.218 C 
HETATM   26  C   UNL     1      43.341 -21.546   1.718  1.00  0.00     0.117 C 
HETATM   27  O   UNL     1      44.901 -23.056   2.683  1.00  0.00    -0.274 OA
HETATM   28  H   UNL     1      45.666 -21.415   4.119  1.00  0.00     0.169 HD
ENDBRANCH  21  24
ENDBRANCH  15  18
ENDBRANCH  13  14
ENDBRANCH  12  13
ENDBRANCH   1  12
BRANCH   2  29
HETATM   29  N   UNL     1      40.122 -12.089   2.338  1.00  0.00    -0.239 NA
HETATM   30  H   UNL     1      41.062 -11.691   2.380  1.00  0.00     0.143 HD
HETATM   31  H   UNL     1      39.661 -11.769   3.190  1.00  0.00     0.143 HD
ENDBRANCH   2  29
BRANCH   8  32
HETATM   32  C   UNL     1      40.854 -12.164  -3.288  1.00  0.00    -0.006 A 
HETATM   33  C   UNL     1      42.180 -11.947  -3.695  1.00  0.00     0.015 A 
HETATM   34  C   UNL     1      42.472 -11.079  -4.751  1.00  0.00     0.024 A 
HETATM   35  C   UNL     1      41.438 -10.415  -5.406  1.00  0.00     0.034 A 
HETATM   36 CL   UNL     1      41.793  -9.340  -6.700  1.00  0.00    -0.084 Cl
HETATM   37  C   UNL     1      40.116 -10.616  -5.015  1.00  0.00     0.024 A 
HETATM   38  C   UNL     1      39.825 -11.487  -3.961  1.00  0.00     0.015 A 
ENDBRANCH   8  32
TORSDOF 7
ENDMDL
