MODEL 1
REMARK VINA RESULT:      -9.8      0.000      0.000
REMARK  6 active torsions:
REMARK  status: ('A' for Active; 'I' for Inactive)
REMARK    1  A    between atoms: C_2  and  N_3 
REMARK       I    between atoms: N_3  and  C_4 
REMARK    2  A    between atoms: C_4  and  C_5 
REMARK    3  A    between atoms: C_13  and  N_14 
REMARK       I    between atoms: N_14  and  C_15 
REMARK    4  A    between atoms: C_15  and  C_16 
REMARK    5  A    between atoms: C_24  and  C_25 
REMARK       I    between atoms: C_25  and  N_26 
REMARK    6  A    between atoms: N_26  and  C_27 
ROOT
HETATM    1  C   UNL     1      44.567 -15.118   7.197  1.00  0.00     0.046 A 
HETATM    2  C   UNL     1      44.117 -13.803   7.355  1.00  0.00     0.037 A 
HETATM    3  C   UNL     1      43.201 -13.274   6.435  1.00  0.00     0.059 A 
HETATM    4  C   UNL     1      42.727 -14.037   5.368  1.00  0.00     0.037 A 
HETATM    5  C   UNL     1      43.178 -15.353   5.232  1.00  0.00     0.046 A 
HETATM    6  C   UNL     1      44.096 -15.908   6.140  1.00  0.00     0.036 A 
ENDROOT
BRANCH   6   7
HETATM    7  C   UNL     1      44.501 -17.337   5.917  1.00  0.00     0.256 C 
HETATM    8  N   UNL     1      43.866 -18.039   4.911  1.00  0.00    -0.317 N 
HETATM    9  H   UNL     1      43.133 -17.594   4.365  1.00  0.00     0.169 HD
HETATM   10  O   UNL     1      45.383 -17.808   6.633  1.00  0.00    -0.267 OA
BRANCH   8  11
HETATM   11  C   UNL     1      44.110 -19.338   4.506  1.00  0.00     0.119 A 
HETATM   12  C   UNL     1      44.032 -19.589   3.028  1.00  0.00     0.277 A 
HETATM   13  O   UNL     1      43.761 -18.674   2.253  1.00  0.00    -0.266 OA
HETATM   14  N   UNL     1      44.276 -20.864   2.601  1.00  0.00    -0.274 N 
HETATM   15  C   UNL     1      44.590 -21.915   3.411  1.00  0.00     0.327 A 
HETATM   16  H   UNL     1      44.229 -21.042   1.610  1.00  0.00     0.173 HD
HETATM   17  O   UNL     1      44.811 -23.038   2.973  1.00  0.00    -0.247 OA
HETATM   18  N   UNL     1      44.647 -21.632   4.747  1.00  0.00    -0.316 N 
HETATM   19  C   UNL     1      44.414 -20.390   5.278  1.00  0.00     0.128 A 
HETATM   20  H   UNL     1      44.881 -22.409   5.356  1.00  0.00     0.170 HD
ENDBRANCH   8  11
ENDBRANCH   6   7
BRANCH   2  21
HETATM   21  N   UNL     1      44.522 -12.950   8.405  1.00  0.00    -0.327 N 
HETATM   22  C   UNL     1      43.990 -11.720   8.756  1.00  0.00     0.226 C 
HETATM   23  O   UNL     1      43.061 -11.161   8.183  1.00  0.00    -0.273 OA
HETATM   24  H   UNL     1      45.316 -13.274   8.947  1.00  0.00     0.169 HD
BRANCH  22  25
HETATM   25  C   UNL     1      44.721 -11.078   9.948  1.00  0.00     0.078 C 
HETATM   26  C   UNL     1      43.899  -9.952  10.597  1.00  0.00     0.014 C 
HETATM   27  C   UNL     1      42.758 -10.459  11.481  1.00  0.00     0.001 C 
HETATM   28  C   UNL     1      43.240 -11.480  12.504  1.00  0.00     0.000 C 
HETATM   29  C   UNL     1      43.990 -12.627  11.836  1.00  0.00     0.001 C 
HETATM   30  C   UNL     1      45.156 -12.115  10.995  1.00  0.00     0.014 C 
ENDBRANCH  22  25
ENDBRANCH   2  21
BRANCH   4  31
HETATM   31  N   UNL     1      41.797 -13.571   4.414  1.00  0.00    -0.327 N 
HETATM   32  C   UNL     1      42.050 -13.170   3.110  1.00  0.00     0.226 C 
HETATM   33  O   UNL     1      43.140 -13.220   2.550  1.00  0.00    -0.273 OA
HETATM   34  H   UNL     1      40.829 -13.556   4.713  1.00  0.00     0.169 HD
BRANCH  32  35
HETATM   35  C   UNL     1      40.789 -12.653   2.401  1.00  0.00     0.078 C 
HETATM   36  C   UNL     1      40.976 -12.597   0.877  1.00  0.00     0.014 C 
HETATM   37  C   UNL     1      40.925 -13.979   0.230  1.00  0.00     0.001 C 
HETATM   38  C   UNL     1      39.636 -14.712   0.581  1.00  0.00     0.000 C 
HETATM   39  C   UNL     1      39.445 -14.818   2.089  1.00  0.00     0.001 C 
HETATM   40  C   UNL     1      39.533 -13.455   2.776  1.00  0.00     0.014 C 
ENDBRANCH  32  35
ENDBRANCH   4  31
TORSDOF 6
ENDMDL
MODEL 2
REMARK VINA RESULT:      -9.6      0.404      6.886
REMARK  6 active torsions:
REMARK  status: ('A' for Active; 'I' for Inactive)
REMARK    1  A    between atoms: C_2  and  N_3 
REMARK       I    between atoms: N_3  and  C_4 
REMARK    2  A    between atoms: C_4  and  C_5 
REMARK    3  A    between atoms: C_13  and  N_14 
REMARK       I    between atoms: N_14  and  C_15 
REMARK    4  A    between atoms: C_15  and  C_16 
REMARK    5  A    between atoms: C_24  and  C_25 
REMARK       I    between atoms: C_25  and  N_26 
REMARK    6  A    between atoms: N_26  and  C_27 
ROOT
HETATM    1  C   UNL     1      42.949 -15.369   5.029  1.00  0.00     0.046 A 
HETATM    2  C   UNL     1      42.561 -14.033   5.171  1.00  0.00     0.037 A 
HETATM    3  C   UNL     1      43.056 -13.282   6.247  1.00  0.00     0.059 A 
HETATM    4  C   UNL     1      43.931 -13.844   7.176  1.00  0.00     0.037 A 
HETATM    5  C   UNL     1      44.318 -15.178   7.013  1.00  0.00     0.046 A 
HETATM    6  C   UNL     1      43.837 -15.952   5.942  1.00  0.00     0.036 A 
ENDROOT
BRANCH   6   7
HETATM    7  C   UNL     1      44.330 -17.367   5.845  1.00  0.00     0.256 C 
HETATM    8  N   UNL     1      43.731 -18.198   4.919  1.00  0.00    -0.317 N 
HETATM    9  H   UNL     1      42.965 -17.854   4.346  1.00  0.00     0.169 HD
HETATM   10  O   UNL     1      45.248 -17.712   6.586  1.00  0.00    -0.267 OA
BRANCH   8  11
HETATM   11  C   UNL     1      44.053 -19.512   4.631  1.00  0.00     0.119 A 
HETATM   12  C   UNL     1      44.075 -19.878   3.176  1.00  0.00     0.277 A 
HETATM   13  O   UNL     1      43.812 -19.038   2.318  1.00  0.00    -0.266 OA
HETATM   14  N   UNL     1      44.397 -21.168   2.864  1.00  0.00    -0.274 N 
HETATM   15  C   UNL     1      44.707 -22.139   3.772  1.00  0.00     0.327 A 
HETATM   16  H   UNL     1      44.418 -21.423   1.890  1.00  0.00     0.173 HD
HETATM   17  O   UNL     1      45.000 -23.280   3.436  1.00  0.00    -0.247 OA
HETATM   18  N   UNL     1      44.672 -21.753   5.083  1.00  0.00    -0.316 N 
HETATM   19  C   UNL     1      44.355 -20.486   5.500  1.00  0.00     0.128 A 
HETATM   20  H   UNL     1      44.901 -22.470   5.763  1.00  0.00     0.170 HD
ENDBRANCH   8  11
ENDBRANCH   6   7
BRANCH   2  21
HETATM   21  N   UNL     1      41.691 -13.365   4.281  1.00  0.00    -0.327 N 
HETATM   22  C   UNL     1      41.944 -12.976   2.975  1.00  0.00     0.226 C 
HETATM   23  O   UNL     1      42.999 -13.151   2.376  1.00  0.00    -0.273 OA
HETATM   24  H   UNL     1      40.783 -13.121   4.660  1.00  0.00     0.169 HD
BRANCH  22  25
HETATM   25  C   UNL     1      40.751 -12.246   2.335  1.00  0.00     0.078 C 
HETATM   26  C   UNL     1      40.881 -12.147   0.805  1.00  0.00     0.014 C 
HETATM   27  C   UNL     1      40.559 -13.454   0.079  1.00  0.00     0.001 C 
HETATM   28  C   UNL     1      39.212 -14.026   0.505  1.00  0.00     0.000 C 
HETATM   29  C   UNL     1      39.127 -14.185   2.018  1.00  0.00     0.001 C 
HETATM   30  C   UNL     1      39.402 -12.864   2.734  1.00  0.00     0.014 C 
ENDBRANCH  22  25
ENDBRANCH   2  21
BRANCH   4  31
HETATM   31  N   UNL     1      44.475 -13.144   8.274  1.00  0.00    -0.327 N 
HETATM   32  C   UNL     1      44.128 -11.880   8.729  1.00  0.00     0.226 C 
HETATM   33  O   UNL     1      43.226 -11.184   8.275  1.00  0.00    -0.273 OA
HETATM   34  H   UNL     1      45.183 -13.639   8.805  1.00  0.00     0.169 HD
BRANCH  32  35
HETATM   35  C   UNL     1      44.999 -11.422   9.909  1.00  0.00     0.078 C 
HETATM   36  C   UNL     1      44.530 -10.072  10.472  1.00  0.00     0.014 C 
HETATM   37  C   UNL     1      43.253 -10.195  11.300  1.00  0.00     0.001 C 
HETATM   38  C   UNL     1      43.412 -11.212  12.423  1.00  0.00     0.000 C 
HETATM   39  C   UNL     1      43.838 -12.574  11.888  1.00  0.00     0.001 C 
HETATM   40  C   UNL     1      45.092 -12.483  11.018  1.00  0.00     0.014 C 
ENDBRANCH  32  35
ENDBRANCH   4  31
TORSDOF 6
ENDMDL
MODEL 3
REMARK VINA RESULT:      -9.4      3.142      6.518
REMARK  6 active torsions:
REMARK  status: ('A' for Active; 'I' for Inactive)
REMARK    1  A    between atoms: C_2  and  N_3 
REMARK       I    between atoms: N_3  and  C_4 
REMARK    2  A    between atoms: C_4  and  C_5 
REMARK    3  A    between atoms: C_13  and  N_14 
REMARK       I    between atoms: N_14  and  C_15 
REMARK    4  A    between atoms: C_15  and  C_16 
REMARK    5  A    between atoms: C_24  and  C_25 
REMARK       I    between atoms: C_25  and  N_26 
REMARK    6  A    between atoms: N_26  and  C_27 
ROOT
HETATM    1  C   UNL     1      40.874 -13.115   4.511  1.00  0.00     0.046 A 
HETATM    2  C   UNL     1      41.473 -12.936   5.762  1.00  0.00     0.037 A 
HETATM    3  C   UNL     1      42.357 -13.911   6.247  1.00  0.00     0.059 A 
HETATM    4  C   UNL     1      42.650 -15.052   5.503  1.00  0.00     0.037 A 
HETATM    5  C   UNL     1      42.051 -15.210   4.249  1.00  0.00     0.046 A 
HETATM    6  C   UNL     1      41.162 -14.247   3.739  1.00  0.00     0.036 A 
ENDROOT
BRANCH   6   7
HETATM    7  C   UNL     1      40.589 -14.500   2.375  1.00  0.00     0.256 C 
HETATM    8  N   UNL     1      41.403 -14.280   1.281  1.00  0.00    -0.317 N 
HETATM    9  H   UNL     1      42.350 -13.933   1.412  1.00  0.00     0.169 HD
HETATM   10  O   UNL     1      39.429 -14.900   2.299  1.00  0.00    -0.267 OA
BRANCH   8  11
HETATM   11  C   UNL     1      41.100 -14.489  -0.052  1.00  0.00     0.119 A 
HETATM   12  C   UNL     1      41.350 -15.874  -0.572  1.00  0.00     0.277 A 
HETATM   13  O   UNL     1      41.802 -16.746   0.168  1.00  0.00    -0.266 OA
HETATM   14  N   UNL     1      41.051 -16.109  -1.884  1.00  0.00    -0.274 N 
HETATM   15  C   UNL     1      40.538 -15.186  -2.748  1.00  0.00     0.327 A 
HETATM   16  H   UNL     1      41.213 -17.037  -2.242  1.00  0.00     0.173 HD
HETATM   17  O   UNL     1      40.278 -15.453  -3.915  1.00  0.00    -0.247 OA
HETATM   18  N   UNL     1      40.330 -13.941  -2.224  1.00  0.00    -0.316 N 
HETATM   19  C   UNL     1      40.602 -13.601  -0.924  1.00  0.00     0.128 A 
HETATM   20  H   UNL     1      39.949 -13.249  -2.861  1.00  0.00     0.170 HD
ENDBRANCH   8  11
ENDBRANCH   6   7
BRANCH   2  21
HETATM   21  N   UNL     1      41.255 -11.812   6.589  1.00  0.00    -0.327 N 
HETATM   22  C   UNL     1      40.115 -11.494   7.310  1.00  0.00     0.226 C 
HETATM   23  O   UNL     1      39.084 -12.158   7.332  1.00  0.00    -0.273 OA
HETATM   24  H   UNL     1      42.022 -11.150   6.636  1.00  0.00     0.169 HD
BRANCH  22  25
HETATM   25  C   UNL     1      40.251 -10.167   8.076  1.00  0.00     0.078 C 
HETATM   26  C   UNL     1      39.487 -10.185   9.410  1.00  0.00     0.014 C 
HETATM   27  C   UNL     1      40.198 -10.972  10.511  1.00  0.00     0.001 C 
HETATM   28  C   UNL     1      41.646 -10.531  10.685  1.00  0.00     0.000 C 
HETATM   29  C   UNL     1      42.409 -10.588   9.366  1.00  0.00     0.001 C 
HETATM   30  C   UNL     1      41.718  -9.760   8.286  1.00  0.00     0.014 C 
ENDBRANCH  22  25
ENDBRANCH   2  21
BRANCH   4  31
HETATM   31  N   UNL     1      43.538 -16.066   5.925  1.00  0.00    -0.327 N 
HETATM   32  C   UNL     1      43.285 -17.093   6.823  1.00  0.00     0.226 C 
HETATM   33  O   UNL     1      42.203 -17.324   7.353  1.00  0.00    -0.273 OA
HETATM   34  H   UNL     1      44.458 -16.052   5.499  1.00  0.00     0.169 HD
BRANCH  32  35
HETATM   35  C   UNL     1      44.527 -17.958   7.089  1.00  0.00     0.078 C 
HETATM   36  C   UNL     1      44.177 -19.228   7.880  1.00  0.00     0.014 C 
HETATM   37  C   UNL     1      43.476 -20.277   7.020  1.00  0.00     0.001 C 
HETATM   38  C   UNL     1      44.301 -20.629   5.787  1.00  0.00     0.000 C 
HETATM   39  C   UNL     1      44.628 -19.390   4.962  1.00  0.00     0.001 C 
HETATM   40  C   UNL     1      45.293 -18.299   5.801  1.00  0.00     0.014 C 
ENDBRANCH  32  35
ENDBRANCH   4  31
TORSDOF 6
ENDMDL
MODEL 4
REMARK VINA RESULT:      -9.4      3.113      7.528
REMARK  6 active torsions:
REMARK  status: ('A' for Active; 'I' for Inactive)
REMARK    1  A    between atoms: C_2  and  N_3 
REMARK       I    between atoms: N_3  and  C_4 
REMARK    2  A    between atoms: C_4  and  C_5 
REMARK    3  A    between atoms: C_13  and  N_14 
REMARK       I    between atoms: N_14  and  C_15 
REMARK    4  A    between atoms: C_15  and  C_16 
REMARK    5  A    between atoms: C_24  and  C_25 
REMARK       I    between atoms: C_25  and  N_26 
REMARK    6  A    between atoms: N_26  and  C_27 
ROOT
HETATM    1  C   UNL     1      42.532 -15.067   4.107  1.00  0.00     0.046 A 
HETATM    2  C   UNL     1      42.988 -15.068   5.428  1.00  0.00     0.037 A 
HETATM    3  C   UNL     1      42.666 -13.992   6.269  1.00  0.00     0.059 A 
HETATM    4  C   UNL     1      41.895 -12.925   5.810  1.00  0.00     0.037 A 
HETATM    5  C   UNL     1      41.437 -12.945   4.489  1.00  0.00     0.046 A 
HETATM    6  C   UNL     1      41.746 -14.012   3.627  1.00  0.00     0.036 A 
ENDROOT
BRANCH   6   7
HETATM    7  C   UNL     1      41.187 -13.948   2.234  1.00  0.00     0.256 C 
HETATM    8  N   UNL     1      41.984 -14.396   1.197  1.00  0.00    -0.317 N 
HETATM    9  H   UNL     1      42.925 -14.731   1.386  1.00  0.00     0.169 HD
HETATM   10  O   UNL     1      40.048 -13.511   2.086  1.00  0.00    -0.267 OA
BRANCH   8  11
HETATM   11  C   UNL     1      41.659 -14.469  -0.145  1.00  0.00     0.119 A 
HETATM   12  C   UNL     1      41.297 -15.833  -0.657  1.00  0.00     0.277 A 
HETATM   13  O   UNL     1      41.304 -16.804   0.096  1.00  0.00    -0.266 OA
HETATM   14  N   UNL     1      40.965 -15.931  -1.979  1.00  0.00    -0.274 N 
HETATM   15  C   UNL     1      40.930 -14.889  -2.858  1.00  0.00     0.327 A 
HETATM   16  H   UNL     1      40.718 -16.842  -2.332  1.00  0.00     0.173 HD
HETATM   17  O   UNL     1      40.613 -15.032  -4.033  1.00  0.00    -0.247 OA
HETATM   18  N   UNL     1      41.268 -13.670  -2.340  1.00  0.00    -0.316 N 
HETATM   19  C   UNL     1      41.622 -13.465  -1.031  1.00  0.00     0.128 A 
HETATM   20  H   UNL     1      41.244 -12.890  -2.988  1.00  0.00     0.170 HD
ENDBRANCH   8  11
ENDBRANCH   6   7
BRANCH   2  21
HETATM   21  N   UNL     1      43.763 -16.103   5.996  1.00  0.00    -0.327 N 
HETATM   22  C   UNL     1      43.339 -17.119   6.839  1.00  0.00     0.226 C 
HETATM   23  O   UNL     1      42.191 -17.272   7.241  1.00  0.00    -0.273 OA
HETATM   24  H   UNL     1      44.752 -16.079   5.775  1.00  0.00     0.169 HD
BRANCH  22  25
HETATM   25  C   UNL     1      44.488 -18.047   7.270  1.00  0.00     0.078 C 
HETATM   26  C   UNL     1      43.976 -19.346   7.914  1.00  0.00     0.014 C 
HETATM   27  C   UNL     1      43.445 -20.361   6.901  1.00  0.00     0.001 C 
HETATM   28  C   UNL     1      44.445 -20.630   5.783  1.00  0.00     0.000 C 
HETATM   29  C   UNL     1      44.887 -19.337   5.108  1.00  0.00     0.001 C 
HETATM   30  C   UNL     1      45.461 -18.348   6.119  1.00  0.00     0.014 C 
ENDBRANCH  22  25
ENDBRANCH   2  21
BRANCH   4  31
HETATM   31  N   UNL     1      41.525 -11.818   6.604  1.00  0.00    -0.327 N 
HETATM   32  C   UNL     1      40.300 -11.582   7.210  1.00  0.00     0.226 C 
HETATM   33  O   UNL     1      39.343 -12.351   7.202  1.00  0.00    -0.273 OA
HETATM   34  H   UNL     1      42.253 -11.131   6.770  1.00  0.00     0.169 HD
BRANCH  32  35
HETATM   35  C   UNL     1      40.254 -10.226   7.932  1.00  0.00     0.078 C 
HETATM   36  C   UNL     1      39.391 -10.287   9.202  1.00  0.00     0.014 C 
HETATM   37  C   UNL     1      40.087 -11.016  10.348  1.00  0.00     0.001 C 
HETATM   38  C   UNL     1      41.445 -10.398  10.658  1.00  0.00     0.000 C 
HETATM   39  C   UNL     1      42.339 -10.362   9.424  1.00  0.00     0.001 C 
HETATM   40  C   UNL     1      41.656  -9.677   8.240  1.00  0.00     0.014 C 
ENDBRANCH  32  35
ENDBRANCH   4  31
TORSDOF 6
ENDMDL
MODEL 5
REMARK VINA RESULT:      -9.0      2.868      7.268
REMARK  6 active torsions:
REMARK  status: ('A' for Active; 'I' for Inactive)
REMARK    1  A    between atoms: C_2  and  N_3 
REMARK       I    between atoms: N_3  and  C_4 
REMARK    2  A    between atoms: C_4  and  C_5 
REMARK    3  A    between atoms: C_13  and  N_14 
REMARK       I    between atoms: N_14  and  C_15 
REMARK    4  A    between atoms: C_15  and  C_16 
REMARK    5  A    between atoms: C_24  and  C_25 
REMARK       I    between atoms: C_25  and  N_26 
REMARK    6  A    between atoms: N_26  and  C_27 
ROOT
HETATM    1  C   UNL     1      41.125 -15.378   2.990  1.00  0.00     0.046 A 
HETATM    2  C   UNL     1      40.824 -14.034   2.751  1.00  0.00     0.037 A 
HETATM    3  C   UNL     1      40.775 -13.137   3.828  1.00  0.00     0.059 A 
HETATM    4  C   UNL     1      41.024 -13.563   5.132  1.00  0.00     0.037 A 
HETATM    5  C   UNL     1      41.335 -14.909   5.352  1.00  0.00     0.046 A 
HETATM    6  C   UNL     1      41.392 -15.827   4.289  1.00  0.00     0.036 A 
ENDROOT
BRANCH   6   7
HETATM    7  C   UNL     1      41.755 -17.245   4.629  1.00  0.00     0.256 C 
HETATM    8  N   UNL     1      43.062 -17.643   4.426  1.00  0.00    -0.317 N 
HETATM    9  H   UNL     1      43.738 -16.992   4.035  1.00  0.00     0.169 HD
HETATM   10  O   UNL     1      40.875 -17.976   5.079  1.00  0.00    -0.267 OA
BRANCH   8  11
HETATM   11  C   UNL     1      43.622 -18.876   4.709  1.00  0.00     0.119 A 
HETATM   12  C   UNL     1      44.201 -19.616   3.538  1.00  0.00     0.277 A 
HETATM   13  O   UNL     1      44.159 -19.129   2.410  1.00  0.00    -0.266 OA
HETATM   14  N   UNL     1      44.766 -20.833   3.791  1.00  0.00    -0.274 N 
HETATM   15  C   UNL     1      44.851 -21.417   5.021  1.00  0.00     0.327 A 
HETATM   16  H   UNL     1      45.160 -21.336   3.013  1.00  0.00     0.173 HD
HETATM   17  O   UNL     1      45.380 -22.509   5.194  1.00  0.00    -0.247 OA
HETATM   18  N   UNL     1      44.308 -20.701   6.052  1.00  0.00    -0.316 N 
HETATM   19  C   UNL     1      43.713 -19.475   5.903  1.00  0.00     0.128 A 
HETATM   20  H   UNL     1      44.367 -21.130   6.969  1.00  0.00     0.170 HD
ENDBRANCH   8  11
ENDBRANCH   6   7
BRANCH   2  21
HETATM   21  N   UNL     1      40.569 -13.497   1.470  1.00  0.00    -0.327 N 
HETATM   22  C   UNL     1      41.424 -12.752   0.673  1.00  0.00     0.226 C 
HETATM   23  O   UNL     1      42.567 -12.426   0.973  1.00  0.00    -0.273 OA
HETATM   24  H   UNL     1      39.636 -13.660   1.107  1.00  0.00     0.169 HD
BRANCH  22  25
HETATM   25  C   UNL     1      40.772 -12.322  -0.652  1.00  0.00     0.078 C 
HETATM   26  C   UNL     1      41.797 -11.756  -1.649  1.00  0.00     0.014 C 
HETATM   27  C   UNL     1      42.642 -12.831  -2.333  1.00  0.00     0.001 C 
HETATM   28  C   UNL     1      41.781 -13.924  -2.955  1.00  0.00     0.000 C 
HETATM   29  C   UNL     1      40.820 -14.524  -1.935  1.00  0.00     0.001 C 
HETATM   30  C   UNL     1      39.947 -13.450  -1.292  1.00  0.00     0.014 C 
ENDBRANCH  22  25
ENDBRANCH   2  21
BRANCH   4  31
HETATM   31  N   UNL     1      41.002 -12.714   6.259  1.00  0.00    -0.327 N 
HETATM   32  C   UNL     1      39.934 -11.969   6.738  1.00  0.00     0.226 C 
HETATM   33  O   UNL     1      38.796 -11.985   6.282  1.00  0.00    -0.273 OA
HETATM   34  H   UNL     1      41.863 -12.667   6.793  1.00  0.00     0.169 HD
BRANCH  32  35
HETATM   35  C   UNL     1      40.319 -11.104   7.949  1.00  0.00     0.078 C 
HETATM   36  C   UNL     1      41.632 -10.343   7.709  1.00  0.00     0.014 C 
HETATM   37  C   UNL     1      41.458  -9.160   6.760  1.00  0.00     0.001 C 
HETATM   38  C   UNL     1      40.374  -8.207   7.250  1.00  0.00     0.000 C 
HETATM   39  C   UNL     1      39.047  -8.929   7.456  1.00  0.00     0.001 C 
HETATM   40  C   UNL     1      39.192 -10.147   8.369  1.00  0.00     0.014 C 
ENDBRANCH  32  35
ENDBRANCH   4  31
TORSDOF 6
ENDMDL
MODEL 6
REMARK VINA RESULT:      -8.9      3.190      4.572
REMARK  6 active torsions:
REMARK  status: ('A' for Active; 'I' for Inactive)
REMARK    1  A    between atoms: C_2  and  N_3 
REMARK       I    between atoms: N_3  and  C_4 
REMARK    2  A    between atoms: C_4  and  C_5 
REMARK    3  A    between atoms: C_13  and  N_14 
REMARK       I    between atoms: N_14  and  C_15 
REMARK    4  A    between atoms: C_15  and  C_16 
REMARK    5  A    between atoms: C_24  and  C_25 
REMARK       I    between atoms: C_25  and  N_26 
REMARK    6  A    between atoms: N_26  and  C_27 
ROOT
HETATM    1  C   UNL     1      42.208 -14.246   3.727  1.00  0.00     0.046 A 
HETATM    2  C   UNL     1      41.998 -12.942   3.268  1.00  0.00     0.037 A 
HETATM    3  C   UNL     1      41.766 -12.721   1.903  1.00  0.00     0.059 A 
HETATM    4  C   UNL     1      41.738 -13.780   0.996  1.00  0.00     0.037 A 
HETATM    5  C   UNL     1      41.938 -15.079   1.473  1.00  0.00     0.046 A 
HETATM    6  C   UNL     1      42.172 -15.327   2.837  1.00  0.00     0.036 A 
ENDROOT
BRANCH   6   7
HETATM    7  C   UNL     1      42.354 -16.760   3.250  1.00  0.00     0.256 C 
HETATM    8  N   UNL     1      43.637 -17.271   3.263  1.00  0.00    -0.317 N 
HETATM    9  H   UNL     1      44.419 -16.689   2.975  1.00  0.00     0.169 HD
HETATM   10  O   UNL     1      41.354 -17.403   3.565  1.00  0.00    -0.267 OA
BRANCH   8  11
HETATM   11  C   UNL     1      44.037 -18.537   3.648  1.00  0.00     0.119 A 
HETATM   12  C   UNL     1      44.396 -18.699   5.096  1.00  0.00     0.277 A 
HETATM   13  O   UNL     1      44.331 -17.742   5.865  1.00  0.00    -0.266 OA
HETATM   14  N   UNL     1      44.787 -19.942   5.504  1.00  0.00    -0.274 N 
HETATM   15  C   UNL     1      44.867 -21.041   4.700  1.00  0.00     0.327 A 
HETATM   16  H   UNL     1      45.027 -20.062   6.475  1.00  0.00     0.173 HD
HETATM   17  O   UNL     1      45.214 -22.138   5.121  1.00  0.00    -0.247 OA
HETATM   18  N   UNL     1      44.530 -20.839   3.391  1.00  0.00    -0.316 N 
HETATM   19  C   UNL     1      44.130 -19.632   2.880  1.00  0.00     0.128 A 
HETATM   20  H   UNL     1      44.587 -21.652   2.787  1.00  0.00     0.170 HD
ENDBRANCH   8  11
ENDBRANCH   6   7
BRANCH   2  21
HETATM   21  N   UNL     1      41.994 -11.803   4.102  1.00  0.00    -0.327 N 
HETATM   22  C   UNL     1      40.898 -11.142   4.635  1.00  0.00     0.226 C 
HETATM   23  O   UNL     1      39.726 -11.451   4.450  1.00  0.00    -0.273 OA
HETATM   24  H   UNL     1      42.906 -11.412   4.311  1.00  0.00     0.169 HD
BRANCH  22  25
HETATM   25  C   UNL     1      41.298  -9.920   5.480  1.00  0.00     0.078 C 
HETATM   26  C   UNL     1      40.291  -8.766   5.346  1.00  0.00     0.014 C 
HETATM   27  C   UNL     1      39.005  -8.982   6.145  1.00  0.00     0.001 C 
HETATM   28  C   UNL     1      39.288  -9.330   7.600  1.00  0.00     0.000 C 
HETATM   29  C   UNL     1      40.232 -10.522   7.715  1.00  0.00     0.001 C 
HETATM   30  C   UNL     1      41.533 -10.278   6.955  1.00  0.00     0.014 C 
ENDBRANCH  22  25
ENDBRANCH   2  21
BRANCH   4  31
HETATM   31  N   UNL     1      41.499 -13.630  -0.387  1.00  0.00    -0.327 N 
HETATM   32  C   UNL     1      40.273 -13.542  -1.030  1.00  0.00     0.226 C 
HETATM   33  O   UNL     1      39.179 -13.514  -0.475  1.00  0.00    -0.273 OA
HETATM   34  H   UNL     1      42.324 -13.552  -0.971  1.00  0.00     0.169 HD
BRANCH  32  35
HETATM   35  C   UNL     1      40.416 -13.462  -2.558  1.00  0.00     0.078 C 
HETATM   36  C   UNL     1      41.280 -14.608  -3.109  1.00  0.00     0.014 C 
HETATM   37  C   UNL     1      40.540 -15.943  -3.122  1.00  0.00     0.001 C 
HETATM   38  C   UNL     1      39.230 -15.847  -3.895  1.00  0.00     0.000 C 
HETATM   39  C   UNL     1      38.335 -14.744  -3.343  1.00  0.00     0.001 C 
HETATM   40  C   UNL     1      39.058 -13.399  -3.274  1.00  0.00     0.014 C 
ENDBRANCH  32  35
ENDBRANCH   4  31
TORSDOF 6
ENDMDL
MODEL 7
REMARK VINA RESULT:      -8.9      3.111      8.174
REMARK  6 active torsions:
REMARK  status: ('A' for Active; 'I' for Inactive)
REMARK    1  A    between atoms: C_2  and  N_3 
REMARK       I    between atoms: N_3  and  C_4 
REMARK    2  A    between atoms: C_4  and  C_5 
REMARK    3  A    between atoms: C_13  and  N_14 
REMARK       I    between atoms: N_14  and  C_15 
REMARK    4  A    between atoms: C_15  and  C_16 
REMARK    5  A    between atoms: C_24  and  C_25 
REMARK       I    between atoms: C_25  and  N_26 
REMARK    6  A    between atoms: N_26  and  C_27 
ROOT
HETATM    1  C   UNL     1      41.019 -15.751   1.811  1.00  0.00     0.046 A 
HETATM    2  C   UNL     1      40.556 -14.544   1.277  1.00  0.00     0.037 A 
HETATM    3  C   UNL     1      40.107 -13.536   2.142  1.00  0.00     0.059 A 
HETATM    4  C   UNL     1      40.119 -13.715   3.525  1.00  0.00     0.037 A 
HETATM    5  C   UNL     1      40.597 -14.922   4.042  1.00  0.00     0.046 A 
HETATM    6  C   UNL     1      41.053 -15.949   3.197  1.00  0.00     0.036 A 
ENDROOT
BRANCH   6   7
HETATM    7  C   UNL     1      41.565 -17.199   3.853  1.00  0.00     0.256 C 
HETATM    8  N   UNL     1      42.801 -17.675   3.460  1.00  0.00    -0.317 N 
HETATM    9  H   UNL     1      43.322 -17.197   2.730  1.00  0.00     0.169 HD
HETATM   10  O   UNL     1      40.866 -17.730   4.714  1.00  0.00    -0.267 OA
BRANCH   8  11
HETATM   11  C   UNL     1      43.479 -18.773   3.957  1.00  0.00     0.119 A 
HETATM   12  C   UNL     1      43.779 -19.861   2.968  1.00  0.00     0.277 A 
HETATM   13  O   UNL     1      43.424 -19.753   1.796  1.00  0.00    -0.266 OA
HETATM   14  N   UNL     1      44.454 -20.954   3.432  1.00  0.00    -0.274 N 
HETATM   15  C   UNL     1      44.881 -21.123   4.717  1.00  0.00     0.327 A 
HETATM   16  H   UNL     1      44.663 -21.689   2.776  1.00  0.00     0.173 HD
HETATM   17  O   UNL     1      45.494 -22.121   5.078  1.00  0.00    -0.247 OA
HETATM   18  N   UNL     1      44.582 -20.103   5.577  1.00  0.00    -0.316 N 
HETATM   19  C   UNL     1      43.904 -18.969   5.213  1.00  0.00     0.128 A 
HETATM   20  H   UNL     1      44.896 -20.222   6.534  1.00  0.00     0.170 HD
ENDBRANCH   8  11
ENDBRANCH   6   7
BRANCH   2  21
HETATM   21  N   UNL     1      40.514 -14.257  -0.105  1.00  0.00    -0.327 N 
HETATM   22  C   UNL     1      39.398 -14.015  -0.891  1.00  0.00     0.226 C 
HETATM   23  O   UNL     1      38.238 -14.024  -0.494  1.00  0.00    -0.273 OA
HETATM   24  H   UNL     1      41.412 -14.253  -0.577  1.00  0.00     0.169 HD
BRANCH  22  25
HETATM   25  C   UNL     1      39.757 -13.763  -2.365  1.00  0.00     0.078 C 
HETATM   26  C   UNL     1      40.843 -14.726  -2.872  1.00  0.00     0.014 C 
HETATM   27  C   UNL     1      40.323 -16.134  -3.168  1.00  0.00     0.001 C 
HETATM   28  C   UNL     1      39.104 -16.111  -4.082  1.00  0.00     0.000 C 
HETATM   29  C   UNL     1      38.008 -15.208  -3.528  1.00  0.00     0.001 C 
HETATM   30  C   UNL     1      38.524 -13.793  -3.282  1.00  0.00     0.014 C 
ENDBRANCH  22  25
ENDBRANCH   2  21
BRANCH   4  31
HETATM   31  N   UNL     1      39.694 -12.739   4.452  1.00  0.00    -0.327 N 
HETATM   32  C   UNL     1      40.300 -11.526   4.744  1.00  0.00     0.226 C 
HETATM   33  O   UNL     1      41.291 -11.073   4.179  1.00  0.00    -0.273 OA
HETATM   34  H   UNL     1      38.828 -12.942   4.939  1.00  0.00     0.169 HD
BRANCH  32  35
HETATM   35  C   UNL     1      39.581 -10.766   5.869  1.00  0.00     0.078 C 
HETATM   36  C   UNL     1      39.936 -11.330   7.253  1.00  0.00     0.014 C 
HETATM   37  C   UNL     1      41.337 -10.927   7.707  1.00  0.00     0.001 C 
HETATM   38  C   UNL     1      41.516  -9.414   7.688  1.00  0.00     0.000 C 
HETATM   39  C   UNL     1      41.209  -8.832   6.313  1.00  0.00     0.001 C 
HETATM   40  C   UNL     1      39.828  -9.251   5.807  1.00  0.00     0.014 C 
ENDBRANCH  32  35
ENDBRANCH   4  31
TORSDOF 6
ENDMDL
MODEL 8
REMARK VINA RESULT:      -8.8      3.217      8.300
REMARK  6 active torsions:
REMARK  status: ('A' for Active; 'I' for Inactive)
REMARK    1  A    between atoms: C_2  and  N_3 
REMARK       I    between atoms: N_3  and  C_4 
REMARK    2  A    between atoms: C_4  and  C_5 
REMARK    3  A    between atoms: C_13  and  N_14 
REMARK       I    between atoms: N_14  and  C_15 
REMARK    4  A    between atoms: C_15  and  C_16 
REMARK    5  A    between atoms: C_24  and  C_25 
REMARK       I    between atoms: C_25  and  N_26 
REMARK    6  A    between atoms: N_26  and  C_27 
ROOT
HETATM    1  C   UNL     1      41.580 -14.155   5.469  1.00  0.00     0.046 A 
HETATM    2  C   UNL     1      42.219 -14.930   4.496  1.00  0.00     0.037 A 
HETATM    3  C   UNL     1      41.895 -14.743   3.144  1.00  0.00     0.059 A 
HETATM    4  C   UNL     1      40.952 -13.794   2.754  1.00  0.00     0.037 A 
HETATM    5  C   UNL     1      40.331 -13.018   3.739  1.00  0.00     0.046 A 
HETATM    6  C   UNL     1      40.638 -13.187   5.100  1.00  0.00     0.036 A 
ENDROOT
BRANCH   6   7
HETATM    7  C   UNL     1      39.931 -12.290   6.076  1.00  0.00     0.256 C 
HETATM    8  N   UNL     1      40.630 -11.872   7.193  1.00  0.00    -0.317 N 
HETATM    9  H   UNL     1      41.583 -12.192   7.346  1.00  0.00     0.169 HD
HETATM   10  O   UNL     1      38.772 -11.964   5.829  1.00  0.00    -0.267 OA
BRANCH   8  11
HETATM   11  C   UNL     1      40.195 -11.018   8.189  1.00  0.00     0.119 A 
HETATM   12  C   UNL     1      41.014  -9.776   8.391  1.00  0.00     0.277 A 
HETATM   13  O   UNL     1      42.008  -9.566   7.698  1.00  0.00    -0.266 OA
HETATM   14  N   UNL     1      40.602  -8.911   9.364  1.00  0.00    -0.274 N 
HETATM   15  C   UNL     1      39.503  -9.087  10.154  1.00  0.00     0.327 A 
HETATM   16  H   UNL     1      41.143  -8.073   9.505  1.00  0.00     0.173 HD
HETATM   17  O   UNL     1      39.172  -8.272  11.007  1.00  0.00    -0.247 OA
HETATM   18  N   UNL     1      38.794 -10.233   9.930  1.00  0.00    -0.316 N 
HETATM   19  C   UNL     1      39.126 -11.167   8.983  1.00  0.00     0.128 A 
HETATM   20  H   UNL     1      37.976 -10.371  10.514  1.00  0.00     0.170 HD
ENDBRANCH   8  11
ENDBRANCH   6   7
BRANCH   2  21
HETATM   21  N   UNL     1      43.197 -15.908   4.782  1.00  0.00    -0.327 N 
HETATM   22  C   UNL     1      43.059 -17.287   4.742  1.00  0.00     0.226 C 
HETATM   23  O   UNL     1      42.031 -17.887   4.452  1.00  0.00    -0.273 OA
HETATM   24  H   UNL     1      44.099 -15.549   5.075  1.00  0.00     0.169 HD
BRANCH  22  25
HETATM   25  C   UNL     1      44.350 -18.021   5.146  1.00  0.00     0.078 C 
HETATM   26  C   UNL     1      44.881 -17.553   6.512  1.00  0.00     0.014 C 
HETATM   27  C   UNL     1      44.103 -18.124   7.698  1.00  0.00     0.001 C 
HETATM   28  C   UNL     1      43.975 -19.640   7.620  1.00  0.00     0.000 C 
HETATM   29  C   UNL     1      43.379 -20.082   6.289  1.00  0.00     0.001 C 
HETATM   30  C   UNL     1      44.190 -19.548   5.111  1.00  0.00     0.014 C 
ENDBRANCH  22  25
ENDBRANCH   2  21
BRANCH   4  31
HETATM   31  N   UNL     1      40.588 -13.545   1.413  1.00  0.00    -0.327 N 
HETATM   32  C   UNL     1      41.288 -12.811   0.467  1.00  0.00     0.226 C 
HETATM   33  O   UNL     1      42.394 -12.306   0.636  1.00  0.00    -0.273 OA
HETATM   34  H   UNL     1      39.725 -13.978   1.103  1.00  0.00     0.169 HD
BRANCH  32  35
HETATM   35  C   UNL     1      40.533 -12.699  -0.866  1.00  0.00     0.078 C 
HETATM   36  C   UNL     1      41.417 -12.105  -1.973  1.00  0.00     0.014 C 
HETATM   37  C   UNL     1      42.448 -13.102  -2.497  1.00  0.00     0.001 C 
HETATM   38  C   UNL     1      41.786 -14.387  -2.979  1.00  0.00     0.000 C 
HETATM   39  C   UNL     1      40.933 -15.021  -1.886  1.00  0.00     0.001 C 
HETATM   40  C   UNL     1      39.917 -14.037  -1.307  1.00  0.00     0.014 C 
ENDBRANCH  32  35
ENDBRANCH   4  31
TORSDOF 6
ENDMDL
MODEL 9
REMARK VINA RESULT:      -8.8      2.535      3.502
REMARK  6 active torsions:
REMARK  status: ('A' for Active; 'I' for Inactive)
REMARK    1  A    between atoms: C_2  and  N_3 
REMARK       I    between atoms: N_3  and  C_4 
REMARK    2  A    between atoms: C_4  and  C_5 
REMARK    3  A    between atoms: C_13  and  N_14 
REMARK       I    between atoms: N_14  and  C_15 
REMARK    4  A    between atoms: C_15  and  C_16 
REMARK    5  A    between atoms: C_24  and  C_25 
REMARK       I    between atoms: C_25  and  N_26 
REMARK    6  A    between atoms: N_26  and  C_27 
ROOT
HETATM    1  C   UNL     1      41.396 -13.883   5.235  1.00  0.00     0.046 A 
HETATM    2  C   UNL     1      41.034 -12.573   4.907  1.00  0.00     0.037 A 
HETATM    3  C   UNL     1      40.763 -12.248   3.570  1.00  0.00     0.059 A 
HETATM    4  C   UNL     1      40.844 -13.209   2.564  1.00  0.00     0.037 A 
HETATM    5  C   UNL     1      41.196 -14.517   2.911  1.00  0.00     0.046 A 
HETATM    6  C   UNL     1      41.472 -14.869   4.243  1.00  0.00     0.036 A 
ENDROOT
BRANCH   6   7
HETATM    7  C   UNL     1      41.821 -16.305   4.514  1.00  0.00     0.256 C 
HETATM    8  N   UNL     1      43.122 -16.708   4.286  1.00  0.00    -0.317 N 
HETATM    9  H   UNL     1      43.804 -16.047   3.922  1.00  0.00     0.169 HD
HETATM   10  O   UNL     1      40.935 -17.047   4.933  1.00  0.00    -0.267 OA
BRANCH   8  11
HETATM   11  C   UNL     1      43.669 -17.959   4.506  1.00  0.00     0.119 A 
HETATM   12  C   UNL     1      43.847 -18.820   3.290  1.00  0.00     0.277 A 
HETATM   13  O   UNL     1      43.513 -18.408   2.180  1.00  0.00    -0.266 OA
HETATM   14  N   UNL     1      44.392 -20.058   3.479  1.00  0.00    -0.274 N 
HETATM   15  C   UNL     1      44.791 -20.562   4.682  1.00  0.00     0.327 A 
HETATM   16  H   UNL     1      44.519 -20.642   2.668  1.00  0.00     0.173 HD
HETATM   17  O   UNL     1      45.284 -21.678   4.795  1.00  0.00    -0.247 OA
HETATM   18  N   UNL     1      44.605 -19.738   5.757  1.00  0.00    -0.316 N 
HETATM   19  C   UNL     1      44.063 -18.482   5.675  1.00  0.00     0.128 A 
HETATM   20  H   UNL     1      44.900 -20.107   6.655  1.00  0.00     0.170 HD
ENDBRANCH   8  11
ENDBRANCH   6   7
BRANCH   2  21
HETATM   21  N   UNL     1      40.909 -11.528   5.849  1.00  0.00    -0.327 N 
HETATM   22  C   UNL     1      39.935 -11.372   6.823  1.00  0.00     0.226 C 
HETATM   23  O   UNL     1      38.997 -12.137   7.014  1.00  0.00    -0.273 OA
HETATM   24  H   UNL     1      41.607 -10.795   5.782  1.00  0.00     0.169 HD
BRANCH  22  25
HETATM   25  C   UNL     1      40.123 -10.085   7.645  1.00  0.00     0.078 C 
HETATM   26  C   UNL     1      39.373 -10.137   8.986  1.00  0.00     0.014 C 
HETATM   27  C   UNL     1      40.069 -10.996  10.043  1.00  0.00     0.001 C 
HETATM   28  C   UNL     1      41.532 -10.610  10.219  1.00  0.00     0.000 C 
HETATM   29  C   UNL     1      42.279 -10.634   8.890  1.00  0.00     0.001 C 
HETATM   30  C   UNL     1      41.604  -9.736   7.856  1.00  0.00     0.014 C 
ENDBRANCH  22  25
ENDBRANCH   2  21
BRANCH   4  31
HETATM   31  N   UNL     1      40.574 -12.954   1.202  1.00  0.00    -0.327 N 
HETATM   32  C   UNL     1      41.407 -12.348   0.272  1.00  0.00     0.226 C 
HETATM   33  O   UNL     1      42.562 -11.991   0.479  1.00  0.00    -0.273 OA
HETATM   34  H   UNL     1      39.675 -13.276   0.863  1.00  0.00     0.169 HD
BRANCH  32  35
HETATM   35  C   UNL     1      40.730 -12.176  -1.097  1.00  0.00     0.078 C 
HETATM   36  C   UNL     1      41.748 -11.831  -2.195  1.00  0.00     0.014 C 
HETATM   37  C   UNL     1      42.582 -13.037  -2.619  1.00  0.00     0.001 C 
HETATM   38  C   UNL     1      41.699 -14.198  -3.060  1.00  0.00     0.000 C 
HETATM   39  C   UNL     1      40.706 -14.589  -1.972  1.00  0.00     0.001 C 
HETATM   40  C   UNL     1      39.882 -13.395  -1.491  1.00  0.00     0.014 C 
ENDBRANCH  32  35
ENDBRANCH   4  31
TORSDOF 6
ENDMDL
MODEL 10
REMARK VINA RESULT:      -8.7      1.674      2.244
REMARK  6 active torsions:
REMARK  status: ('A' for Active; 'I' for Inactive)
REMARK    1  A    between atoms: C_2  and  N_3 
REMARK       I    between atoms: N_3  and  C_4 
REMARK    2  A    between atoms: C_4  and  C_5 
REMARK    3  A    between atoms: C_13  and  N_14 
REMARK       I    between atoms: N_14  and  C_15 
REMARK    4  A    between atoms: C_15  and  C_16 
REMARK    5  A    between atoms: C_24  and  C_25 
REMARK       I    between atoms: C_25  and  N_26 
REMARK    6  A    between atoms: N_26  and  C_27 
ROOT
HETATM    1  C   UNL     1      43.238 -14.664   6.294  1.00  0.00     0.046 A 
HETATM    2  C   UNL     1      42.959 -13.296   6.372  1.00  0.00     0.037 A 
HETATM    3  C   UNL     1      42.104 -12.713   5.426  1.00  0.00     0.059 A 
HETATM    4  C   UNL     1      41.524 -13.475   4.412  1.00  0.00     0.037 A 
HETATM    5  C   UNL     1      41.803 -14.844   4.357  1.00  0.00     0.046 A 
HETATM    6  C   UNL     1      42.657 -15.453   5.293  1.00  0.00     0.036 A 
ENDROOT
BRANCH   6   7
HETATM    7  C   UNL     1      42.875 -16.933   5.158  1.00  0.00     0.256 C 
HETATM    8  N   UNL     1      43.478 -17.394   4.003  1.00  0.00    -0.317 N 
HETATM    9  H   UNL     1      43.736 -16.741   3.268  1.00  0.00     0.169 HD
HETATM   10  O   UNL     1      42.518 -17.658   6.084  1.00  0.00    -0.267 OA
BRANCH   8  11
HETATM   11  C   UNL     1      43.813 -18.699   3.691  1.00  0.00     0.119 A 
HETATM   12  C   UNL     1      43.244 -19.231   2.408  1.00  0.00     0.277 A 
HETATM   13  O   UNL     1      42.524 -18.525   1.704  1.00  0.00    -0.266 OA
HETATM   14  N   UNL     1      43.566 -20.516   2.071  1.00  0.00    -0.274 N 
HETATM   15  C   UNL     1      44.367 -21.340   2.806  1.00  0.00     0.327 A 
HETATM   16  H   UNL     1      43.191 -20.881   1.211  1.00  0.00     0.173 HD
HETATM   17  O   UNL     1      44.632 -22.483   2.451  1.00  0.00    -0.247 OA
HETATM   18  N   UNL     1      44.857 -20.806   3.965  1.00  0.00    -0.316 N 
HETATM   19  C   UNL     1      44.591 -19.532   4.394  1.00  0.00     0.128 A 
HETATM   20  H   UNL     1      45.454 -21.414   4.516  1.00  0.00     0.170 HD
ENDBRANCH   8  11
ENDBRANCH   6   7
BRANCH   2  21
HETATM   21  N   UNL     1      43.483 -12.438   7.364  1.00  0.00    -0.327 N 
HETATM   22  C   UNL     1      44.376 -12.753   8.376  1.00  0.00     0.226 C 
HETATM   23  O   UNL     1      44.855 -13.864   8.577  1.00  0.00    -0.273 OA
HETATM   24  H   UNL     1      43.140 -11.484   7.340  1.00  0.00     0.169 HD
BRANCH  22  25
HETATM   25  C   UNL     1      44.692 -11.549   9.280  1.00  0.00     0.078 C 
HETATM   26  C   UNL     1      43.475 -10.628   9.469  1.00  0.00     0.014 C 
HETATM   27  C   UNL     1      42.438 -11.178  10.448  1.00  0.00     0.001 C 
HETATM   28  C   UNL     1      43.065 -11.580  11.777  1.00  0.00     0.000 C 
HETATM   29  C   UNL     1      44.224 -12.550  11.577  1.00  0.00     0.001 C 
HETATM   30  C   UNL     1      45.278 -11.973  10.636  1.00  0.00     0.014 C 
ENDBRANCH  22  25
ENDBRANCH   2  21
BRANCH   4  31
HETATM   31  N   UNL     1      40.646 -12.955   3.436  1.00  0.00    -0.327 N 
HETATM   32  C   UNL     1      40.963 -12.526   2.155  1.00  0.00     0.226 C 
HETATM   33  O   UNL     1      42.072 -12.594   1.637  1.00  0.00    -0.273 OA
HETATM   34  H   UNL     1      39.667 -12.919   3.698  1.00  0.00     0.169 HD
BRANCH  32  35
HETATM   35  C   UNL     1      39.746 -11.952   1.412  1.00  0.00     0.078 C 
HETATM   36  C   UNL     1      38.474 -12.012   2.272  1.00  0.00     0.014 C 
HETATM   37  C   UNL     1      38.461 -10.952   3.371  1.00  0.00     0.001 C 
HETATM   38  C   UNL     1      38.649  -9.552   2.798  1.00  0.00     0.000 C 
HETATM   39  C   UNL     1      39.927  -9.453   1.973  1.00  0.00     0.001 C 
HETATM   40  C   UNL     1      39.995 -10.528   0.889  1.00  0.00     0.014 C 
ENDBRANCH  32  35
ENDBRANCH   4  31
TORSDOF 6
ENDMDL
