MODEL 1
REMARK VINA RESULT:      -8.2      0.000      0.000
REMARK  5 active torsions:
REMARK  status: ('A' for Active; 'I' for Inactive)
REMARK    1  A    between atoms: C_6  and  N_7 
REMARK       I    between atoms: N_7  and  C_8 
REMARK    2  A    between atoms: C_8  and  C_9 
REMARK    3  A    between atoms: C_9  and  O_10 
REMARK    4  A    between atoms: O_10  and  C_11 
REMARK    5  A    between atoms: C_20  and  C_21 
ROOT
HETATM    1  C   UNL     1      41.678 -13.781  -0.630  1.00  0.00     0.073 C 
HETATM    2  C   UNL     1      41.388 -14.975   0.202  1.00  0.00     0.065 A 
HETATM    3  N   UNL     1      41.326 -16.186  -0.365  1.00  0.00    -0.177 NA
HETATM    4  N   UNL     1      41.023 -17.007   0.653  1.00  0.00    -0.262 N 
HETATM    5  H   UNL     1      40.953 -18.003   0.461  1.00  0.00     0.191 HD
HETATM    6  C   UNL     1      40.885 -16.372   1.860  1.00  0.00     0.137 A 
HETATM    7  C   UNL     1      41.128 -15.037   1.598  1.00  0.00     0.046 A 
ENDROOT
BRANCH   6   8
HETATM    8  N   UNL     1      40.631 -16.995   3.065  1.00  0.00    -0.309 N 
HETATM    9  C   UNL     1      41.495 -17.205   4.108  1.00  0.00     0.247 C 
HETATM   10  O   UNL     1      41.041 -17.543   5.204  1.00  0.00    -0.271 OA
HETATM   11  H   UNL     1      39.697 -17.358   3.222  1.00  0.00     0.170 HD
BRANCH   9  12
HETATM   12  C   UNL     1      43.000 -17.196   3.844  1.00  0.00     0.278 C 
BRANCH  12  13
HETATM   13  O   UNL     1      43.376 -17.958   2.707  1.00  0.00    -0.342 OA
BRANCH  13  14
HETATM   14  C   UNL     1      43.794 -19.239   2.971  1.00  0.00     0.072 A 
HETATM   15  C   UNL     1      43.592 -20.153   1.934  1.00  0.00     0.082 A 
HETATM   16  C   UNL     1      43.979 -21.482   2.096  1.00  0.00     0.157 A 
HETATM   17  F   UNL     1      43.792 -22.346   1.089  1.00  0.00    -0.203 F 
HETATM   18  C   UNL     1      44.557 -21.908   3.284  1.00  0.00     0.155 A 
HETATM   19  F   UNL     1      44.931 -23.185   3.435  1.00  0.00    -0.203 F 
HETATM   20  C   UNL     1      44.752 -21.013   4.327  1.00  0.00     0.048 A 
HETATM   21  C   UNL     1      44.369 -19.676   4.173  1.00  0.00     0.040 A 
ENDBRANCH  13  14
ENDBRANCH  12  13
ENDBRANCH   9  12
ENDBRANCH   6   8
BRANCH   7  22
HETATM   22  C   UNL     1      40.918 -13.972   2.559  1.00  0.00    -0.020 A 
HETATM   23  C   UNL     1      39.661 -13.379   2.723  1.00  0.00     0.014 A 
HETATM   24  C   UNL     1      39.505 -12.305   3.604  1.00  0.00     0.020 A 
HETATM   25  C   UNL     1      40.603 -11.832   4.325  1.00  0.00     0.011 A 
HETATM   26 BR   UNL     1      40.396 -10.366   5.499  1.00  0.00    -0.051 Br
HETATM   27  C   UNL     1      41.854 -12.428   4.181  1.00  0.00     0.020 A 
HETATM   28  C   UNL     1      42.010 -13.498   3.298  1.00  0.00     0.014 A 
ENDBRANCH   7  22
TORSDOF 5
ENDMDL
MODEL 2
REMARK VINA RESULT:      -8.2      2.949      4.346
REMARK  5 active torsions:
REMARK  status: ('A' for Active; 'I' for Inactive)
REMARK    1  A    between atoms: C_6  and  N_7 
REMARK       I    between atoms: N_7  and  C_8 
REMARK    2  A    between atoms: C_8  and  C_9 
REMARK    3  A    between atoms: C_9  and  O_10 
REMARK    4  A    between atoms: O_10  and  C_11 
REMARK    5  A    between atoms: C_20  and  C_21 
ROOT
HETATM    1  C   UNL     1      39.969 -13.184   6.178  1.00  0.00     0.073 C 
HETATM    2  C   UNL     1      40.784 -13.470   4.971  1.00  0.00     0.065 A 
HETATM    3  N   UNL     1      40.489 -12.877   3.807  1.00  0.00    -0.177 NA
HETATM    4  N   UNL     1      41.390 -13.378   2.948  1.00  0.00    -0.262 N 
HETATM    5  H   UNL     1      41.376 -13.041   1.989  1.00  0.00     0.191 HD
HETATM    6  C   UNL     1      42.259 -14.276   3.511  1.00  0.00     0.137 A 
HETATM    7  C   UNL     1      41.893 -14.351   4.842  1.00  0.00     0.046 A 
ENDROOT
BRANCH   6   8
HETATM    8  N   UNL     1      43.308 -14.889   2.857  1.00  0.00    -0.309 N 
HETATM    9  C   UNL     1      43.312 -16.095   2.207  1.00  0.00     0.247 C 
HETATM   10  O   UNL     1      44.254 -16.371   1.460  1.00  0.00    -0.271 OA
HETATM   11  H   UNL     1      44.202 -14.409   2.844  1.00  0.00     0.170 HD
BRANCH   9  12
HETATM   12  C   UNL     1      42.253 -17.137   2.562  1.00  0.00     0.278 C 
BRANCH  12  13
HETATM   13  O   UNL     1      42.522 -18.421   2.019  1.00  0.00    -0.342 OA
BRANCH  13  14
HETATM   14  C   UNL     1      43.283 -19.245   2.810  1.00  0.00     0.072 A 
HETATM   15  C   UNL     1      43.687 -20.438   2.205  1.00  0.00     0.082 A 
HETATM   16  C   UNL     1      44.463 -21.349   2.919  1.00  0.00     0.157 A 
HETATM   17  F   UNL     1      44.856 -22.483   2.323  1.00  0.00    -0.203 F 
HETATM   18  C   UNL     1      44.831 -21.086   4.231  1.00  0.00     0.155 A 
HETATM   19  F   UNL     1      45.579 -21.962   4.914  1.00  0.00    -0.203 F 
HETATM   20  C   UNL     1      44.425 -19.910   4.849  1.00  0.00     0.048 A 
HETATM   21  C   UNL     1      43.648 -18.988   4.140  1.00  0.00     0.040 A 
ENDBRANCH  13  14
ENDBRANCH  12  13
ENDBRANCH   9  12
ENDBRANCH   6   8
BRANCH   7  22
HETATM   22  C   UNL     1      42.435 -15.316   5.778  1.00  0.00    -0.020 A 
HETATM   23  C   UNL     1      43.732 -15.186   6.287  1.00  0.00     0.014 A 
HETATM   24  C   UNL     1      44.253 -16.170   7.131  1.00  0.00     0.020 A 
HETATM   25  C   UNL     1      43.474 -17.277   7.472  1.00  0.00     0.011 A 
HETATM   26 BR   UNL     1      44.188 -18.619   8.595  1.00  0.00    -0.051 Br
HETATM   27  C   UNL     1      42.176 -17.406   6.984  1.00  0.00     0.020 A 
HETATM   28  C   UNL     1      41.657 -16.424   6.139  1.00  0.00     0.014 A 
ENDBRANCH   7  22
TORSDOF 5
ENDMDL
MODEL 3
REMARK VINA RESULT:      -8.0      2.948      4.371
REMARK  5 active torsions:
REMARK  status: ('A' for Active; 'I' for Inactive)
REMARK    1  A    between atoms: C_6  and  N_7 
REMARK       I    between atoms: N_7  and  C_8 
REMARK    2  A    between atoms: C_8  and  C_9 
REMARK    3  A    between atoms: C_9  and  O_10 
REMARK    4  A    between atoms: O_10  and  C_11 
REMARK    5  A    between atoms: C_20  and  C_21 
ROOT
HETATM    1  C   UNL     1      39.697 -10.574   4.354  1.00  0.00     0.073 C 
HETATM    2  C   UNL     1      39.711 -11.856   5.101  1.00  0.00     0.065 A 
HETATM    3  N   UNL     1      39.598 -11.854   6.436  1.00  0.00    -0.177 NA
HETATM    4  N   UNL     1      39.677 -13.152   6.771  1.00  0.00    -0.262 N 
HETATM    5  H   UNL     1      39.584 -13.399   7.752  1.00  0.00     0.191 HD
HETATM    6  C   UNL     1      39.840 -13.995   5.703  1.00  0.00     0.137 A 
HETATM    7  C   UNL     1      39.856 -13.175   4.591  1.00  0.00     0.046 A 
ENDROOT
BRANCH   6   8
HETATM    8  N   UNL     1      39.893 -15.372   5.775  1.00  0.00    -0.309 N 
HETATM    9  C   UNL     1      40.946 -16.160   6.161  1.00  0.00     0.247 C 
HETATM   10  O   UNL     1      40.744 -17.350   6.415  1.00  0.00    -0.271 OA
HETATM   11  H   UNL     1      39.063 -15.892   5.511  1.00  0.00     0.170 HD
BRANCH   9  12
HETATM   12  C   UNL     1      42.364 -15.596   6.088  1.00  0.00     0.278 C 
BRANCH  12  13
HETATM   13  O   UNL     1      42.869 -15.510   4.764  1.00  0.00    -0.342 OA
BRANCH  13  14
HETATM   14  C   UNL     1      42.979 -16.706   4.099  1.00  0.00     0.072 A 
HETATM   15  C   UNL     1      42.162 -16.834   2.973  1.00  0.00     0.082 A 
HETATM   16  C   UNL     1      42.193 -18.009   2.224  1.00  0.00     0.157 A 
HETATM   17  F   UNL     1      41.415 -18.113   1.138  1.00  0.00    -0.203 F 
HETATM   18  C   UNL     1      43.023 -19.058   2.592  1.00  0.00     0.155 A 
HETATM   19  F   UNL     1      43.053 -20.184   1.868  1.00  0.00    -0.203 F 
HETATM   20  C   UNL     1      43.831 -18.949   3.716  1.00  0.00     0.048 A 
HETATM   21  C   UNL     1      43.809 -17.773   4.473  1.00  0.00     0.040 A 
ENDBRANCH  13  14
ENDBRANCH  12  13
ENDBRANCH   9  12
ENDBRANCH   6   8
BRANCH   7  22
HETATM   22  C   UNL     1      40.182 -13.630   3.254  1.00  0.00    -0.020 A 
HETATM   23  C   UNL     1      41.361 -13.227   2.616  1.00  0.00     0.014 A 
HETATM   24  C   UNL     1      41.614 -13.623   1.300  1.00  0.00     0.020 A 
HETATM   25  C   UNL     1      40.692 -14.426   0.627  1.00  0.00     0.011 A 
HETATM   26 BR   UNL     1      41.024 -14.942  -1.161  1.00  0.00    -0.051 Br
HETATM   27  C   UNL     1      39.524 -14.846   1.259  1.00  0.00     0.020 A 
HETATM   28  C   UNL     1      39.270 -14.448   2.572  1.00  0.00     0.014 A 
ENDBRANCH   7  22
TORSDOF 5
ENDMDL
MODEL 4
REMARK VINA RESULT:      -8.0      1.615      2.517
REMARK  5 active torsions:
REMARK  status: ('A' for Active; 'I' for Inactive)
REMARK    1  A    between atoms: C_6  and  N_7 
REMARK       I    between atoms: N_7  and  C_8 
REMARK    2  A    between atoms: C_8  and  C_9 
REMARK    3  A    between atoms: C_9  and  O_10 
REMARK    4  A    between atoms: O_10  and  C_11 
REMARK    5  A    between atoms: C_20  and  C_21 
ROOT
HETATM    1  C   UNL     1      40.083 -14.592   1.516  1.00  0.00     0.073 C 
HETATM    2  C   UNL     1      40.417 -15.633   2.519  1.00  0.00     0.065 A 
HETATM    3  N   UNL     1      40.342 -16.929   2.189  1.00  0.00    -0.177 NA
HETATM    4  N   UNL     1      40.675 -17.573   3.318  1.00  0.00    -0.262 N 
HETATM    5  H   UNL     1      40.716 -18.588   3.296  1.00  0.00     0.191 HD
HETATM    6  C   UNL     1      40.961 -16.742   4.370  1.00  0.00     0.137 A 
HETATM    7  C   UNL     1      40.810 -15.462   3.874  1.00  0.00     0.046 A 
ENDROOT
BRANCH   6   8
HETATM    8  N   UNL     1      41.382 -17.153   5.619  1.00  0.00    -0.309 N 
HETATM    9  C   UNL     1      42.665 -17.246   6.092  1.00  0.00     0.247 C 
HETATM   10  O   UNL     1      42.849 -17.381   7.304  1.00  0.00    -0.271 OA
HETATM   11  H   UNL     1      40.673 -17.431   6.289  1.00  0.00     0.170 HD
BRANCH   9  12
HETATM   12  C   UNL     1      43.819 -17.366   5.098  1.00  0.00     0.278 C 
BRANCH  12  13
HETATM   13  O   UNL     1      44.511 -18.603   5.186  1.00  0.00    -0.342 OA
BRANCH  13  14
HETATM   14  C   UNL     1      44.313 -19.464   4.135  1.00  0.00     0.072 A 
HETATM   15  C   UNL     1      44.710 -20.783   4.367  1.00  0.00     0.082 A 
HETATM   16  C   UNL     1      44.554 -21.740   3.367  1.00  0.00     0.157 A 
HETATM   17  F   UNL     1      44.925 -23.005   3.607  1.00  0.00    -0.203 F 
HETATM   18  C   UNL     1      44.015 -21.392   2.136  1.00  0.00     0.155 A 
HETATM   19  F   UNL     1      43.864 -22.315   1.177  1.00  0.00    -0.203 F 
HETATM   20  C   UNL     1      43.629 -20.081   1.887  1.00  0.00     0.048 A 
HETATM   21  C   UNL     1      43.778 -19.114   2.886  1.00  0.00     0.040 A 
ENDBRANCH  13  14
ENDBRANCH  12  13
ENDBRANCH   9  12
ENDBRANCH   6   8
BRANCH   7  22
HETATM   22  C   UNL     1      40.845 -14.266   4.693  1.00  0.00    -0.020 A 
HETATM   23  C   UNL     1      42.050 -13.611   4.972  1.00  0.00     0.014 A 
HETATM   24  C   UNL     1      42.062 -12.503   5.824  1.00  0.00     0.020 A 
HETATM   25  C   UNL     1      40.870 -12.047   6.388  1.00  0.00     0.011 A 
HETATM   26 BR   UNL     1      40.890 -10.563   7.558  1.00  0.00    -0.051 Br
HETATM   27  C   UNL     1      39.663 -12.682   6.102  1.00  0.00     0.020 A 
HETATM   28  C   UNL     1      39.652 -13.791   5.254  1.00  0.00     0.014 A 
ENDBRANCH   7  22
TORSDOF 5
ENDMDL
MODEL 5
REMARK VINA RESULT:      -7.9      4.340      7.425
REMARK  5 active torsions:
REMARK  status: ('A' for Active; 'I' for Inactive)
REMARK    1  A    between atoms: C_6  and  N_7 
REMARK       I    between atoms: N_7  and  C_8 
REMARK    2  A    between atoms: C_8  and  C_9 
REMARK    3  A    between atoms: C_9  and  O_10 
REMARK    4  A    between atoms: O_10  and  C_11 
REMARK    5  A    between atoms: C_20  and  C_21 
ROOT
HETATM    1  C   UNL     1      44.344 -15.150   6.828  1.00  0.00     0.073 C 
HETATM    2  C   UNL     1      43.179 -15.311   5.923  1.00  0.00     0.065 A 
HETATM    3  N   UNL     1      42.289 -14.318   5.796  1.00  0.00    -0.177 NA
HETATM    4  N   UNL     1      41.375 -14.807   4.943  1.00  0.00    -0.262 N 
HETATM    5  H   UNL     1      40.605 -14.204   4.669  1.00  0.00     0.191 HD
HETATM    6  C   UNL     1      41.638 -16.082   4.514  1.00  0.00     0.137 A 
HETATM    7  C   UNL     1      42.822 -16.437   5.133  1.00  0.00     0.046 A 
ENDROOT
BRANCH   6   8
HETATM    8  N   UNL     1      40.886 -16.787   3.596  1.00  0.00    -0.309 N 
HETATM    9  C   UNL     1      41.042 -16.840   2.236  1.00  0.00     0.247 C 
HETATM   10  O   UNL     1      40.451 -17.714   1.598  1.00  0.00    -0.271 OA
HETATM   11  H   UNL     1      40.109 -17.339   3.945  1.00  0.00     0.170 HD
BRANCH   9  12
HETATM   12  C   UNL     1      41.790 -15.712   1.526  1.00  0.00     0.278 C 
BRANCH  12  13
HETATM   13  O   UNL     1      40.979 -14.577   1.264  1.00  0.00    -0.342 OA
BRANCH  13  14
HETATM   14  C   UNL     1      40.426 -14.527   0.009  1.00  0.00     0.072 A 
HETATM   15  C   UNL     1      41.176 -15.148  -0.993  1.00  0.00     0.082 A 
HETATM   16  C   UNL     1      40.707 -15.156  -2.305  1.00  0.00     0.157 A 
HETATM   17  F   UNL     1      41.429 -15.768  -3.254  1.00  0.00    -0.203 F 
HETATM   18  C   UNL     1      39.505 -14.543  -2.629  1.00  0.00     0.155 A 
HETATM   19  F   UNL     1      39.056 -14.555  -3.890  1.00  0.00    -0.203 F 
HETATM   20  C   UNL     1      38.756 -13.910  -1.645  1.00  0.00     0.048 A 
HETATM   21  C   UNL     1      39.216 -13.900  -0.324  1.00  0.00     0.040 A 
ENDBRANCH  13  14
ENDBRANCH  12  13
ENDBRANCH   9  12
ENDBRANCH   6   8
BRANCH   7  22
HETATM   22  C   UNL     1      43.384 -17.773   5.102  1.00  0.00    -0.020 A 
HETATM   23  C   UNL     1      43.955 -18.294   3.935  1.00  0.00     0.014 A 
HETATM   24  C   UNL     1      44.423 -19.611   3.914  1.00  0.00     0.020 A 
HETATM   25  C   UNL     1      44.328 -20.401   5.061  1.00  0.00     0.011 A 
HETATM   26 BR   UNL     1      44.940 -22.188   5.024  1.00  0.00    -0.051 Br
HETATM   27  C   UNL     1      43.777 -19.885   6.231  1.00  0.00     0.020 A 
HETATM   28  C   UNL     1      43.306 -18.571   6.251  1.00  0.00     0.014 A 
ENDBRANCH   7  22
TORSDOF 5
ENDMDL
MODEL 6
REMARK VINA RESULT:      -7.8      3.487      4.941
REMARK  5 active torsions:
REMARK  status: ('A' for Active; 'I' for Inactive)
REMARK    1  A    between atoms: C_6  and  N_7 
REMARK       I    between atoms: N_7  and  C_8 
REMARK    2  A    between atoms: C_8  and  C_9 
REMARK    3  A    between atoms: C_9  and  O_10 
REMARK    4  A    between atoms: O_10  and  C_11 
REMARK    5  A    between atoms: C_20  and  C_21 
ROOT
HETATM    1  C   UNL     1      41.326 -15.146  -1.448  1.00  0.00     0.073 C 
HETATM    2  C   UNL     1      40.744 -14.920  -0.102  1.00  0.00     0.065 A 
HETATM    3  N   UNL     1      39.968 -13.852   0.121  1.00  0.00    -0.177 NA
HETATM    4  N   UNL     1      39.649 -13.946   1.422  1.00  0.00    -0.262 N 
HETATM    5  H   UNL     1      39.029 -13.244   1.815  1.00  0.00     0.191 HD
HETATM    6  C   UNL     1      40.191 -15.036   2.051  1.00  0.00     0.137 A 
HETATM    7  C   UNL     1      40.908 -15.701   1.074  1.00  0.00     0.046 A 
ENDROOT
BRANCH   6   8
HETATM    8  N   UNL     1      39.971 -15.388   3.368  1.00  0.00    -0.309 N 
HETATM    9  C   UNL     1      40.547 -14.859   4.493  1.00  0.00     0.247 C 
HETATM   10  O   UNL     1      40.050 -15.108   5.594  1.00  0.00    -0.271 OA
HETATM   11  H   UNL     1      39.308 -16.133   3.553  1.00  0.00     0.170 HD
BRANCH   9  12
HETATM   12  C   UNL     1      41.885 -14.133   4.375  1.00  0.00     0.278 C 
BRANCH  12  13
HETATM   13  O   UNL     1      42.993 -15.012   4.242  1.00  0.00    -0.342 OA
BRANCH  13  14
HETATM   14  C   UNL     1      43.216 -15.842   5.312  1.00  0.00     0.072 A 
HETATM   15  C   UNL     1      43.093 -17.206   5.038  1.00  0.00     0.082 A 
HETATM   16  C   UNL     1      43.297 -18.138   6.054  1.00  0.00     0.157 A 
HETATM   17  F   UNL     1      43.191 -19.444   5.775  1.00  0.00    -0.203 F 
HETATM   18  C   UNL     1      43.613 -17.722   7.339  1.00  0.00     0.155 A 
HETATM   19  F   UNL     1      43.812 -18.620   8.313  1.00  0.00    -0.203 F 
HETATM   20  C   UNL     1      43.725 -16.368   7.629  1.00  0.00     0.048 A 
HETATM   21  C   UNL     1      43.525 -15.425   6.615  1.00  0.00     0.040 A 
ENDBRANCH  13  14
ENDBRANCH  12  13
ENDBRANCH   9  12
ENDBRANCH   6   8
BRANCH   7  22
HETATM   22  C   UNL     1      41.790 -16.821   1.338  1.00  0.00    -0.020 A 
HETATM   23  C   UNL     1      41.284 -18.079   1.684  1.00  0.00     0.014 A 
HETATM   24  C   UNL     1      42.160 -19.121   2.003  1.00  0.00     0.020 A 
HETATM   25  C   UNL     1      43.538 -18.905   1.968  1.00  0.00     0.011 A 
HETATM   26 BR   UNL     1      44.721 -20.307   2.422  1.00  0.00    -0.051 Br
HETATM   27  C   UNL     1      44.051 -17.661   1.608  1.00  0.00     0.020 A 
HETATM   28  C   UNL     1      43.176 -16.620   1.293  1.00  0.00     0.014 A 
ENDBRANCH   7  22
TORSDOF 5
ENDMDL
MODEL 7
REMARK VINA RESULT:      -7.7      1.574      2.174
REMARK  5 active torsions:
REMARK  status: ('A' for Active; 'I' for Inactive)
REMARK    1  A    between atoms: C_6  and  N_7 
REMARK       I    between atoms: N_7  and  C_8 
REMARK    2  A    between atoms: C_8  and  C_9 
REMARK    3  A    between atoms: C_9  and  O_10 
REMARK    4  A    between atoms: O_10  and  C_11 
REMARK    5  A    between atoms: C_20  and  C_21 
ROOT
HETATM    1  C   UNL     1      42.722 -11.589  -1.079  1.00  0.00     0.073 C 
HETATM    2  C   UNL     1      42.127 -12.948  -1.052  1.00  0.00     0.065 A 
HETATM    3  N   UNL     1      41.983 -13.637  -2.191  1.00  0.00    -0.177 NA
HETATM    4  N   UNL     1      41.399 -14.784  -1.806  1.00  0.00    -0.262 N 
HETATM    5  H   UNL     1      41.216 -15.489  -2.515  1.00  0.00     0.191 HD
HETATM    6  C   UNL     1      41.158 -14.862  -0.460  1.00  0.00     0.137 A 
HETATM    7  C   UNL     1      41.634 -13.675   0.065  1.00  0.00     0.046 A 
ENDROOT
BRANCH   6   8
HETATM    8  N   UNL     1      40.620 -15.953   0.192  1.00  0.00    -0.309 N 
HETATM    9  C   UNL     1      41.260 -16.858   0.999  1.00  0.00     0.247 C 
HETATM   10  O   UNL     1      40.587 -17.614   1.704  1.00  0.00    -0.271 OA
HETATM   11  H   UNL     1      39.629 -16.135   0.072  1.00  0.00     0.170 HD
BRANCH   9  12
HETATM   12  C   UNL     1      42.772 -17.033   0.870  1.00  0.00     0.278 C 
BRANCH  12  13
HETATM   13  O   UNL     1      43.476 -16.749   2.070  1.00  0.00    -0.342 OA
BRANCH  13  14
HETATM   14  C   UNL     1      43.820 -17.844   2.822  1.00  0.00     0.072 A 
HETATM   15  C   UNL     1      44.103 -19.000   2.091  1.00  0.00     0.082 A 
HETATM   16  C   UNL     1      44.462 -20.170   2.756  1.00  0.00     0.157 A 
HETATM   17  F   UNL     1      44.745 -21.268   2.042  1.00  0.00    -0.203 F 
HETATM   18  C   UNL     1      44.532 -20.201   4.141  1.00  0.00     0.155 A 
HETATM   19  F   UNL     1      44.880 -21.327   4.777  1.00  0.00    -0.203 F 
HETATM   20  C   UNL     1      44.240 -19.063   4.882  1.00  0.00     0.048 A 
HETATM   21  C   UNL     1      43.882 -17.882   4.223  1.00  0.00     0.040 A 
ENDBRANCH  13  14
ENDBRANCH  12  13
ENDBRANCH   9  12
ENDBRANCH   6   8
BRANCH   7  22
HETATM   22  C   UNL     1      41.426 -13.255   1.437  1.00  0.00    -0.020 A 
HETATM   23  C   UNL     1      40.226 -12.659   1.841  1.00  0.00     0.014 A 
HETATM   24  C   UNL     1      40.082 -12.199   3.153  1.00  0.00     0.020 A 
HETATM   25  C   UNL     1      41.134 -12.342   4.059  1.00  0.00     0.011 A 
HETATM   26 BR   UNL     1      40.946 -11.698   5.826  1.00  0.00    -0.051 Br
HETATM   27  C   UNL     1      42.325 -12.949   3.671  1.00  0.00     0.020 A 
HETATM   28  C   UNL     1      42.470 -13.406   2.360  1.00  0.00     0.014 A 
ENDBRANCH   7  22
TORSDOF 5
ENDMDL
MODEL 8
REMARK VINA RESULT:      -7.7      4.105      7.050
REMARK  5 active torsions:
REMARK  status: ('A' for Active; 'I' for Inactive)
REMARK    1  A    between atoms: C_6  and  N_7 
REMARK       I    between atoms: N_7  and  C_8 
REMARK    2  A    between atoms: C_8  and  C_9 
REMARK    3  A    between atoms: C_9  and  O_10 
REMARK    4  A    between atoms: O_10  and  C_11 
REMARK    5  A    between atoms: C_20  and  C_21 
ROOT
HETATM    1  C   UNL     1      44.670 -14.511   6.403  1.00  0.00     0.073 C 
HETATM    2  C   UNL     1      43.268 -14.409   5.926  1.00  0.00     0.065 A 
HETATM    3  N   UNL     1      42.488 -13.407   6.349  1.00  0.00    -0.177 NA
HETATM    4  N   UNL     1      41.307 -13.640   5.755  1.00  0.00    -0.262 N 
HETATM    5  H   UNL     1      40.553 -12.976   5.910  1.00  0.00     0.191 HD
HETATM    6  C   UNL     1      41.292 -14.758   4.963  1.00  0.00     0.137 A 
HETATM    7  C   UNL     1      42.569 -15.280   5.047  1.00  0.00     0.046 A 
ENDROOT
BRANCH   6   8
HETATM    8  N   UNL     1      40.221 -15.183   4.202  1.00  0.00    -0.309 N 
HETATM    9  C   UNL     1      39.968 -14.928   2.880  1.00  0.00     0.247 C 
HETATM   10  O   UNL     1      39.110 -15.593   2.295  1.00  0.00    -0.271 OA
HETATM   11  H   UNL     1      39.515 -15.753   4.656  1.00  0.00     0.170 HD
BRANCH   9  12
HETATM   12  C   UNL     1      40.617 -13.714   2.216  1.00  0.00     0.278 C 
BRANCH  12  13
HETATM   13  O   UNL     1      41.788 -14.035   1.480  1.00  0.00    -0.342 OA
BRANCH  13  14
HETATM   14  C   UNL     1      41.669 -13.937   0.116  1.00  0.00     0.072 A 
HETATM   15  C   UNL     1      41.211 -15.093  -0.522  1.00  0.00     0.082 A 
HETATM   16  C   UNL     1      41.054 -15.104  -1.907  1.00  0.00     0.157 A 
HETATM   17  F   UNL     1      40.601 -16.214  -2.505  1.00  0.00    -0.203 F 
HETATM   18  C   UNL     1      41.359 -13.979  -2.660  1.00  0.00     0.155 A 
HETATM   19  F   UNL     1      41.205 -13.992  -3.990  1.00  0.00    -0.203 F 
HETATM   20  C   UNL     1      41.828 -12.828  -2.040  1.00  0.00     0.048 A 
HETATM   21  C   UNL     1      41.986 -12.806  -0.651  1.00  0.00     0.040 A 
ENDBRANCH  13  14
ENDBRANCH  12  13
ENDBRANCH   9  12
ENDBRANCH   6   8
BRANCH   7  22
HETATM   22  C   UNL     1      42.955 -16.567   4.501  1.00  0.00    -0.020 A 
HETATM   23  C   UNL     1      42.939 -17.724   5.288  1.00  0.00     0.014 A 
HETATM   24  C   UNL     1      43.386 -18.937   4.756  1.00  0.00     0.020 A 
HETATM   25  C   UNL     1      43.840 -18.992   3.437  1.00  0.00     0.011 A 
HETATM   26 BR   UNL     1      44.466 -20.627   2.726  1.00  0.00    -0.051 Br
HETATM   27  C   UNL     1      43.843 -17.849   2.642  1.00  0.00     0.020 A 
HETATM   28  C   UNL     1      43.400 -16.637   3.174  1.00  0.00     0.014 A 
ENDBRANCH   7  22
TORSDOF 5
ENDMDL
MODEL 9
REMARK VINA RESULT:      -7.6      5.315      7.581
REMARK  5 active torsions:
REMARK  status: ('A' for Active; 'I' for Inactive)
REMARK    1  A    between atoms: C_6  and  N_7 
REMARK       I    between atoms: N_7  and  C_8 
REMARK    2  A    between atoms: C_8  and  C_9 
REMARK    3  A    between atoms: C_9  and  O_10 
REMARK    4  A    between atoms: O_10  and  C_11 
REMARK    5  A    between atoms: C_20  and  C_21 
ROOT
HETATM    1  C   UNL     1      45.033 -20.627   3.155  1.00  0.00     0.073 C 
HETATM    2  C   UNL     1      44.339 -19.892   4.242  1.00  0.00     0.065 A 
HETATM    3  N   UNL     1      44.448 -20.312   5.509  1.00  0.00    -0.177 NA
HETATM    4  N   UNL     1      43.686 -19.452   6.204  1.00  0.00    -0.262 N 
HETATM    5  H   UNL     1      43.641 -19.560   7.213  1.00  0.00     0.191 HD
HETATM    6  C   UNL     1      43.086 -18.491   5.433  1.00  0.00     0.137 A 
HETATM    7  C   UNL     1      43.503 -18.747   4.141  1.00  0.00     0.046 A 
ENDROOT
BRANCH   6   8
HETATM    8  N   UNL     1      42.301 -17.461   5.911  1.00  0.00    -0.309 N 
HETATM    9  C   UNL     1      42.689 -16.194   6.264  1.00  0.00     0.247 C 
HETATM   10  O   UNL     1      41.828 -15.326   6.424  1.00  0.00    -0.271 OA
HETATM   11  H   UNL     1      41.309 -17.637   6.030  1.00  0.00     0.170 HD
BRANCH   9  12
HETATM   12  C   UNL     1      44.150 -15.937   6.631  1.00  0.00     0.278 C 
BRANCH  12  13
HETATM   13  O   UNL     1      44.644 -14.700   6.138  1.00  0.00    -0.342 OA
BRANCH  13  14
HETATM   14  C   UNL     1      44.970 -13.774   7.097  1.00  0.00     0.072 A 
HETATM   15  C   UNL     1      46.228 -13.184   6.948  1.00  0.00     0.082 A 
HETATM   16  C   UNL     1      46.660 -12.231   7.867  1.00  0.00     0.157 A 
HETATM   17  F   UNL     1      47.862 -11.662   7.704  1.00  0.00    -0.203 F 
HETATM   18  C   UNL     1      45.855 -11.868   8.938  1.00  0.00     0.155 A 
HETATM   19  F   UNL     1      46.273 -10.949   9.818  1.00  0.00    -0.203 F 
HETATM   20  C   UNL     1      44.608 -12.456   9.107  1.00  0.00     0.048 A 
HETATM   21  C   UNL     1      44.164 -13.412   8.187  1.00  0.00     0.040 A 
ENDBRANCH  13  14
ENDBRANCH  12  13
ENDBRANCH   9  12
ENDBRANCH   6   8
BRANCH   7  22
HETATM   22  C   UNL     1      42.971 -18.078   2.970  1.00  0.00    -0.020 A 
HETATM   23  C   UNL     1      43.794 -17.738   1.891  1.00  0.00     0.014 A 
HETATM   24  C   UNL     1      43.267 -17.029   0.807  1.00  0.00     0.020 A 
HETATM   25  C   UNL     1      41.918 -16.670   0.801  1.00  0.00     0.011 A 
HETATM   26 BR   UNL     1      41.213 -15.691  -0.654  1.00  0.00    -0.051 Br
HETATM   27  C   UNL     1      41.088 -17.020   1.863  1.00  0.00     0.020 A 
HETATM   28  C   UNL     1      41.615 -17.725   2.946  1.00  0.00     0.014 A 
ENDBRANCH   7  22
TORSDOF 5
ENDMDL
MODEL 10
REMARK VINA RESULT:      -7.5      2.244      3.423
REMARK  5 active torsions:
REMARK  status: ('A' for Active; 'I' for Inactive)
REMARK    1  A    between atoms: C_6  and  N_7 
REMARK       I    between atoms: N_7  and  C_8 
REMARK    2  A    between atoms: C_8  and  C_9 
REMARK    3  A    between atoms: C_9  and  O_10 
REMARK    4  A    between atoms: O_10  and  C_11 
REMARK    5  A    between atoms: C_20  and  C_21 
ROOT
HETATM    1  C   UNL     1      39.460 -13.450   5.824  1.00  0.00     0.073 C 
HETATM    2  C   UNL     1      40.429 -14.123   4.922  1.00  0.00     0.065 A 
HETATM    3  N   UNL     1      41.519 -14.710   5.431  1.00  0.00    -0.177 NA
HETATM    4  N   UNL     1      42.169 -15.178   4.354  1.00  0.00    -0.262 N 
HETATM    5  H   UNL     1      43.029 -15.699   4.503  1.00  0.00     0.191 HD
HETATM    6  C   UNL     1      41.541 -14.915   3.165  1.00  0.00     0.137 A 
HETATM    7  C   UNL     1      40.390 -14.231   3.506  1.00  0.00     0.046 A 
ENDROOT
BRANCH   6   8
HETATM    8  N   UNL     1      41.974 -15.335   1.923  1.00  0.00    -0.309 N 
HETATM    9  C   UNL     1      42.041 -16.616   1.439  1.00  0.00     0.247 C 
HETATM   10  O   UNL     1      42.205 -16.792   0.230  1.00  0.00    -0.271 OA
HETATM   11  H   UNL     1      42.293 -14.628   1.269  1.00  0.00     0.170 HD
BRANCH   9  12
HETATM   12  C   UNL     1      42.097 -17.783   2.423  1.00  0.00     0.278 C 
BRANCH  12  13
HETATM   13  O   UNL     1      43.363 -17.930   3.051  1.00  0.00    -0.342 OA
BRANCH  13  14
HETATM   14  C   UNL     1      43.802 -19.223   3.193  1.00  0.00     0.072 A 
HETATM   15  C   UNL     1      43.523 -20.064   2.112  1.00  0.00     0.082 A 
HETATM   16  C   UNL     1      43.923 -21.398   2.152  1.00  0.00     0.157 A 
HETATM   17  F   UNL     1      43.663 -22.191   1.103  1.00  0.00    -0.203 F 
HETATM   18  C   UNL     1      44.590 -21.902   3.260  1.00  0.00     0.155 A 
HETATM   19  F   UNL     1      44.975 -23.184   3.293  1.00  0.00    -0.203 F 
HETATM   20  C   UNL     1      44.861 -21.080   4.346  1.00  0.00     0.048 A 
HETATM   21  C   UNL     1      44.466 -19.739   4.315  1.00  0.00     0.040 A 
ENDBRANCH  13  14
ENDBRANCH  12  13
ENDBRANCH   9  12
ENDBRANCH   6   8
BRANCH   7  22
HETATM   22  C   UNL     1      39.507 -13.601   2.543  1.00  0.00    -0.020 A 
HETATM   23  C   UNL     1      39.440 -12.208   2.422  1.00  0.00     0.014 A 
HETATM   24  C   UNL     1      38.527 -11.627   1.536  1.00  0.00     0.020 A 
HETATM   25  C   UNL     1      37.690 -12.439   0.770  1.00  0.00     0.011 A 
HETATM   26 BR   UNL     1      36.440 -11.653  -0.409  1.00  0.00    -0.051 Br
HETATM   27  C   UNL     1      37.762 -13.827   0.872  1.00  0.00     0.020 A 
HETATM   28  C   UNL     1      38.671 -14.406   1.758  1.00  0.00     0.014 A 
ENDBRANCH   7  22
TORSDOF 5
ENDMDL
