MODEL 1
REMARK VINA RESULT:      -8.0      0.000      0.000
REMARK  4 active torsions:
REMARK  status: ('A' for Active; 'I' for Inactive)
REMARK    1  A    between atoms: C_3  and  N_4 
REMARK    2  A    between atoms: C_5  and  C_6 
REMARK    3  A    between atoms: C_13  and  N_14 
REMARK       I    between atoms: N_14  and  C_15 
REMARK    4  A    between atoms: C_15  and  C_16 
ROOT
HETATM    1  C   UNL     1      42.355 -14.422   3.989  1.00  0.00     0.005 A 
HETATM    2  C   UNL     1      42.656 -15.769   3.795  1.00  0.00     0.031 A 
HETATM    3  C   UNL     1      43.365 -16.482   4.763  1.00  0.00     0.058 A 
HETATM    4  C   UNL     1      43.752 -15.833   5.945  1.00  0.00     0.061 A 
HETATM    5  C   UNL     1      43.469 -14.479   6.146  1.00  0.00     0.037 A 
HETATM    6  C   UNL     1      42.761 -13.781   5.160  1.00  0.00     0.029 A 
ENDROOT
BRANCH   5   7
HETATM    7  N   UNL     1      43.844 -13.759   7.295  1.00  0.00    -0.321 N 
HETATM    8  C   UNL     1      45.091 -13.254   7.623  1.00  0.00     0.279 C 
HETATM    9  O   UNL     1      46.096 -13.328   6.922  1.00  0.00    -0.265 OA
HETATM   10  H   UNL     1      43.116 -13.551   7.970  1.00  0.00     0.169 HD
BRANCH   8  11
HETATM   11  C   UNL     1      45.098 -12.580   8.910  1.00  0.00     0.142 A 
HETATM   12  O   UNL     1      44.436 -13.143   9.972  1.00  0.00    -0.317 OA
HETATM   13  C   UNL     1      44.611 -12.317  11.035  1.00  0.00     0.143 A 
HETATM   14  C   UNL     1      45.369 -11.227  10.682  1.00  0.00     0.027 A 
HETATM   15  C   UNL     1      45.685 -11.395   9.312  1.00  0.00     0.045 A 
ENDBRANCH   8  11
ENDBRANCH   5   7
BRANCH   3  16
HETATM   16  N   UNL     1      43.610 -17.847   4.546  1.00  0.00    -0.259 NA
HETATM   17  C   UNL     1      43.632 -18.254   3.318  1.00  0.00     0.146 C 
BRANCH  17  18
HETATM   18  C   UNL     1      43.891 -19.639   3.039  1.00  0.00     0.049 A 
HETATM   19  N   UNL     1      44.558 -20.475   3.905  1.00  0.00    -0.365 N 
HETATM   20  H   UNL     1      44.918 -20.176   4.804  1.00  0.00     0.165 HD
HETATM   21  C   UNL     1      44.651 -21.731   3.367  1.00  0.00     0.088 A 
HETATM   22  C   UNL     1      44.043 -21.707   2.132  1.00  0.00     0.019 A 
HETATM   23  C   UNL     1      43.564 -20.389   1.925  1.00  0.00     0.032 A 
ENDBRANCH  17  18
ENDBRANCH   3  16
TORSDOF 4
ENDMDL
MODEL 2
REMARK VINA RESULT:      -7.3      2.397      3.698
REMARK  4 active torsions:
REMARK  status: ('A' for Active; 'I' for Inactive)
REMARK    1  A    between atoms: C_3  and  N_4 
REMARK    2  A    between atoms: C_5  and  C_6 
REMARK    3  A    between atoms: C_13  and  N_14 
REMARK       I    between atoms: N_14  and  C_15 
REMARK    4  A    between atoms: C_15  and  C_16 
ROOT
HETATM    1  C   UNL     1      44.112 -17.684   5.940  1.00  0.00     0.005 A 
HETATM    2  C   UNL     1      43.362 -17.409   4.797  1.00  0.00     0.031 A 
HETATM    3  C   UNL     1      42.864 -16.125   4.570  1.00  0.00     0.058 A 
HETATM    4  C   UNL     1      43.144 -15.108   5.494  1.00  0.00     0.061 A 
HETATM    5  C   UNL     1      43.881 -15.373   6.652  1.00  0.00     0.037 A 
HETATM    6  C   UNL     1      44.368 -16.669   6.863  1.00  0.00     0.029 A 
ENDROOT
BRANCH   5   7
HETATM    7  N   UNL     1      44.182 -14.408   7.631  1.00  0.00    -0.321 N 
HETATM    8  C   UNL     1      45.184 -13.453   7.616  1.00  0.00     0.279 C 
HETATM    9  O   UNL     1      45.978 -13.270   6.699  1.00  0.00    -0.265 OA
HETATM   10  H   UNL     1      43.581 -14.374   8.448  1.00  0.00     0.169 HD
BRANCH   8  11
HETATM   11  C   UNL     1      45.197 -12.641   8.820  1.00  0.00     0.142 A 
HETATM   12  O   UNL     1      44.522 -13.072   9.935  1.00  0.00    -0.317 OA
HETATM   13  C   UNL     1      44.706 -12.136  10.901  1.00  0.00     0.143 A 
HETATM   14  C   UNL     1      45.483 -11.103  10.432  1.00  0.00     0.027 A 
HETATM   15  C   UNL     1      45.801 -11.427   9.090  1.00  0.00     0.045 A 
ENDBRANCH   8  11
ENDBRANCH   5   7
BRANCH   3  16
HETATM   16  N   UNL     1      42.150 -15.882   3.385  1.00  0.00    -0.259 NA
HETATM   17  C   UNL     1      42.824 -15.883   2.281  1.00  0.00     0.146 C 
BRANCH  17  18
HETATM   18  C   UNL     1      42.140 -15.652   1.038  1.00  0.00     0.049 A 
HETATM   19  N   UNL     1      41.834 -14.398   0.563  1.00  0.00    -0.365 N 
HETATM   20  H   UNL     1      42.065 -13.543   1.055  1.00  0.00     0.165 HD
HETATM   21  C   UNL     1      41.186 -14.497  -0.639  1.00  0.00     0.088 A 
HETATM   22  C   UNL     1      41.065 -15.834  -0.944  1.00  0.00     0.019 A 
HETATM   23  C   UNL     1      41.666 -16.563   0.112  1.00  0.00     0.032 A 
ENDBRANCH  17  18
ENDBRANCH   3  16
TORSDOF 4
ENDMDL
MODEL 3
REMARK VINA RESULT:      -7.2      2.783      8.282
REMARK  4 active torsions:
REMARK  status: ('A' for Active; 'I' for Inactive)
REMARK    1  A    between atoms: C_3  and  N_4 
REMARK    2  A    between atoms: C_5  and  C_6 
REMARK    3  A    between atoms: C_13  and  N_14 
REMARK       I    between atoms: N_14  and  C_15 
REMARK    4  A    between atoms: C_15  and  C_16 
ROOT
HETATM    1  C   UNL     1      40.709 -15.139   3.825  1.00  0.00     0.005 A 
HETATM    2  C   UNL     1      41.394 -14.269   4.672  1.00  0.00     0.031 A 
HETATM    3  C   UNL     1      42.616 -14.643   5.233  1.00  0.00     0.058 A 
HETATM    4  C   UNL     1      43.158 -15.897   4.917  1.00  0.00     0.061 A 
HETATM    5  C   UNL     1      42.476 -16.786   4.082  1.00  0.00     0.037 A 
HETATM    6  C   UNL     1      41.249 -16.392   3.533  1.00  0.00     0.029 A 
ENDROOT
BRANCH   5   7
HETATM    7  N   UNL     1      42.950 -18.066   3.740  1.00  0.00    -0.321 N 
HETATM    8  C   UNL     1      43.710 -18.435   2.642  1.00  0.00     0.279 C 
HETATM    9  O   UNL     1      44.132 -17.672   1.780  1.00  0.00    -0.265 OA
HETATM   10  H   UNL     1      42.741 -18.824   4.381  1.00  0.00     0.169 HD
BRANCH   8  11
HETATM   11  C   UNL     1      43.993 -19.860   2.616  1.00  0.00     0.142 A 
HETATM   12  O   UNL     1      43.689 -20.589   1.493  1.00  0.00    -0.317 OA
HETATM   13  C   UNL     1      44.060 -21.872   1.738  1.00  0.00     0.143 A 
HETATM   14  C   UNL     1      44.594 -21.990   2.999  1.00  0.00     0.027 A 
HETATM   15  C   UNL     1      44.551 -20.693   3.566  1.00  0.00     0.045 A 
ENDBRANCH   8  11
ENDBRANCH   5   7
BRANCH   3  16
HETATM   16  N   UNL     1      43.292 -13.719   6.046  1.00  0.00    -0.259 NA
HETATM   17  C   UNL     1      44.080 -14.200   6.952  1.00  0.00     0.146 C 
BRANCH  17  18
HETATM   18  C   UNL     1      44.807 -13.298   7.804  1.00  0.00     0.049 A 
HETATM   19  N   UNL     1      44.301 -12.792   8.980  1.00  0.00    -0.365 N 
HETATM   20  H   UNL     1      43.378 -13.016   9.332  1.00  0.00     0.165 HD
HETATM   21  C   UNL     1      45.220 -11.966   9.568  1.00  0.00     0.088 A 
HETATM   22  C   UNL     1      46.334 -11.930   8.760  1.00  0.00     0.019 A 
HETATM   23  C   UNL     1      46.074 -12.769   7.648  1.00  0.00     0.032 A 
ENDBRANCH  17  18
ENDBRANCH   3  16
TORSDOF 4
ENDMDL
MODEL 4
REMARK VINA RESULT:      -7.1      3.187      8.376
REMARK  4 active torsions:
REMARK  status: ('A' for Active; 'I' for Inactive)
REMARK    1  A    between atoms: C_3  and  N_4 
REMARK    2  A    between atoms: C_5  and  C_6 
REMARK    3  A    between atoms: C_13  and  N_14 
REMARK       I    between atoms: N_14  and  C_15 
REMARK    4  A    between atoms: C_15  and  C_16 
ROOT
HETATM    1  C   UNL     1      44.305 -18.176   5.882  1.00  0.00     0.005 A 
HETATM    2  C   UNL     1      44.474 -17.207   6.870  1.00  0.00     0.031 A 
HETATM    3  C   UNL     1      44.089 -15.886   6.639  1.00  0.00     0.058 A 
HETATM    4  C   UNL     1      43.509 -15.547   5.407  1.00  0.00     0.061 A 
HETATM    5  C   UNL     1      43.347 -16.505   4.402  1.00  0.00     0.037 A 
HETATM    6  C   UNL     1      43.745 -17.824   4.653  1.00  0.00     0.029 A 
ENDROOT
BRANCH   5   7
HETATM    7  N   UNL     1      42.794 -16.232   3.138  1.00  0.00    -0.321 N 
HETATM    8  C   UNL     1      41.489 -15.886   2.829  1.00  0.00     0.279 C 
HETATM    9  O   UNL     1      40.584 -15.725   3.641  1.00  0.00    -0.265 OA
HETATM   10  H   UNL     1      43.421 -16.261   2.341  1.00  0.00     0.169 HD
BRANCH   8  11
HETATM   11  C   UNL     1      41.286 -15.699   1.402  1.00  0.00     0.142 A 
HETATM   12  O   UNL     1      40.584 -14.607   0.956  1.00  0.00    -0.317 OA
HETATM   13  C   UNL     1      40.553 -14.679  -0.400  1.00  0.00     0.143 A 
HETATM   14  C   UNL     1      41.217 -15.800  -0.841  1.00  0.00     0.027 A 
HETATM   15  C   UNL     1      41.690 -16.458   0.320  1.00  0.00     0.045 A 
ENDBRANCH   8  11
ENDBRANCH   5   7
BRANCH   3  16
HETATM   16  N   UNL     1      44.238 -14.952   7.677  1.00  0.00    -0.259 NA
HETATM   17  C   UNL     1      44.806 -13.828   7.380  1.00  0.00     0.146 C 
BRANCH  17  18
HETATM   18  C   UNL     1      44.972 -12.831   8.402  1.00  0.00     0.049 A 
HETATM   19  N   UNL     1      44.046 -12.601   9.394  1.00  0.00    -0.365 N 
HETATM   20  H   UNL     1      43.178 -13.115   9.477  1.00  0.00     0.165 HD
HETATM   21  C   UNL     1      44.481 -11.596  10.216  1.00  0.00     0.088 A 
HETATM   22  C   UNL     1      45.701 -11.164   9.747  1.00  0.00     0.019 A 
HETATM   23  C   UNL     1      46.011 -11.942   8.604  1.00  0.00     0.032 A 
ENDBRANCH  17  18
ENDBRANCH   3  16
TORSDOF 4
ENDMDL
MODEL 5
REMARK VINA RESULT:      -7.0      4.212      8.772
REMARK  4 active torsions:
REMARK  status: ('A' for Active; 'I' for Inactive)
REMARK    1  A    between atoms: C_3  and  N_4 
REMARK    2  A    between atoms: C_5  and  C_6 
REMARK    3  A    between atoms: C_13  and  N_14 
REMARK       I    between atoms: N_14  and  C_15 
REMARK    4  A    between atoms: C_15  and  C_16 
ROOT
HETATM    1  C   UNL     1      39.838 -15.372   2.104  1.00  0.00     0.005 A 
HETATM    2  C   UNL     1      39.784 -14.604   3.265  1.00  0.00     0.031 A 
HETATM    3  C   UNL     1      40.499 -14.986   4.401  1.00  0.00     0.058 A 
HETATM    4  C   UNL     1      41.292 -16.143   4.354  1.00  0.00     0.061 A 
HETATM    5  C   UNL     1      41.344 -16.931   3.201  1.00  0.00     0.037 A 
HETATM    6  C   UNL     1      40.615 -16.531   2.074  1.00  0.00     0.029 A 
ENDROOT
BRANCH   5   7
HETATM    7  N   UNL     1      42.099 -18.113   3.089  1.00  0.00    -0.321 N 
HETATM    8  C   UNL     1      43.395 -18.262   2.624  1.00  0.00     0.279 C 
HETATM    9  O   UNL     1      44.127 -17.352   2.253  1.00  0.00    -0.265 OA
HETATM   10  H   UNL     1      41.666 -18.972   3.411  1.00  0.00     0.169 HD
BRANCH   8  11
HETATM   11  C   UNL     1      43.835 -19.647   2.640  1.00  0.00     0.142 A 
HETATM   12  O   UNL     1      43.485 -20.479   1.606  1.00  0.00    -0.317 OA
HETATM   13  C   UNL     1      44.028 -21.696   1.871  1.00  0.00     0.143 A 
HETATM   14  C   UNL     1      44.718 -21.669   3.059  1.00  0.00     0.027 A 
HETATM   15  C   UNL     1      44.595 -20.349   3.556  1.00  0.00     0.045 A 
ENDBRANCH   8  11
ENDBRANCH   5   7
BRANCH   3  16
HETATM   16  N   UNL     1      40.450 -14.160   5.536  1.00  0.00    -0.259 NA
HETATM   17  C   UNL     1      39.697 -13.110   5.467  1.00  0.00     0.146 C 
BRANCH  17  18
HETATM   18  C   UNL     1      39.601 -12.237   6.605  1.00  0.00     0.049 A 
HETATM   19  N   UNL     1      39.193 -12.657   7.851  1.00  0.00    -0.365 N 
HETATM   20  H   UNL     1      38.929 -13.613   8.058  1.00  0.00     0.165 HD
HETATM   21  C   UNL     1      39.203 -11.606   8.727  1.00  0.00     0.088 A 
HETATM   22  C   UNL     1      39.616 -10.487   8.038  1.00  0.00     0.019 A 
HETATM   23  C   UNL     1      39.867 -10.884   6.701  1.00  0.00     0.032 A 
ENDBRANCH  17  18
ENDBRANCH   3  16
TORSDOF 4
ENDMDL
MODEL 6
REMARK VINA RESULT:      -6.9      2.529      4.567
REMARK  4 active torsions:
REMARK  status: ('A' for Active; 'I' for Inactive)
REMARK    1  A    between atoms: C_3  and  N_4 
REMARK    2  A    between atoms: C_5  and  C_6 
REMARK    3  A    between atoms: C_13  and  N_14 
REMARK       I    between atoms: N_14  and  C_15 
REMARK    4  A    between atoms: C_15  and  C_16 
ROOT
HETATM    1  C   UNL     1      46.891 -12.149   7.772  1.00  0.00     0.005 A 
HETATM    2  C   UNL     1      46.353 -13.172   6.994  1.00  0.00     0.031 A 
HETATM    3  C   UNL     1      45.077 -13.671   7.264  1.00  0.00     0.058 A 
HETATM    4  C   UNL     1      44.334 -13.115   8.316  1.00  0.00     0.061 A 
HETATM    5  C   UNL     1      44.867 -12.099   9.114  1.00  0.00     0.037 A 
HETATM    6  C   UNL     1      46.150 -11.616   8.828  1.00  0.00     0.029 A 
ENDROOT
BRANCH   5   7
HETATM    7  N   UNL     1      44.188 -11.510  10.196  1.00  0.00    -0.321 N 
HETATM    8  C   UNL     1      43.951 -12.043  11.453  1.00  0.00     0.279 C 
HETATM    9  O   UNL     1      44.337 -13.138  11.846  1.00  0.00    -0.265 OA
HETATM   10  H   UNL     1      43.844 -10.564  10.069  1.00  0.00     0.169 HD
BRANCH   8  11
HETATM   11  C   UNL     1      43.194 -11.141  12.305  1.00  0.00     0.142 A 
HETATM   12  O   UNL     1      41.925 -11.487  12.697  1.00  0.00    -0.317 OA
HETATM   13  C   UNL     1      41.462 -10.480  13.482  1.00  0.00     0.143 A 
HETATM   14  C   UNL     1      42.404  -9.487  13.602  1.00  0.00     0.027 A 
HETATM   15  C   UNL     1      43.522  -9.911  12.844  1.00  0.00     0.045 A 
ENDBRANCH   8  11
ENDBRANCH   5   7
BRANCH   3  16
HETATM   16  N   UNL     1      44.557 -14.672   6.429  1.00  0.00    -0.259 NA
HETATM   17  C   UNL     1      43.810 -15.572   6.984  1.00  0.00     0.146 C 
BRANCH  17  18
HETATM   18  C   UNL     1      43.241 -16.613   6.172  1.00  0.00     0.049 A 
HETATM   19  N   UNL     1      43.989 -17.443   5.369  1.00  0.00    -0.365 N 
HETATM   20  H   UNL     1      44.997 -17.381   5.289  1.00  0.00     0.165 HD
HETATM   21  C   UNL     1      43.173 -18.330   4.722  1.00  0.00     0.088 A 
HETATM   22  C   UNL     1      41.876 -18.067   5.104  1.00  0.00     0.019 A 
HETATM   23  C   UNL     1      41.919 -16.985   6.018  1.00  0.00     0.032 A 
ENDBRANCH  17  18
ENDBRANCH   3  16
TORSDOF 4
ENDMDL
MODEL 7
REMARK VINA RESULT:      -6.9      3.082      9.390
REMARK  4 active torsions:
REMARK  status: ('A' for Active; 'I' for Inactive)
REMARK    1  A    between atoms: C_3  and  N_4 
REMARK    2  A    between atoms: C_5  and  C_6 
REMARK    3  A    between atoms: C_13  and  N_14 
REMARK       I    between atoms: N_14  and  C_15 
REMARK    4  A    between atoms: C_15  and  C_16 
ROOT
HETATM    1  C   UNL     1      46.871 -11.792   8.114  1.00  0.00     0.005 A 
HETATM    2  C   UNL     1      46.270 -11.069   9.143  1.00  0.00     0.031 A 
HETATM    3  C   UNL     1      45.010 -11.431   9.620  1.00  0.00     0.058 A 
HETATM    4  C   UNL     1      44.364 -12.547   9.068  1.00  0.00     0.061 A 
HETATM    5  C   UNL     1      44.948 -13.273   8.026  1.00  0.00     0.037 A 
HETATM    6  C   UNL     1      46.211 -12.889   7.558  1.00  0.00     0.029 A 
ENDROOT
BRANCH   5   7
HETATM    7  N   UNL     1      44.349 -14.387   7.411  1.00  0.00    -0.321 N 
HETATM    8  C   UNL     1      43.621 -14.430   6.233  1.00  0.00     0.279 C 
HETATM    9  O   UNL     1      43.402 -13.474   5.497  1.00  0.00    -0.265 OA
HETATM   10  H   UNL     1      44.478 -15.289   7.858  1.00  0.00     0.169 HD
BRANCH   8  11
HETATM   11  C   UNL     1      43.141 -15.766   5.924  1.00  0.00     0.142 A 
HETATM   12  O   UNL     1      43.070 -16.173   4.615  1.00  0.00    -0.317 OA
HETATM   13  C   UNL     1      42.601 -17.447   4.618  1.00  0.00     0.143 A 
HETATM   14  C   UNL     1      42.361 -17.872   5.904  1.00  0.00     0.027 A 
HETATM   15  C   UNL     1      42.709 -16.789   6.747  1.00  0.00     0.045 A 
ENDBRANCH   8  11
ENDBRANCH   5   7
BRANCH   3  16
HETATM   16  N   UNL     1      44.460 -10.701  10.686  1.00  0.00    -0.259 NA
HETATM   17  C   UNL     1      43.689 -11.343  11.503  1.00  0.00     0.146 C 
BRANCH  17  18
HETATM   18  C   UNL     1      43.109 -10.646  12.619  1.00  0.00     0.049 A 
HETATM   19  N   UNL     1      41.929 -11.023  13.218  1.00  0.00    -0.365 N 
HETATM   20  H   UNL     1      41.380 -11.819  12.916  1.00  0.00     0.165 HD
HETATM   21  C   UNL     1      41.635 -10.173  14.250  1.00  0.00     0.088 A 
HETATM   22  C   UNL     1      42.633  -9.227  14.316  1.00  0.00     0.019 A 
HETATM   23  C   UNL     1      43.563  -9.525  13.289  1.00  0.00     0.032 A 
ENDBRANCH  17  18
ENDBRANCH   3  16
TORSDOF 4
ENDMDL
MODEL 8
REMARK VINA RESULT:      -6.9      6.121      7.733
REMARK  4 active torsions:
REMARK  status: ('A' for Active; 'I' for Inactive)
REMARK    1  A    between atoms: C_3  and  N_4 
REMARK    2  A    between atoms: C_5  and  C_6 
REMARK    3  A    between atoms: C_13  and  N_14 
REMARK       I    between atoms: N_14  and  C_15 
REMARK    4  A    between atoms: C_15  and  C_16 
ROOT
HETATM    1  C   UNL     1      39.537 -15.372   1.963  1.00  0.00     0.005 A 
HETATM    2  C   UNL     1      40.182 -16.600   2.110  1.00  0.00     0.031 A 
HETATM    3  C   UNL     1      41.237 -16.950   1.266  1.00  0.00     0.058 A 
HETATM    4  C   UNL     1      41.657 -16.042   0.283  1.00  0.00     0.061 A 
HETATM    5  C   UNL     1      41.011 -14.815   0.115  1.00  0.00     0.037 A 
HETATM    6  C   UNL     1      39.951 -14.485   0.969  1.00  0.00     0.029 A 
ENDROOT
BRANCH   5   7
HETATM    7  N   UNL     1      41.364 -13.867  -0.863  1.00  0.00    -0.321 N 
HETATM    8  C   UNL     1      42.072 -12.687  -0.699  1.00  0.00     0.279 C 
HETATM    9  O   UNL     1      42.546 -12.283   0.357  1.00  0.00    -0.265 OA
HETATM   10  H   UNL     1      41.100 -14.068  -1.822  1.00  0.00     0.169 HD
BRANCH   8  11
HETATM   11  C   UNL     1      42.227 -11.954  -1.944  1.00  0.00     0.142 A 
HETATM   12  O   UNL     1      42.402 -10.593  -1.910  1.00  0.00    -0.317 OA
HETATM   13  C   UNL     1      42.526 -10.175  -3.196  1.00  0.00     0.143 A 
HETATM   14  C   UNL     1      42.429 -11.237  -4.063  1.00  0.00     0.027 A 
HETATM   15  C   UNL     1      42.237 -12.386  -3.257  1.00  0.00     0.045 A 
ENDBRANCH   8  11
ENDBRANCH   5   7
BRANCH   3  16
HETATM   16  N   UNL     1      41.886 -18.178   1.476  1.00  0.00    -0.259 NA
HETATM   17  C   UNL     1      42.817 -18.206   2.374  1.00  0.00     0.146 C 
BRANCH  17  18
HETATM   18  C   UNL     1      43.504 -19.440   2.637  1.00  0.00     0.049 A 
HETATM   19  N   UNL     1      44.245 -19.668   3.775  1.00  0.00    -0.365 N 
HETATM   20  H   UNL     1      44.363 -18.981   4.510  1.00  0.00     0.165 HD
HETATM   21  C   UNL     1      44.777 -20.929   3.744  1.00  0.00     0.088 A 
HETATM   22  C   UNL     1      44.381 -21.525   2.567  1.00  0.00     0.019 A 
HETATM   23  C   UNL     1      43.579 -20.587   1.870  1.00  0.00     0.032 A 
ENDBRANCH  17  18
ENDBRANCH   3  16
TORSDOF 4
ENDMDL
MODEL 9
REMARK VINA RESULT:      -6.9      4.467      8.290
REMARK  4 active torsions:
REMARK  status: ('A' for Active; 'I' for Inactive)
REMARK    1  A    between atoms: C_3  and  N_4 
REMARK    2  A    between atoms: C_5  and  C_6 
REMARK    3  A    between atoms: C_13  and  N_14 
REMARK       I    between atoms: N_14  and  C_15 
REMARK    4  A    between atoms: C_15  and  C_16 
ROOT
HETATM    1  C   UNL     1      40.929 -15.712   6.000  1.00  0.00     0.005 A 
HETATM    2  C   UNL     1      40.384 -14.860   5.040  1.00  0.00     0.031 A 
HETATM    3  C   UNL     1      40.489 -15.164   3.682  1.00  0.00     0.058 A 
HETATM    4  C   UNL     1      41.132 -16.349   3.294  1.00  0.00     0.061 A 
HETATM    5  C   UNL     1      41.696 -17.205   4.244  1.00  0.00     0.037 A 
HETATM    6  C   UNL     1      41.582 -16.879   5.601  1.00  0.00     0.029 A 
ENDROOT
BRANCH   5   7
HETATM    7  N   UNL     1      42.372 -18.397   3.925  1.00  0.00    -0.321 N 
HETATM    8  C   UNL     1      43.520 -18.556   3.168  1.00  0.00     0.279 C 
HETATM    9  O   UNL     1      44.171 -17.648   2.663  1.00  0.00    -0.265 OA
HETATM   10  H   UNL     1      42.001 -19.258   4.314  1.00  0.00     0.169 HD
BRANCH   8  11
HETATM   11  C   UNL     1      43.913 -19.949   3.040  1.00  0.00     0.142 A 
HETATM   12  O   UNL     1      44.449 -20.603   4.122  1.00  0.00    -0.317 OA
HETATM   13  C   UNL     1      44.715 -21.875   3.728  1.00  0.00     0.143 A 
HETATM   14  C   UNL     1      44.367 -22.057   2.410  1.00  0.00     0.027 A 
HETATM   15  C   UNL     1      43.850 -20.816   1.965  1.00  0.00     0.045 A 
ENDBRANCH   8  11
ENDBRANCH   5   7
BRANCH   3  16
HETATM   16  N   UNL     1      39.889 -14.300   2.752  1.00  0.00    -0.259 NA
HETATM   17  C   UNL     1      39.099 -14.833   1.878  1.00  0.00     0.146 C 
BRANCH  17  18
HETATM   18  C   UNL     1      38.448 -13.992   0.911  1.00  0.00     0.049 A 
HETATM   19  N   UNL     1      38.537 -14.191  -0.448  1.00  0.00    -0.365 N 
HETATM   20  H   UNL     1      39.069 -14.944  -0.868  1.00  0.00     0.165 HD
HETATM   21  C   UNL     1      37.814 -13.235  -1.110  1.00  0.00     0.088 A 
HETATM   22  C   UNL     1      37.255 -12.401  -0.168  1.00  0.00     0.019 A 
HETATM   23  C   UNL     1      37.654 -12.877   1.106  1.00  0.00     0.032 A 
ENDBRANCH  17  18
ENDBRANCH   3  16
TORSDOF 4
ENDMDL
MODEL 10
REMARK VINA RESULT:      -6.8      2.730      4.737
REMARK  4 active torsions:
REMARK  status: ('A' for Active; 'I' for Inactive)
REMARK    1  A    between atoms: C_3  and  N_4 
REMARK    2  A    between atoms: C_5  and  C_6 
REMARK    3  A    between atoms: C_13  and  N_14 
REMARK       I    between atoms: N_14  and  C_15 
REMARK    4  A    between atoms: C_15  and  C_16 
ROOT
HETATM    1  C   UNL     1      43.896 -17.177   5.740  1.00  0.00     0.005 A 
HETATM    2  C   UNL     1      42.975 -16.891   4.733  1.00  0.00     0.031 A 
HETATM    3  C   UNL     1      42.388 -15.627   4.649  1.00  0.00     0.058 A 
HETATM    4  C   UNL     1      42.751 -14.641   5.578  1.00  0.00     0.061 A 
HETATM    5  C   UNL     1      43.662 -14.918   6.601  1.00  0.00     0.037 A 
HETATM    6  C   UNL     1      44.236 -16.193   6.670  1.00  0.00     0.029 A 
ENDROOT
BRANCH   5   7
HETATM    7  N   UNL     1      44.055 -13.985   7.578  1.00  0.00    -0.321 N 
HETATM    8  C   UNL     1      45.207 -13.218   7.617  1.00  0.00     0.279 C 
HETATM    9  O   UNL     1      46.084 -13.206   6.759  1.00  0.00    -0.265 OA
HETATM   10  H   UNL     1      43.414 -13.819   8.347  1.00  0.00     0.169 HD
BRANCH   8  11
HETATM   11  C   UNL     1      45.276 -12.377   8.800  1.00  0.00     0.142 A 
HETATM   12  O   UNL     1      46.004 -11.214   8.762  1.00  0.00    -0.317 OA
HETATM   13  C   UNL     1      45.891 -10.632   9.984  1.00  0.00     0.143 A 
HETATM   14  C   UNL     1      45.108 -11.398  10.814  1.00  0.00     0.027 A 
HETATM   15  C   UNL     1      44.711 -12.523  10.052  1.00  0.00     0.045 A 
ENDBRANCH   8  11
ENDBRANCH   5   7
BRANCH   3  16
HETATM   16  N   UNL     1      41.498 -15.369   3.594  1.00  0.00    -0.259 NA
HETATM   17  C   UNL     1      40.533 -14.540   3.828  1.00  0.00     0.146 C 
BRANCH  17  18
HETATM   18  C   UNL     1      39.601 -14.230   2.778  1.00  0.00     0.049 A 
HETATM   19  N   UNL     1      38.873 -15.184   2.105  1.00  0.00    -0.365 N 
HETATM   20  H   UNL     1      38.941 -16.177   2.297  1.00  0.00     0.165 HD
HETATM   21  C   UNL     1      38.074 -14.589   1.166  1.00  0.00     0.088 A 
HETATM   22  C   UNL     1      38.292 -13.230   1.227  1.00  0.00     0.019 A 
HETATM   23  C   UNL     1      39.254 -13.004   2.242  1.00  0.00     0.032 A 
ENDBRANCH  17  18
ENDBRANCH   3  16
TORSDOF 4
ENDMDL
