MODEL 1
REMARK VINA RESULT:      -7.9      0.000      0.000
REMARK  6 active torsions:
REMARK  status: ('A' for Active; 'I' for Inactive)
REMARK    1  A    between atoms: C_2  and  O_3 
REMARK    2  A    between atoms: O_3  and  C_4 
REMARK    3  A    between atoms: C_8  and  C_9 
REMARK    4  A    between atoms: C_9  and  N_10 
REMARK       I    between atoms: N_10  and  C_11 
REMARK       I    between atoms: C_11  and  N_12 
REMARK    5  A    between atoms: N_12  and  C_13 
REMARK    6  A    between atoms: C_14  and  C_15 
ROOT
HETATM    1  N   UNL     1      40.796 -15.589   1.089  1.00  0.00    -0.339 N 
HETATM    2  C   UNL     1      41.492 -15.188   2.190  1.00  0.00     0.316 C 
HETATM    3  N   UNL     1      42.353 -16.097   2.725  1.00  0.00    -0.338 N 
HETATM    4  O   UNL     1      41.371 -14.081   2.707  1.00  0.00    -0.247 OA
HETATM    5  H   UNL     1      41.214 -16.326   0.545  1.00  0.00     0.164 HD
HETATM    6  H   UNL     1      42.835 -15.738   3.542  1.00  0.00     0.164 HD
ENDROOT
BRANCH   1   7
HETATM    7  C   UNL     1      39.975 -14.622   0.401  1.00  0.00     0.163 C 
BRANCH   7   8
HETATM    8  C   UNL     1      40.351 -14.462  -1.044  1.00  0.00    -0.035 A 
HETATM    9  C   UNL     1      40.890 -15.531  -1.764  1.00  0.00     0.028 A 
HETATM   10  C   UNL     1      41.294 -15.316  -3.072  1.00  0.00     0.120 A 
HETATM   11  N   UNL     1      41.209 -14.125  -3.698  1.00  0.00    -0.237 NA
HETATM   12  C   UNL     1      40.702 -13.100  -2.988  1.00  0.00     0.165 A 
HETATM   13  C   UNL     1      40.246 -13.222  -1.685  1.00  0.00     0.066 A 
BRANCH  12  14
HETATM   14  O   UNL     1      40.567 -11.861  -3.569  1.00  0.00    -0.324 OA
BRANCH  14  15
HETATM   15  C   UNL     1      41.704 -10.975  -3.586  1.00  0.00     0.058 C 
HETATM   16  C   UNL     1      42.392 -10.911  -4.958  1.00  0.00     0.045 C 
HETATM   17  C   UNL     1      42.702 -11.272  -2.455  1.00  0.00     0.045 C 
HETATM   18  C   UNL     1      41.090  -9.588  -3.313  1.00  0.00     0.045 C 
ENDBRANCH  14  15
ENDBRANCH  12  14
ENDBRANCH   7   8
ENDBRANCH   1   7
BRANCH   3  19
HETATM   19  C   UNL     1      42.628 -17.433   2.308  1.00  0.00     0.095 A 
HETATM   20  C   UNL     1      43.991 -18.076   2.464  1.00  0.00     0.043 A 
HETATM   21  C   UNL     1      43.509 -17.621   1.106  1.00  0.00     0.037 A 
BRANCH  20  22
HETATM   22  C   UNL     1      44.140 -19.563   2.700  1.00  0.00    -0.052 A 
HETATM   23  C   UNL     1      44.640 -20.050   3.921  1.00  0.00     0.007 A 
HETATM   24  C   UNL     1      44.794 -21.418   4.156  1.00  0.00     0.001 A 
HETATM   25  C   UNL     1      44.438 -22.336   3.172  1.00  0.00     0.000 A 
HETATM   26  C   UNL     1      43.922 -21.882   1.961  1.00  0.00     0.001 A 
HETATM   27  C   UNL     1      43.771 -20.511   1.732  1.00  0.00     0.007 A 
ENDBRANCH  20  22
ENDBRANCH   3  19
TORSDOF 6
ENDMDL
MODEL 2
REMARK VINA RESULT:      -7.9      1.633      2.372
REMARK  6 active torsions:
REMARK  status: ('A' for Active; 'I' for Inactive)
REMARK    1  A    between atoms: C_2  and  O_3 
REMARK    2  A    between atoms: O_3  and  C_4 
REMARK    3  A    between atoms: C_8  and  C_9 
REMARK    4  A    between atoms: C_9  and  N_10 
REMARK       I    between atoms: N_10  and  C_11 
REMARK       I    between atoms: C_11  and  N_12 
REMARK    5  A    between atoms: N_12  and  C_13 
REMARK    6  A    between atoms: C_14  and  C_15 
ROOT
HETATM    1  N   UNL     1      40.438 -15.598   3.064  1.00  0.00    -0.339 N 
HETATM    2  C   UNL     1      41.594 -15.213   3.676  1.00  0.00     0.316 C 
HETATM    3  N   UNL     1      42.596 -16.132   3.709  1.00  0.00    -0.338 N 
HETATM    4  O   UNL     1      41.756 -14.109   4.190  1.00  0.00    -0.247 OA
HETATM    5  H   UNL     1      40.523 -16.333   2.381  1.00  0.00     0.164 HD
HETATM    6  H   UNL     1      43.424 -15.784   4.180  1.00  0.00     0.164 HD
ENDROOT
BRANCH   1   7
HETATM    7  C   UNL     1      39.395 -14.619   2.879  1.00  0.00     0.163 C 
BRANCH   7   8
HETATM    8  C   UNL     1      39.142 -14.303   1.432  1.00  0.00    -0.035 A 
HETATM    9  C   UNL     1      37.840 -14.134   0.956  1.00  0.00     0.028 A 
HETATM   10  C   UNL     1      37.650 -13.921  -0.400  1.00  0.00     0.120 A 
HETATM   11  N   UNL     1      38.652 -13.876  -1.301  1.00  0.00    -0.237 NA
HETATM   12  C   UNL     1      39.900 -14.055  -0.831  1.00  0.00     0.165 A 
HETATM   13  C   UNL     1      40.194 -14.247   0.511  1.00  0.00     0.066 A 
BRANCH  12  14
HETATM   14  O   UNL     1      40.974 -14.002  -1.688  1.00  0.00    -0.324 OA
BRANCH  14  15
HETATM   15  C   UNL     1      41.312 -12.742  -2.300  1.00  0.00     0.058 C 
HETATM   16  C   UNL     1      41.023 -11.539  -1.391  1.00  0.00     0.045 C 
HETATM   17  C   UNL     1      40.685 -12.574  -3.693  1.00  0.00     0.045 C 
HETATM   18  C   UNL     1      42.840 -12.824  -2.485  1.00  0.00     0.045 C 
ENDBRANCH  14  15
ENDBRANCH  12  14
ENDBRANCH   7   8
ENDBRANCH   1   7
BRANCH   3  19
HETATM   19  C   UNL     1      42.615 -17.466   3.204  1.00  0.00     0.095 A 
HETATM   20  C   UNL     1      43.878 -18.137   2.707  1.00  0.00     0.043 A 
HETATM   21  C   UNL     1      42.833 -17.651   1.729  1.00  0.00     0.037 A 
BRANCH  20  22
HETATM   22  C   UNL     1      44.082 -19.631   2.838  1.00  0.00    -0.052 A 
HETATM   23  C   UNL     1      44.625 -20.181   4.014  1.00  0.00     0.007 A 
HETATM   24  C   UNL     1      44.831 -21.555   4.151  1.00  0.00     0.001 A 
HETATM   25  C   UNL     1      44.486 -22.416   3.115  1.00  0.00     0.000 A 
HETATM   26  C   UNL     1      43.929 -21.901   1.947  1.00  0.00     0.001 A 
HETATM   27  C   UNL     1      43.726 -20.524   1.815  1.00  0.00     0.007 A 
ENDBRANCH  20  22
ENDBRANCH   3  19
TORSDOF 6
ENDMDL
MODEL 3
REMARK VINA RESULT:      -7.9      7.556     10.572
REMARK  6 active torsions:
REMARK  status: ('A' for Active; 'I' for Inactive)
REMARK    1  A    between atoms: C_2  and  O_3 
REMARK    2  A    between atoms: O_3  and  C_4 
REMARK    3  A    between atoms: C_8  and  C_9 
REMARK    4  A    between atoms: C_9  and  N_10 
REMARK       I    between atoms: N_10  and  C_11 
REMARK       I    between atoms: C_11  and  N_12 
REMARK    5  A    between atoms: N_12  and  C_13 
REMARK    6  A    between atoms: C_14  and  C_15 
ROOT
HETATM    1  N   UNL     1      44.407 -14.005   7.893  1.00  0.00    -0.339 N 
HETATM    2  C   UNL     1      45.345 -13.017   7.851  1.00  0.00     0.316 C 
HETATM    3  N   UNL     1      45.248 -12.049   8.803  1.00  0.00    -0.338 N 
HETATM    4  O   UNL     1      46.240 -12.963   7.012  1.00  0.00    -0.247 OA
HETATM    5  H   UNL     1      43.973 -14.165   8.787  1.00  0.00     0.164 HD
HETATM    6  H   UNL     1      45.971 -11.345   8.713  1.00  0.00     0.164 HD
ENDROOT
BRANCH   1   7
HETATM    7  C   UNL     1      44.545 -15.127   6.997  1.00  0.00     0.163 C 
BRANCH   7   8
HETATM    8  C   UNL     1      43.444 -15.197   5.978  1.00  0.00    -0.035 A 
HETATM    9  C   UNL     1      42.566 -14.125   5.801  1.00  0.00     0.028 A 
HETATM   10  C   UNL     1      41.518 -14.264   4.905  1.00  0.00     0.120 A 
HETATM   11  N   UNL     1      41.284 -15.385   4.192  1.00  0.00    -0.237 NA
HETATM   12  C   UNL     1      42.128 -16.414   4.382  1.00  0.00     0.165 A 
HETATM   13  C   UNL     1      43.220 -16.362   5.236  1.00  0.00     0.066 A 
BRANCH  12  14
HETATM   14  O   UNL     1      41.963 -17.581   3.675  1.00  0.00    -0.324 OA
BRANCH  14  15
HETATM   15  C   UNL     1      42.388 -17.625   2.299  1.00  0.00     0.058 C 
HETATM   16  C   UNL     1      43.563 -16.681   2.005  1.00  0.00     0.045 C 
HETATM   17  C   UNL     1      41.226 -17.422   1.314  1.00  0.00     0.045 C 
HETATM   18  C   UNL     1      42.901 -19.068   2.120  1.00  0.00     0.045 C 
ENDBRANCH  14  15
ENDBRANCH  12  14
ENDBRANCH   7   8
ENDBRANCH   1   7
BRANCH   3  19
HETATM   19  C   UNL     1      44.285 -11.902   9.845  1.00  0.00     0.095 A 
HETATM   20  C   UNL     1      44.578 -11.162  11.134  1.00  0.00     0.043 A 
HETATM   21  C   UNL     1      44.509 -12.671  11.116  1.00  0.00     0.037 A 
BRANCH  20  22
HETATM   22  C   UNL     1      43.494 -10.414  11.878  1.00  0.00    -0.052 A 
HETATM   23  C   UNL     1      42.861 -10.990  12.996  1.00  0.00     0.007 A 
HETATM   24  C   UNL     1      41.852 -10.320  13.691  1.00  0.00     0.001 A 
HETATM   25  C   UNL     1      41.458  -9.048  13.289  1.00  0.00     0.000 A 
HETATM   26  C   UNL     1      42.080  -8.446  12.199  1.00  0.00     0.001 A 
HETATM   27  C   UNL     1      43.090  -9.122  11.506  1.00  0.00     0.007 A 
ENDBRANCH  20  22
ENDBRANCH   3  19
TORSDOF 6
ENDMDL
MODEL 4
REMARK VINA RESULT:      -7.8      1.429      2.069
REMARK  6 active torsions:
REMARK  status: ('A' for Active; 'I' for Inactive)
REMARK    1  A    between atoms: C_2  and  O_3 
REMARK    2  A    between atoms: O_3  and  C_4 
REMARK    3  A    between atoms: C_8  and  C_9 
REMARK    4  A    between atoms: C_9  and  N_10 
REMARK       I    between atoms: N_10  and  C_11 
REMARK       I    between atoms: C_11  and  N_12 
REMARK    5  A    between atoms: N_12  and  C_13 
REMARK    6  A    between atoms: C_14  and  C_15 
ROOT
HETATM    1  N   UNL     1      40.635 -15.722   0.862  1.00  0.00    -0.339 N 
HETATM    2  C   UNL     1      40.908 -15.456   2.171  1.00  0.00     0.316 C 
HETATM    3  N   UNL     1      41.672 -16.371   2.828  1.00  0.00    -0.338 N 
HETATM    4  O   UNL     1      40.498 -14.462   2.764  1.00  0.00    -0.247 OA
HETATM    5  H   UNL     1      41.287 -16.325   0.388  1.00  0.00     0.164 HD
HETATM    6  H   UNL     1      41.835 -16.116   3.795  1.00  0.00     0.164 HD
ENDROOT
BRANCH   1   7
HETATM    7  C   UNL     1      39.948 -14.721   0.083  1.00  0.00     0.163 C 
BRANCH   7   8
HETATM    8  C   UNL     1      40.834 -14.071  -0.941  1.00  0.00    -0.035 A 
HETATM    9  C   UNL     1      40.880 -14.551  -2.252  1.00  0.00     0.028 A 
HETATM   10  C   UNL     1      41.769 -13.970  -3.142  1.00  0.00     0.120 A 
HETATM   11  N   UNL     1      42.608 -12.965  -2.817  1.00  0.00    -0.237 NA
HETATM   12  C   UNL     1      42.563 -12.522  -1.547  1.00  0.00     0.165 A 
HETATM   13  C   UNL     1      41.690 -13.021  -0.592  1.00  0.00     0.066 A 
BRANCH  12  14
HETATM   14  O   UNL     1      43.376 -11.487  -1.150  1.00  0.00    -0.324 OA
BRANCH  14  15
HETATM   15  C   UNL     1      42.862 -10.142  -1.199  1.00  0.00     0.058 C 
HETATM   16  C   UNL     1      42.139  -9.731   0.092  1.00  0.00     0.045 C 
HETATM   17  C   UNL     1      42.003  -9.883  -2.447  1.00  0.00     0.045 C 
HETATM   18  C   UNL     1      44.128  -9.271  -1.316  1.00  0.00     0.045 C 
ENDBRANCH  14  15
ENDBRANCH  12  14
ENDBRANCH   7   8
ENDBRANCH   1   7
BRANCH   3  19
HETATM   19  C   UNL     1      42.226 -17.595   2.348  1.00  0.00     0.095 A 
HETATM   20  C   UNL     1      43.605 -18.082   2.743  1.00  0.00     0.043 A 
HETATM   21  C   UNL     1      43.360 -17.510   1.366  1.00  0.00     0.037 A 
BRANCH  20  22
HETATM   22  C   UNL     1      43.920 -19.558   2.850  1.00  0.00    -0.052 A 
HETATM   23  C   UNL     1      43.650 -20.429   1.778  1.00  0.00     0.007 A 
HETATM   24  C   UNL     1      43.925 -21.796   1.860  1.00  0.00     0.001 A 
HETATM   25  C   UNL     1      44.489 -22.323   3.017  1.00  0.00     0.000 A 
HETATM   26  C   UNL     1      44.785 -21.480   4.085  1.00  0.00     0.001 A 
HETATM   27  C   UNL     1      44.507 -20.112   3.998  1.00  0.00     0.007 A 
ENDBRANCH  20  22
ENDBRANCH   3  19
TORSDOF 6
ENDMDL
MODEL 5
REMARK VINA RESULT:      -7.6      2.050      3.239
REMARK  6 active torsions:
REMARK  status: ('A' for Active; 'I' for Inactive)
REMARK    1  A    between atoms: C_2  and  O_3 
REMARK    2  A    between atoms: O_3  and  C_4 
REMARK    3  A    between atoms: C_8  and  C_9 
REMARK    4  A    between atoms: C_9  and  N_10 
REMARK       I    between atoms: N_10  and  C_11 
REMARK       I    between atoms: C_11  and  N_12 
REMARK    5  A    between atoms: N_12  and  C_13 
REMARK    6  A    between atoms: C_14  and  C_15 
ROOT
HETATM    1  N   UNL     1      40.652 -15.826   3.571  1.00  0.00    -0.339 N 
HETATM    2  C   UNL     1      41.517 -15.619   4.604  1.00  0.00     0.316 C 
HETATM    3  N   UNL     1      42.437 -16.596   4.827  1.00  0.00    -0.338 N 
HETATM    4  O   UNL     1      41.493 -14.624   5.323  1.00  0.00    -0.247 OA
HETATM    5  H   UNL     1      40.969 -16.447   2.845  1.00  0.00     0.164 HD
HETATM    6  H   UNL     1      43.046 -16.383   5.609  1.00  0.00     0.164 HD
ENDROOT
BRANCH   1   7
HETATM    7  C   UNL     1      39.748 -14.763   3.205  1.00  0.00     0.163 C 
BRANCH   7   8
HETATM    8  C   UNL     1      40.266 -13.922   2.072  1.00  0.00    -0.035 A 
HETATM    9  C   UNL     1      40.261 -12.528   2.159  1.00  0.00     0.028 A 
HETATM   10  C   UNL     1      40.676 -11.792   1.061  1.00  0.00     0.120 A 
HETATM   11  N   UNL     1      41.078 -12.341  -0.103  1.00  0.00    -0.237 NA
HETATM   12  C   UNL     1      41.064 -13.685  -0.178  1.00  0.00     0.165 A 
HETATM   13  C   UNL     1      40.692 -14.507   0.875  1.00  0.00     0.066 A 
BRANCH  12  14
HETATM   14  O   UNL     1      41.480 -14.315  -1.327  1.00  0.00    -0.324 OA
BRANCH  14  15
HETATM   15  C   UNL     1      40.543 -14.474  -2.410  1.00  0.00     0.058 C 
HETATM   16  C   UNL     1      39.120 -14.034  -2.039  1.00  0.00     0.045 C 
HETATM   17  C   UNL     1      40.570 -15.888  -3.011  1.00  0.00     0.045 C 
HETATM   18  C   UNL     1      41.061 -13.500  -3.487  1.00  0.00     0.045 C 
ENDBRANCH  14  15
ENDBRANCH  12  14
ENDBRANCH   7   8
ENDBRANCH   1   7
BRANCH   3  19
HETATM   19  C   UNL     1      42.625 -17.833   4.139  1.00  0.00     0.095 A 
HETATM   20  C   UNL     1      43.996 -18.390   3.814  1.00  0.00     0.043 A 
HETATM   21  C   UNL     1      43.141 -17.776   2.730  1.00  0.00     0.037 A 
BRANCH  20  22
HETATM   22  C   UNL     1      44.248 -19.880   3.756  1.00  0.00    -0.052 A 
HETATM   23  C   UNL     1      44.122 -20.583   2.543  1.00  0.00     0.007 A 
HETATM   24  C   UNL     1      44.342 -21.961   2.470  1.00  0.00     0.001 A 
HETATM   25  C   UNL     1      44.705 -22.668   3.611  1.00  0.00     0.000 A 
HETATM   26  C   UNL     1      44.856 -21.994   4.820  1.00  0.00     0.001 A 
HETATM   27  C   UNL     1      44.635 -20.615   4.888  1.00  0.00     0.007 A 
ENDBRANCH  20  22
ENDBRANCH   3  19
TORSDOF 6
ENDMDL
MODEL 6
REMARK VINA RESULT:      -7.5      2.551      3.854
REMARK  6 active torsions:
REMARK  status: ('A' for Active; 'I' for Inactive)
REMARK    1  A    between atoms: C_2  and  O_3 
REMARK    2  A    between atoms: O_3  and  C_4 
REMARK    3  A    between atoms: C_8  and  C_9 
REMARK    4  A    between atoms: C_9  and  N_10 
REMARK       I    between atoms: N_10  and  C_11 
REMARK       I    between atoms: C_11  and  N_12 
REMARK    5  A    between atoms: N_12  and  C_13 
REMARK    6  A    between atoms: C_14  and  C_15 
ROOT
HETATM    1  N   UNL     1      40.569 -15.311   4.173  1.00  0.00    -0.339 N 
HETATM    2  C   UNL     1      40.457 -14.872   5.459  1.00  0.00     0.316 C 
HETATM    3  N   UNL     1      41.349 -15.381   6.352  1.00  0.00    -0.338 N 
HETATM    4  O   UNL     1      39.605 -14.070   5.832  1.00  0.00    -0.247 OA
HETATM    5  H   UNL     1      41.476 -15.652   3.900  1.00  0.00     0.164 HD
HETATM    6  H   UNL     1      41.209 -15.017   7.288  1.00  0.00     0.164 HD
ENDROOT
BRANCH   1   7
HETATM    7  C   UNL     1      39.742 -14.702   3.161  1.00  0.00     0.163 C 
BRANCH   7   8
HETATM    8  C   UNL     1      40.522 -14.274   1.951  1.00  0.00    -0.035 A 
HETATM    9  C   UNL     1      41.266 -13.092   1.964  1.00  0.00     0.028 A 
HETATM   10  C   UNL     1      41.907 -12.696   0.800  1.00  0.00     0.120 A 
HETATM   11  N   UNL     1      41.849 -13.382  -0.360  1.00  0.00    -0.237 NA
HETATM   12  C   UNL     1      41.116 -14.511  -0.362  1.00  0.00     0.165 A 
HETATM   13  C   UNL     1      40.462 -15.003   0.758  1.00  0.00     0.066 A 
BRANCH  12  14
HETATM   14  O   UNL     1      41.028 -15.272  -1.503  1.00  0.00    -0.324 OA
BRANCH  14  15
HETATM   15  C   UNL     1      40.265 -14.768  -2.617  1.00  0.00     0.058 C 
HETATM   16  C   UNL     1      41.079 -13.839  -3.529  1.00  0.00     0.045 C 
HETATM   17  C   UNL     1      38.937 -14.128  -2.182  1.00  0.00     0.045 C 
HETATM   18  C   UNL     1      39.927 -16.033  -3.431  1.00  0.00     0.045 C 
ENDBRANCH  14  15
ENDBRANCH  12  14
ENDBRANCH   7   8
ENDBRANCH   1   7
BRANCH   3  19
HETATM   19  C   UNL     1      42.391 -16.333   6.144  1.00  0.00     0.095 A 
HETATM   20  C   UNL     1      42.123 -17.809   5.933  1.00  0.00     0.043 A 
HETATM   21  C   UNL     1      42.672 -17.311   7.250  1.00  0.00     0.037 A 
BRANCH  20  22
HETATM   22  C   UNL     1      43.026 -18.658   5.066  1.00  0.00    -0.052 A 
HETATM   23  C   UNL     1      42.931 -18.607   3.663  1.00  0.00     0.007 A 
HETATM   24  C   UNL     1      43.749 -19.390   2.845  1.00  0.00     0.001 A 
HETATM   25  C   UNL     1      44.692 -20.239   3.415  1.00  0.00     0.000 A 
HETATM   26  C   UNL     1      44.821 -20.295   4.800  1.00  0.00     0.001 A 
HETATM   27  C   UNL     1      43.999 -19.509   5.614  1.00  0.00     0.007 A 
ENDBRANCH  20  22
ENDBRANCH   3  19
TORSDOF 6
ENDMDL
MODEL 7
REMARK VINA RESULT:      -7.3      7.215     10.220
REMARK  6 active torsions:
REMARK  status: ('A' for Active; 'I' for Inactive)
REMARK    1  A    between atoms: C_2  and  O_3 
REMARK    2  A    between atoms: O_3  and  C_4 
REMARK    3  A    between atoms: C_8  and  C_9 
REMARK    4  A    between atoms: C_9  and  N_10 
REMARK       I    between atoms: N_10  and  C_11 
REMARK       I    between atoms: C_11  and  N_12 
REMARK    5  A    between atoms: N_12  and  C_13 
REMARK    6  A    between atoms: C_14  and  C_15 
ROOT
HETATM    1  N   UNL     1      41.359 -12.479   6.572  1.00  0.00    -0.339 N 
HETATM    2  C   UNL     1      40.129 -13.064   6.524  1.00  0.00     0.316 C 
HETATM    3  N   UNL     1      40.088 -14.355   6.096  1.00  0.00    -0.338 N 
HETATM    4  O   UNL     1      39.089 -12.487   6.832  1.00  0.00    -0.247 OA
HETATM    5  H   UNL     1      42.143 -13.105   6.661  1.00  0.00     0.164 HD
HETATM    6  H   UNL     1      39.146 -14.728   6.081  1.00  0.00     0.164 HD
ENDROOT
BRANCH   1   7
HETATM    7  C   UNL     1      41.476 -11.162   7.147  1.00  0.00     0.163 C 
BRANCH   7   8
HETATM    8  C   UNL     1      42.546 -11.078   8.199  1.00  0.00    -0.035 A 
HETATM    9  C   UNL     1      43.670 -11.905   8.140  1.00  0.00     0.028 A 
HETATM   10  C   UNL     1      44.592 -11.847   9.173  1.00  0.00     0.120 A 
HETATM   11  N   UNL     1      44.467 -11.043  10.248  1.00  0.00    -0.237 NA
HETATM   12  C   UNL     1      43.372 -10.263  10.299  1.00  0.00     0.165 A 
HETATM   13  C   UNL     1      42.408 -10.229   9.303  1.00  0.00     0.066 A 
BRANCH  12  14
HETATM   14  O   UNL     1      43.188  -9.402  11.355  1.00  0.00    -0.324 OA
BRANCH  14  15
HETATM   15  C   UNL     1      42.451  -9.863  12.505  1.00  0.00     0.058 C 
HETATM   16  C   UNL     1      42.386 -11.394  12.601  1.00  0.00     0.045 C 
HETATM   17  C   UNL     1      41.059  -9.219  12.611  1.00  0.00     0.045 C 
HETATM   18  C   UNL     1      43.287  -9.361  13.699  1.00  0.00     0.045 C 
ENDBRANCH  14  15
ENDBRANCH  12  14
ENDBRANCH   7   8
ENDBRANCH   1   7
BRANCH   3  19
HETATM   19  C   UNL     1      41.157 -15.198   5.669  1.00  0.00     0.095 A 
HETATM   20  C   UNL     1      40.947 -16.637   5.246  1.00  0.00     0.043 A 
HETATM   21  C   UNL     1      41.573 -16.315   6.583  1.00  0.00     0.037 A 
BRANCH  20  22
HETATM   22  C   UNL     1      41.820 -17.287   4.195  1.00  0.00    -0.052 A 
HETATM   23  C   UNL     1      41.439 -17.280   2.841  1.00  0.00     0.007 A 
HETATM   24  C   UNL     1      42.226 -17.882   1.856  1.00  0.00     0.001 A 
HETATM   25  C   UNL     1      43.424 -18.498   2.205  1.00  0.00     0.000 A 
HETATM   26  C   UNL     1      43.835 -18.502   3.535  1.00  0.00     0.001 A 
HETATM   27  C   UNL     1      43.042 -17.899   4.516  1.00  0.00     0.007 A 
ENDBRANCH  20  22
ENDBRANCH   3  19
TORSDOF 6
ENDMDL
MODEL 8
REMARK VINA RESULT:      -7.2      2.195      3.574
REMARK  6 active torsions:
REMARK  status: ('A' for Active; 'I' for Inactive)
REMARK    1  A    between atoms: C_2  and  O_3 
REMARK    2  A    between atoms: O_3  and  C_4 
REMARK    3  A    between atoms: C_8  and  C_9 
REMARK    4  A    between atoms: C_9  and  N_10 
REMARK       I    between atoms: N_10  and  C_11 
REMARK       I    between atoms: C_11  and  N_12 
REMARK    5  A    between atoms: N_12  and  C_13 
REMARK    6  A    between atoms: C_14  and  C_15 
ROOT
HETATM    1  N   UNL     1      43.139 -14.622   4.069  1.00  0.00    -0.339 N 
HETATM    2  C   UNL     1      43.053 -14.467   5.421  1.00  0.00     0.316 C 
HETATM    3  N   UNL     1      43.485 -15.512   6.178  1.00  0.00    -0.338 N 
HETATM    4  O   UNL     1      42.607 -13.460   5.964  1.00  0.00    -0.247 OA
HETATM    5  H   UNL     1      43.826 -15.281   3.742  1.00  0.00     0.164 HD
HETATM    6  H   UNL     1      43.390 -15.336   7.172  1.00  0.00     0.164 HD
ENDROOT
BRANCH   1   7
HETATM    7  C   UNL     1      42.825 -13.495   3.225  1.00  0.00     0.163 C 
BRANCH   7   8
HETATM    8  C   UNL     1      41.613 -13.729   2.368  1.00  0.00    -0.035 A 
HETATM    9  C   UNL     1      40.566 -14.535   2.819  1.00  0.00     0.028 A 
HETATM   10  C   UNL     1      39.504 -14.786   1.964  1.00  0.00     0.120 A 
HETATM   11  N   UNL     1      39.421 -14.304   0.707  1.00  0.00    -0.237 NA
HETATM   12  C   UNL     1      40.444 -13.541   0.281  1.00  0.00     0.165 A 
HETATM   13  C   UNL     1      41.536 -13.211   1.070  1.00  0.00     0.066 A 
BRANCH  12  14
HETATM   14  O   UNL     1      40.419 -12.998  -0.982  1.00  0.00    -0.324 OA
BRANCH  14  15
HETATM   15  C   UNL     1      41.033 -13.727  -2.063  1.00  0.00     0.058 C 
HETATM   16  C   UNL     1      41.013 -15.247  -1.848  1.00  0.00     0.045 C 
HETATM   17  C   UNL     1      42.442 -13.212  -2.397  1.00  0.00     0.045 C 
HETATM   18  C   UNL     1      40.128 -13.420  -3.272  1.00  0.00     0.045 C 
ENDBRANCH  14  15
ENDBRANCH  12  14
ENDBRANCH   7   8
ENDBRANCH   1   7
BRANCH   3  19
HETATM   19  C   UNL     1      44.008 -16.773   5.761  1.00  0.00     0.095 A 
HETATM   20  C   UNL     1      43.124 -17.944   5.384  1.00  0.00     0.043 A 
HETATM   21  C   UNL     1      43.862 -17.934   6.703  1.00  0.00     0.037 A 
BRANCH  20  22
HETATM   22  C   UNL     1      43.552 -18.953   4.342  1.00  0.00    -0.052 A 
HETATM   23  C   UNL     1      44.430 -20.000   4.674  1.00  0.00     0.007 A 
HETATM   24  C   UNL     1      44.845 -20.937   3.724  1.00  0.00     0.001 A 
HETATM   25  C   UNL     1      44.379 -20.852   2.416  1.00  0.00     0.000 A 
HETATM   26  C   UNL     1      43.494 -19.837   2.065  1.00  0.00     0.001 A 
HETATM   27  C   UNL     1      43.082 -18.902   3.020  1.00  0.00     0.007 A 
ENDBRANCH  20  22
ENDBRANCH   3  19
TORSDOF 6
ENDMDL
MODEL 9
REMARK VINA RESULT:      -7.2      6.727      9.861
REMARK  6 active torsions:
REMARK  status: ('A' for Active; 'I' for Inactive)
REMARK    1  A    between atoms: C_2  and  O_3 
REMARK    2  A    between atoms: O_3  and  C_4 
REMARK    3  A    between atoms: C_8  and  C_9 
REMARK    4  A    between atoms: C_9  and  N_10 
REMARK       I    between atoms: N_10  and  C_11 
REMARK       I    between atoms: C_11  and  N_12 
REMARK    5  A    between atoms: N_12  and  C_13 
REMARK    6  A    between atoms: C_14  and  C_15 
ROOT
HETATM    1  N   UNL     1      40.420 -13.078   6.644  1.00  0.00    -0.339 N 
HETATM    2  C   UNL     1      39.554 -12.033   6.524  1.00  0.00     0.316 C 
HETATM    3  N   UNL     1      39.821 -10.934   7.281  1.00  0.00    -0.338 N 
HETATM    4  O   UNL     1      38.568 -12.046   5.791  1.00  0.00    -0.247 OA
HETATM    5  H   UNL     1      41.349 -12.849   6.957  1.00  0.00     0.164 HD
HETATM    6  H   UNL     1      39.139 -10.197   7.148  1.00  0.00     0.164 HD
ENDROOT
BRANCH   1   7
HETATM    7  C   UNL     1      40.263 -14.210   5.764  1.00  0.00     0.163 C 
BRANCH   7   8
HETATM    8  C   UNL     1      41.468 -14.447   4.899  1.00  0.00    -0.035 A 
HETATM    9  C   UNL     1      42.126 -13.380   4.283  1.00  0.00     0.028 A 
HETATM   10  C   UNL     1      43.185 -13.652   3.432  1.00  0.00     0.120 A 
HETATM   11  N   UNL     1      43.619 -14.897   3.149  1.00  0.00    -0.237 NA
HETATM   12  C   UNL     1      42.968 -15.917   3.737  1.00  0.00     0.165 A 
HETATM   13  C   UNL     1      41.915 -15.744   4.624  1.00  0.00     0.066 A 
BRANCH  12  14
HETATM   14  O   UNL     1      43.369 -17.212   3.511  1.00  0.00    -0.324 OA
BRANCH  14  15
HETATM   15  C   UNL     1      43.048 -17.827   2.248  1.00  0.00     0.058 C 
HETATM   16  C   UNL     1      44.051 -17.478   1.139  1.00  0.00     0.045 C 
HETATM   17  C   UNL     1      41.597 -17.564   1.814  1.00  0.00     0.045 C 
HETATM   18  C   UNL     1      43.181 -19.337   2.532  1.00  0.00     0.045 C 
ENDBRANCH  14  15
ENDBRANCH  12  14
ENDBRANCH   7   8
ENDBRANCH   1   7
BRANCH   3  19
HETATM   19  C   UNL     1      40.882 -10.716   8.210  1.00  0.00     0.095 A 
HETATM   20  C   UNL     1      40.719  -9.871   9.457  1.00  0.00     0.043 A 
HETATM   21  C   UNL     1      41.486  -9.341   8.268  1.00  0.00     0.037 A 
BRANCH  20  22
HETATM   22  C   UNL     1      41.495 -10.172  10.720  1.00  0.00    -0.052 A 
HETATM   23  C   UNL     1      40.892 -10.870  11.784  1.00  0.00     0.007 A 
HETATM   24  C   UNL     1      41.588 -11.149  12.962  1.00  0.00     0.001 A 
HETATM   25  C   UNL     1      42.911 -10.745  13.100  1.00  0.00     0.000 A 
HETATM   26  C   UNL     1      43.538 -10.070  12.056  1.00  0.00     0.001 A 
HETATM   27  C   UNL     1      42.837  -9.793  10.879  1.00  0.00     0.007 A 
ENDBRANCH  20  22
ENDBRANCH   3  19
TORSDOF 6
ENDMDL
MODEL 10
REMARK VINA RESULT:      -7.2      8.110     10.864
REMARK  6 active torsions:
REMARK  status: ('A' for Active; 'I' for Inactive)
REMARK    1  A    between atoms: C_2  and  O_3 
REMARK    2  A    between atoms: O_3  and  C_4 
REMARK    3  A    between atoms: C_8  and  C_9 
REMARK    4  A    between atoms: C_9  and  N_10 
REMARK       I    between atoms: N_10  and  C_11 
REMARK       I    between atoms: C_11  and  N_12 
REMARK    5  A    between atoms: N_12  and  C_13 
REMARK    6  A    between atoms: C_14  and  C_15 
ROOT
HETATM    1  N   UNL     1      45.009 -12.176   9.760  1.00  0.00    -0.339 N 
HETATM    2  C   UNL     1      45.786 -12.009   8.653  1.00  0.00     0.316 C 
HETATM    3  N   UNL     1      45.555 -12.861   7.617  1.00  0.00    -0.338 N 
HETATM    4  O   UNL     1      46.663 -11.155   8.560  1.00  0.00    -0.247 OA
HETATM    5  H   UNL     1      44.118 -12.621   9.613  1.00  0.00     0.164 HD
HETATM    6  H   UNL     1      46.167 -12.686   6.829  1.00  0.00     0.164 HD
ENDROOT
BRANCH   1   7
HETATM    7  C   UNL     1      45.117 -11.215  10.831  1.00  0.00     0.163 C 
BRANCH   7   8
HETATM    8  C   UNL     1      43.780 -10.724  11.310  1.00  0.00    -0.035 A 
HETATM    9  C   UNL     1      43.682  -9.921  12.448  1.00  0.00     0.028 A 
HETATM   10  C   UNL     1      42.423  -9.556  12.898  1.00  0.00     0.120 A 
HETATM   11  N   UNL     1      41.273  -9.939  12.306  1.00  0.00    -0.237 NA
HETATM   12  C   UNL     1      41.382 -10.725  11.219  1.00  0.00     0.165 A 
HETATM   13  C   UNL     1      42.596 -11.120  10.677  1.00  0.00     0.066 A 
BRANCH  12  14
HETATM   14  O   UNL     1      40.253 -11.138  10.552  1.00  0.00    -0.324 OA
BRANCH  14  15
HETATM   15  C   UNL     1      39.797 -10.372   9.420  1.00  0.00     0.058 C 
HETATM   16  C   UNL     1      39.478 -11.244   8.197  1.00  0.00     0.045 C 
HETATM   17  C   UNL     1      40.744  -9.214   9.069  1.00  0.00     0.045 C 
HETATM   18  C   UNL     1      38.470  -9.757   9.906  1.00  0.00     0.045 C 
ENDBRANCH  14  15
ENDBRANCH  12  14
ENDBRANCH   7   8
ENDBRANCH   1   7
BRANCH   3  19
HETATM   19  C   UNL     1      44.616 -13.931   7.522  1.00  0.00     0.095 A 
HETATM   20  C   UNL     1      44.549 -14.859   6.326  1.00  0.00     0.043 A 
HETATM   21  C   UNL     1      43.498 -13.792   6.527  1.00  0.00     0.037 A 
BRANCH  20  22
HETATM   22  C   UNL     1      44.126 -16.304   6.471  1.00  0.00    -0.052 A 
HETATM   23  C   UNL     1      43.971 -17.124   5.338  1.00  0.00     0.007 A 
HETATM   24  C   UNL     1      43.572 -18.458   5.450  1.00  0.00     0.001 A 
HETATM   25  C   UNL     1      43.328 -19.007   6.704  1.00  0.00     0.000 A 
HETATM   26  C   UNL     1      43.492 -18.224   7.843  1.00  0.00     0.001 A 
HETATM   27  C   UNL     1      43.891 -16.889   7.725  1.00  0.00     0.007 A 
ENDBRANCH  20  22
ENDBRANCH   3  19
TORSDOF 6
ENDMDL
