MODEL 1
REMARK VINA RESULT:      -9.1      0.000      0.000
REMARK  6 active torsions:
REMARK  status: ('A' for Active; 'I' for Inactive)
REMARK    1  A    between atoms: O_2  and  C_3 
REMARK    2  A    between atoms: C_6  and  C_7 
REMARK       I    between atoms: C_7  and  N_8 
REMARK    3  A    between atoms: N_8  and  N_9 
REMARK    4  A    between atoms: N_13  and  C_14 
REMARK    5  A    between atoms: C_14  and  C_15 
REMARK    6  A    between atoms: C_15  and  C_16 
ROOT
HETATM    1  N   UNL     1      40.841 -13.836   2.012  1.00  0.00    -0.166 NA
HETATM    2  C   UNL     1      41.153 -15.049   2.336  1.00  0.00     0.157 A 
HETATM    3  C   UNL     1      41.725 -16.155   1.452  1.00  0.00     0.279 A 
HETATM    4  O   UNL     1      41.930 -16.033   0.261  1.00  0.00    -0.265 OA
HETATM    5  N   UNL     1      41.927 -17.237   2.293  1.00  0.00    -0.311 N 
HETATM    6  C   UNL     1      41.031 -15.619   3.670  1.00  0.00     0.027 A 
HETATM    7  C   UNL     1      41.513 -16.927   3.603  1.00  0.00     0.050 A 
HETATM    8  C   UNL     1      41.517 -17.719   4.736  1.00  0.00     0.031 A 
HETATM    9  C   UNL     1      41.016 -17.169   5.925  1.00  0.00     0.002 A 
HETATM   10  C   UNL     1      40.528 -15.849   5.971  1.00  0.00     0.001 A 
HETATM   11  C   UNL     1      40.536 -15.051   4.827  1.00  0.00     0.016 A 
ENDROOT
BRANCH   1  12
HETATM   12  N   UNL     1      41.013 -13.479   0.705  1.00  0.00    -0.242 N 
HETATM   13  C   UNL     1      41.983 -12.545   0.375  1.00  0.00     0.271 C 
HETATM   14  O   UNL     1      42.739 -12.017   1.188  1.00  0.00    -0.266 OA
HETATM   15  H   UNL     1      40.376 -13.867   0.012  1.00  0.00     0.192 HD
BRANCH  13  16
HETATM   16  C   UNL     1      42.079 -12.149  -1.066  1.00  0.00     0.033 A 
HETATM   17  C   UNL     1      42.498 -10.885  -1.496  1.00  0.00     0.020 A 
HETATM   18  C   UNL     1      42.575 -10.603  -2.866  1.00  0.00     0.038 A 
HETATM   19  C   UNL     1      42.235 -11.566  -3.820  1.00  0.00     0.068 A 
HETATM   20  C   UNL     1      41.796 -12.818  -3.395  1.00  0.00     0.038 A 
HETATM   21  C   UNL     1      41.719 -13.105  -2.028  1.00  0.00     0.020 A 
BRANCH  19  22
HETATM   22  O   UNL     1      42.366 -11.160  -5.120  1.00  0.00    -0.356 OA
HETATM   23  C   UNL     1      42.496  -9.761  -5.344  1.00  0.00     0.210 C 
ENDBRANCH  19  22
ENDBRANCH  13  16
ENDBRANCH   1  12
BRANCH   5  24
HETATM   24  C   UNL     1      42.455 -18.513   1.858  1.00  0.00     0.137 C 
BRANCH  24  25
HETATM   25  C   UNL     1      43.950 -18.663   2.171  1.00  0.00     0.059 C 
BRANCH  25  26
HETATM   26  C   UNL     1      44.247 -19.955   2.894  1.00  0.00    -0.057 A 
HETATM   27  C   UNL     1      44.170 -21.184   2.225  1.00  0.00     0.007 A 
HETATM   28  C   UNL     1      44.424 -22.377   2.905  1.00  0.00     0.001 A 
HETATM   29  C   UNL     1      44.763 -22.352   4.257  1.00  0.00     0.000 A 
HETATM   30  C   UNL     1      44.852 -21.134   4.930  1.00  0.00     0.001 A 
HETATM   31  C   UNL     1      44.593 -19.941   4.252  1.00  0.00     0.007 A 
ENDBRANCH  25  26
ENDBRANCH  24  25
ENDBRANCH   5  24
TORSDOF 6
ENDMDL
MODEL 2
REMARK VINA RESULT:      -8.9      2.073      5.378
REMARK  6 active torsions:
REMARK  status: ('A' for Active; 'I' for Inactive)
REMARK    1  A    between atoms: O_2  and  C_3 
REMARK    2  A    between atoms: C_6  and  C_7 
REMARK       I    between atoms: C_7  and  N_8 
REMARK    3  A    between atoms: N_8  and  N_9 
REMARK    4  A    between atoms: N_13  and  C_14 
REMARK    5  A    between atoms: C_14  and  C_15 
REMARK    6  A    between atoms: C_15  and  C_16 
ROOT
HETATM    1  N   UNL     1      43.451 -18.655   1.130  1.00  0.00    -0.166 NA
HETATM    2  C   UNL     1      43.781 -18.824   2.370  1.00  0.00     0.157 A 
HETATM    3  C   UNL     1      43.883 -17.782   3.481  1.00  0.00     0.279 A 
HETATM    4  O   UNL     1      43.694 -16.594   3.315  1.00  0.00    -0.265 OA
HETATM    5  N   UNL     1      44.220 -18.487   4.624  1.00  0.00    -0.311 N 
HETATM    6  C   UNL     1      44.118 -20.102   2.980  1.00  0.00     0.027 A 
HETATM    7  C   UNL     1      44.367 -19.858   4.332  1.00  0.00     0.050 A 
HETATM    8  C   UNL     1      44.716 -20.902   5.168  1.00  0.00     0.031 A 
HETATM    9  C   UNL     1      44.820 -22.185   4.610  1.00  0.00     0.002 A 
HETATM   10  C   UNL     1      44.572 -22.409   3.243  1.00  0.00     0.001 A 
HETATM   11  C   UNL     1      44.210 -21.354   2.406  1.00  0.00     0.016 A 
ENDROOT
BRANCH   1  12
HETATM   12  N   UNL     1      43.176 -17.377   0.731  1.00  0.00    -0.242 N 
HETATM   13  C   UNL     1      41.857 -16.958   0.644  1.00  0.00     0.271 C 
HETATM   14  O   UNL     1      40.889 -17.659   0.931  1.00  0.00    -0.266 OA
HETATM   15  H   UNL     1      43.953 -16.784   0.446  1.00  0.00     0.192 HD
BRANCH  13  16
HETATM   16  C   UNL     1      41.620 -15.569   0.138  1.00  0.00     0.033 A 
HETATM   17  C   UNL     1      41.838 -14.417   0.903  1.00  0.00     0.020 A 
HETATM   18  C   UNL     1      41.607 -13.154   0.345  1.00  0.00     0.038 A 
HETATM   19  C   UNL     1      41.154 -13.018  -0.970  1.00  0.00     0.068 A 
HETATM   20  C   UNL     1      40.914 -14.163  -1.727  1.00  0.00     0.038 A 
HETATM   21  C   UNL     1      41.146 -15.428  -1.174  1.00  0.00     0.020 A 
BRANCH  19  22
HETATM   22  O   UNL     1      40.979 -11.728  -1.388  1.00  0.00    -0.356 OA
HETATM   23  C   UNL     1      42.155 -10.991  -1.703  1.00  0.00     0.210 C 
ENDBRANCH  19  22
ENDBRANCH  13  16
ENDBRANCH   1  12
BRANCH   5  24
HETATM   24  C   UNL     1      44.428 -17.877   5.920  1.00  0.00     0.137 C 
BRANCH  24  25
HETATM   25  C   UNL     1      43.118 -17.707   6.701  1.00  0.00     0.059 C 
BRANCH  25  26
HETATM   26  C   UNL     1      42.421 -16.413   6.358  1.00  0.00    -0.057 A 
HETATM   27  C   UNL     1      41.037 -16.380   6.142  1.00  0.00     0.007 A 
HETATM   28  C   UNL     1      40.402 -15.184   5.802  1.00  0.00     0.001 A 
HETATM   29  C   UNL     1      41.142 -14.009   5.681  1.00  0.00     0.000 A 
HETATM   30  C   UNL     1      42.518 -14.028   5.904  1.00  0.00     0.001 A 
HETATM   31  C   UNL     1      43.155 -15.225   6.239  1.00  0.00     0.007 A 
ENDBRANCH  25  26
ENDBRANCH  24  25
ENDBRANCH   5  24
TORSDOF 6
ENDMDL
MODEL 3
REMARK VINA RESULT:      -8.9      2.463      3.105
REMARK  6 active torsions:
REMARK  status: ('A' for Active; 'I' for Inactive)
REMARK    1  A    between atoms: O_2  and  C_3 
REMARK    2  A    between atoms: C_6  and  C_7 
REMARK       I    between atoms: C_7  and  N_8 
REMARK    3  A    between atoms: N_8  and  N_9 
REMARK    4  A    between atoms: N_13  and  C_14 
REMARK    5  A    between atoms: C_14  and  C_15 
REMARK    6  A    between atoms: C_15  and  C_16 
ROOT
HETATM    1  N   UNL     1      42.640 -13.896   2.903  1.00  0.00    -0.166 NA
HETATM    2  C   UNL     1      42.856 -14.831   3.771  1.00  0.00     0.157 A 
HETATM    3  C   UNL     1      42.658 -16.337   3.619  1.00  0.00     0.279 A 
HETATM    4  O   UNL     1      42.210 -16.865   2.621  1.00  0.00    -0.265 OA
HETATM    5  N   UNL     1      43.085 -16.892   4.815  1.00  0.00    -0.311 N 
HETATM    6  C   UNL     1      43.371 -14.623   5.117  1.00  0.00     0.027 A 
HETATM    7  C   UNL     1      43.501 -15.882   5.705  1.00  0.00     0.050 A 
HETATM    8  C   UNL     1      43.971 -15.993   7.000  1.00  0.00     0.031 A 
HETATM    9  C   UNL     1      44.294 -14.812   7.686  1.00  0.00     0.002 A 
HETATM   10  C   UNL     1      44.149 -13.551   7.078  1.00  0.00     0.001 A 
HETATM   11  C   UNL     1      43.683 -13.446   5.767  1.00  0.00     0.016 A 
ENDROOT
BRANCH   1  12
HETATM   12  N   UNL     1      42.144 -14.279   1.689  1.00  0.00    -0.242 N 
HETATM   13  C   UNL     1      42.069 -13.353   0.660  1.00  0.00     0.271 C 
HETATM   14  O   UNL     1      42.449 -12.188   0.750  1.00  0.00    -0.266 OA
HETATM   15  H   UNL     1      41.783 -15.226   1.595  1.00  0.00     0.192 HD
BRANCH  13  16
HETATM   16  C   UNL     1      41.457 -13.818  -0.625  1.00  0.00     0.033 A 
HETATM   17  C   UNL     1      40.935 -12.952  -1.594  1.00  0.00     0.020 A 
HETATM   18  C   UNL     1      40.396 -13.472  -2.777  1.00  0.00     0.038 A 
HETATM   19  C   UNL     1      40.363 -14.849  -3.011  1.00  0.00     0.068 A 
HETATM   20  C   UNL     1      40.861 -15.715  -2.039  1.00  0.00     0.038 A 
HETATM   21  C   UNL     1      41.402 -15.200  -0.856  1.00  0.00     0.020 A 
BRANCH  19  22
HETATM   22  O   UNL     1      39.818 -15.216  -4.210  1.00  0.00    -0.356 OA
HETATM   23  C   UNL     1      38.809 -16.218  -4.176  1.00  0.00     0.210 C 
ENDBRANCH  19  22
ENDBRANCH  13  16
ENDBRANCH   1  12
BRANCH   5  24
HETATM   24  C   UNL     1      43.061 -18.310   5.103  1.00  0.00     0.137 C 
BRANCH  24  25
HETATM   25  C   UNL     1      44.433 -18.968   4.905  1.00  0.00     0.059 C 
BRANCH  25  26
HETATM   26  C   UNL     1      44.372 -20.112   3.921  1.00  0.00    -0.057 A 
HETATM   27  C   UNL     1      43.915 -19.908   2.612  1.00  0.00     0.007 A 
HETATM   28  C   UNL     1      43.839 -20.975   1.715  1.00  0.00     0.001 A 
HETATM   29  C   UNL     1      44.225 -22.253   2.114  1.00  0.00     0.000 A 
HETATM   30  C   UNL     1      44.691 -22.465   3.411  1.00  0.00     0.001 A 
HETATM   31  C   UNL     1      44.762 -21.401   4.311  1.00  0.00     0.007 A 
ENDBRANCH  25  26
ENDBRANCH  24  25
ENDBRANCH   5  24
TORSDOF 6
ENDMDL
MODEL 4
REMARK VINA RESULT:      -8.6      4.596      7.715
REMARK  6 active torsions:
REMARK  status: ('A' for Active; 'I' for Inactive)
REMARK    1  A    between atoms: O_2  and  C_3 
REMARK    2  A    between atoms: C_6  and  C_7 
REMARK       I    between atoms: C_7  and  N_8 
REMARK    3  A    between atoms: N_8  and  N_9 
REMARK    4  A    between atoms: N_13  and  C_14 
REMARK    5  A    between atoms: C_14  and  C_15 
REMARK    6  A    between atoms: C_15  and  C_16 
ROOT
HETATM    1  N   UNL     1      40.929 -13.145   5.386  1.00  0.00    -0.166 NA
HETATM    2  C   UNL     1      41.222 -14.329   4.953  1.00  0.00     0.157 A 
HETATM    3  C   UNL     1      42.090 -15.397   5.615  1.00  0.00     0.279 A 
HETATM    4  O   UNL     1      42.675 -15.240   6.667  1.00  0.00    -0.265 OA
HETATM    5  N   UNL     1      42.039 -16.494   4.770  1.00  0.00    -0.311 N 
HETATM    6  C   UNL     1      40.748 -14.907   3.705  1.00  0.00     0.027 A 
HETATM    7  C   UNL     1      41.253 -16.207   3.637  1.00  0.00     0.050 A 
HETATM    8  C   UNL     1      40.962 -17.003   2.545  1.00  0.00     0.031 A 
HETATM    9  C   UNL     1      40.166 -16.458   1.526  1.00  0.00     0.002 A 
HETATM   10  C   UNL     1      39.672 -15.142   1.610  1.00  0.00     0.001 A 
HETATM   11  C   UNL     1      39.961 -14.346   2.719  1.00  0.00     0.016 A 
ENDROOT
BRANCH   1  12
HETATM   12  N   UNL     1      41.476 -12.767   6.579  1.00  0.00    -0.242 N 
HETATM   13  C   UNL     1      41.655 -11.419   6.851  1.00  0.00     0.271 C 
HETATM   14  O   UNL     1      41.326 -10.511   6.091  1.00  0.00    -0.266 OA
HETATM   15  H   UNL     1      41.797 -13.496   7.213  1.00  0.00     0.192 HD
BRANCH  13  16
HETATM   16  C   UNL     1      42.318 -11.073   8.148  1.00  0.00     0.033 A 
HETATM   17  C   UNL     1      43.543 -11.610   8.561  1.00  0.00     0.020 A 
HETATM   18  C   UNL     1      44.102 -11.216   9.783  1.00  0.00     0.038 A 
HETATM   19  C   UNL     1      43.454 -10.294  10.609  1.00  0.00     0.068 A 
HETATM   20  C   UNL     1      42.223  -9.774  10.212  1.00  0.00     0.038 A 
HETATM   21  C   UNL     1      41.662 -10.163   8.990  1.00  0.00     0.020 A 
BRANCH  19  22
HETATM   22  O   UNL     1      44.116  -9.994  11.767  1.00  0.00    -0.356 OA
HETATM   23  C   UNL     1      43.346  -9.991  12.963  1.00  0.00     0.210 C 
ENDBRANCH  19  22
ENDBRANCH  13  16
ENDBRANCH   1  12
BRANCH   5  24
HETATM   24  C   UNL     1      42.737 -17.738   5.015  1.00  0.00     0.137 C 
BRANCH  24  25
HETATM   25  C   UNL     1      43.965 -17.906   4.111  1.00  0.00     0.059 C 
BRANCH  25  26
HETATM   26  C   UNL     1      44.094 -19.317   3.591  1.00  0.00    -0.057 A 
HETATM   27  C   UNL     1      43.627 -19.656   2.314  1.00  0.00     0.007 A 
HETATM   28  C   UNL     1      43.727 -20.968   1.848  1.00  0.00     0.001 A 
HETATM   29  C   UNL     1      44.302 -21.953   2.651  1.00  0.00     0.000 A 
HETATM   30  C   UNL     1      44.779 -21.625   3.919  1.00  0.00     0.001 A 
HETATM   31  C   UNL     1      44.674 -20.314   4.388  1.00  0.00     0.007 A 
ENDBRANCH  25  26
ENDBRANCH  24  25
ENDBRANCH   5  24
TORSDOF 6
ENDMDL
MODEL 5
REMARK VINA RESULT:      -8.5      2.464      9.203
REMARK  6 active torsions:
REMARK  status: ('A' for Active; 'I' for Inactive)
REMARK    1  A    between atoms: O_2  and  C_3 
REMARK    2  A    between atoms: C_6  and  C_7 
REMARK       I    between atoms: C_7  and  N_8 
REMARK    3  A    between atoms: N_8  and  N_9 
REMARK    4  A    between atoms: N_13  and  C_14 
REMARK    5  A    between atoms: C_14  and  C_15 
REMARK    6  A    between atoms: C_15  and  C_16 
ROOT
HETATM    1  N   UNL     1      39.587 -15.928   1.983  1.00  0.00    -0.166 NA
HETATM    2  C   UNL     1      39.819 -15.138   0.985  1.00  0.00     0.157 A 
HETATM    3  C   UNL     1      41.021 -15.119   0.043  1.00  0.00     0.279 A 
HETATM    4  O   UNL     1      41.976 -15.861   0.147  1.00  0.00    -0.265 OA
HETATM    5  N   UNL     1      40.756 -14.119  -0.879  1.00  0.00    -0.311 N 
HETATM    6  C   UNL     1      38.933 -14.075   0.534  1.00  0.00     0.027 A 
HETATM    7  C   UNL     1      39.526 -13.495  -0.589  1.00  0.00     0.050 A 
HETATM    8  C   UNL     1      38.901 -12.445  -1.234  1.00  0.00     0.031 A 
HETATM    9  C   UNL     1      37.679 -11.989  -0.717  1.00  0.00     0.002 A 
HETATM   10  C   UNL     1      37.100 -12.583   0.420  1.00  0.00     0.001 A 
HETATM   11  C   UNL     1      37.730 -13.649   1.062  1.00  0.00     0.016 A 
ENDROOT
BRANCH   1  12
HETATM   12  N   UNL     1      40.541 -16.864   2.267  1.00  0.00    -0.242 N 
HETATM   13  C   UNL     1      41.224 -16.798   3.472  1.00  0.00     0.271 C 
HETATM   14  O   UNL     1      41.013 -15.954   4.340  1.00  0.00    -0.266 OA
HETATM   15  H   UNL     1      40.768 -17.553   1.552  1.00  0.00     0.192 HD
BRANCH  13  16
HETATM   16  C   UNL     1      42.301 -17.814   3.697  1.00  0.00     0.033 A 
HETATM   17  C   UNL     1      42.744 -18.207   4.964  1.00  0.00     0.020 A 
HETATM   18  C   UNL     1      43.747 -19.178   5.084  1.00  0.00     0.038 A 
HETATM   19  C   UNL     1      44.322 -19.764   3.953  1.00  0.00     0.068 A 
HETATM   20  C   UNL     1      43.898 -19.359   2.689  1.00  0.00     0.038 A 
HETATM   21  C   UNL     1      42.896 -18.390   2.564  1.00  0.00     0.020 A 
BRANCH  19  22
HETATM   22  O   UNL     1      45.281 -20.703   4.216  1.00  0.00    -0.356 OA
HETATM   23  C   UNL     1      44.869 -21.853   4.944  1.00  0.00     0.210 C 
ENDBRANCH  19  22
ENDBRANCH  13  16
ENDBRANCH   1  12
BRANCH   5  24
HETATM   24  C   UNL     1      41.649 -13.755  -1.958  1.00  0.00     0.137 C 
BRANCH  24  25
HETATM   25  C   UNL     1      42.566 -12.583  -1.585  1.00  0.00     0.059 C 
BRANCH  25  26
HETATM   26  C   UNL     1      42.516 -11.479  -2.614  1.00  0.00    -0.057 A 
HETATM   27  C   UNL     1      42.668 -10.139  -2.235  1.00  0.00     0.007 A 
HETATM   28  C   UNL     1      42.598  -9.121  -3.188  1.00  0.00     0.001 A 
HETATM   29  C   UNL     1      42.382  -9.433  -4.529  1.00  0.00     0.000 A 
HETATM   30  C   UNL     1      42.241 -10.764  -4.919  1.00  0.00     0.001 A 
HETATM   31  C   UNL     1      42.305 -11.783  -3.966  1.00  0.00     0.007 A 
ENDBRANCH  25  26
ENDBRANCH  24  25
ENDBRANCH   5  24
TORSDOF 6
ENDMDL
MODEL 6
REMARK VINA RESULT:      -8.4      3.216      8.185
REMARK  6 active torsions:
REMARK  status: ('A' for Active; 'I' for Inactive)
REMARK    1  A    between atoms: O_2  and  C_3 
REMARK    2  A    between atoms: C_6  and  C_7 
REMARK       I    between atoms: C_7  and  N_8 
REMARK    3  A    between atoms: N_8  and  N_9 
REMARK    4  A    between atoms: N_13  and  C_14 
REMARK    5  A    between atoms: C_14  and  C_15 
REMARK    6  A    between atoms: C_15  and  C_16 
ROOT
HETATM    1  N   UNL     1      40.998 -14.658   4.197  1.00  0.00    -0.166 NA
HETATM    2  C   UNL     1      40.187 -14.087   3.366  1.00  0.00     0.157 A 
HETATM    3  C   UNL     1      39.671 -14.609   2.027  1.00  0.00     0.279 A 
HETATM    4  O   UNL     1      40.011 -15.666   1.535  1.00  0.00    -0.265 OA
HETATM    5  N   UNL     1      38.794 -13.642   1.563  1.00  0.00    -0.311 N 
HETATM    6  C   UNL     1      39.566 -12.785   3.560  1.00  0.00     0.027 A 
HETATM    7  C   UNL     1      38.734 -12.560   2.463  1.00  0.00     0.050 A 
HETATM    8  C   UNL     1      38.010 -11.386   2.377  1.00  0.00     0.031 A 
HETATM    9  C   UNL     1      38.153 -10.447   3.409  1.00  0.00     0.002 A 
HETATM   10  C   UNL     1      39.004 -10.689   4.504  1.00  0.00     0.001 A 
HETATM   11  C   UNL     1      39.725 -11.880   4.591  1.00  0.00     0.016 A 
ENDROOT
BRANCH   1  12
HETATM   12  N   UNL     1      41.492 -15.881   3.841  1.00  0.00    -0.242 N 
HETATM   13  C   UNL     1      42.758 -16.256   4.265  1.00  0.00     0.271 C 
HETATM   14  O   UNL     1      43.480 -15.563   4.979  1.00  0.00    -0.266 OA
HETATM   15  H   UNL     1      40.935 -16.461   3.217  1.00  0.00     0.192 HD
BRANCH  13  16
HETATM   16  C   UNL     1      43.267 -17.580   3.789  1.00  0.00     0.033 A 
HETATM   17  C   UNL     1      43.064 -18.069   2.493  1.00  0.00     0.020 A 
HETATM   18  C   UNL     1      43.592 -19.313   2.125  1.00  0.00     0.038 A 
HETATM   19  C   UNL     1      44.319 -20.086   3.035  1.00  0.00     0.068 A 
HETATM   20  C   UNL     1      44.504 -19.612   4.332  1.00  0.00     0.038 A 
HETATM   21  C   UNL     1      43.980 -18.369   4.704  1.00  0.00     0.020 A 
BRANCH  19  22
HETATM   22  O   UNL     1      44.783 -21.273   2.540  1.00  0.00    -0.356 OA
HETATM   23  C   UNL     1      43.968 -21.927   1.574  1.00  0.00     0.210 C 
ENDBRANCH  19  22
ENDBRANCH  13  16
ENDBRANCH   1  12
BRANCH   5  24
HETATM   24  C   UNL     1      38.079 -13.733   0.308  1.00  0.00     0.137 C 
BRANCH  24  25
HETATM   25  C   UNL     1      38.905 -13.204  -0.872  1.00  0.00     0.059 C 
BRANCH  25  26
HETATM   26  C   UNL     1      38.995 -14.212  -1.993  1.00  0.00    -0.057 A 
HETATM   27  C   UNL     1      40.192 -14.898  -2.245  1.00  0.00     0.007 A 
HETATM   28  C   UNL     1      40.275 -15.811  -3.298  1.00  0.00     0.001 A 
HETATM   29  C   UNL     1      39.164 -16.053  -4.104  1.00  0.00     0.000 A 
HETATM   30  C   UNL     1      37.967 -15.384  -3.856  1.00  0.00     0.001 A 
HETATM   31  C   UNL     1      37.883 -14.466  -2.807  1.00  0.00     0.007 A 
ENDBRANCH  25  26
ENDBRANCH  24  25
ENDBRANCH   5  24
TORSDOF 6
ENDMDL
MODEL 7
REMARK VINA RESULT:      -8.3      3.914      7.268
REMARK  6 active torsions:
REMARK  status: ('A' for Active; 'I' for Inactive)
REMARK    1  A    between atoms: O_2  and  C_3 
REMARK    2  A    between atoms: C_6  and  C_7 
REMARK       I    between atoms: C_7  and  N_8 
REMARK    3  A    between atoms: N_8  and  N_9 
REMARK    4  A    between atoms: N_13  and  C_14 
REMARK    5  A    between atoms: C_14  and  C_15 
REMARK    6  A    between atoms: C_15  and  C_16 
ROOT
HETATM    1  N   UNL     1      41.253 -12.746   3.655  1.00  0.00    -0.166 NA
HETATM    2  C   UNL     1      41.448 -13.994   3.375  1.00  0.00     0.157 A 
HETATM    3  C   UNL     1      41.751 -15.149   4.328  1.00  0.00     0.279 A 
HETATM    4  O   UNL     1      41.894 -15.019   5.527  1.00  0.00    -0.265 OA
HETATM    5  N   UNL     1      41.817 -16.281   3.532  1.00  0.00    -0.311 N 
HETATM    6  C   UNL     1      41.396 -14.572   2.041  1.00  0.00     0.027 A 
HETATM    7  C   UNL     1      41.614 -15.944   2.179  1.00  0.00     0.050 A 
HETATM    8  C   UNL     1      41.622 -16.757   1.061  1.00  0.00     0.031 A 
HETATM    9  C   UNL     1      41.418 -16.156  -0.191  1.00  0.00     0.002 A 
HETATM   10  C   UNL     1      41.207 -14.770  -0.310  1.00  0.00     0.001 A 
HETATM   11  C   UNL     1      41.190 -13.956   0.822  1.00  0.00     0.016 A 
ENDROOT
BRANCH   1  12
HETATM   12  N   UNL     1      41.352 -12.382   4.969  1.00  0.00    -0.242 N 
HETATM   13  C   UNL     1      40.246 -11.849   5.614  1.00  0.00     0.271 C 
HETATM   14  O   UNL     1      39.145 -11.698   5.087  1.00  0.00    -0.266 OA
HETATM   15  H   UNL     1      42.261 -12.456   5.421  1.00  0.00     0.192 HD
BRANCH  13  16
HETATM   16  C   UNL     1      40.436 -11.411   7.032  1.00  0.00     0.033 A 
HETATM   17  C   UNL     1      39.436 -11.485   8.008  1.00  0.00     0.020 A 
HETATM   18  C   UNL     1      39.705 -11.068   9.318  1.00  0.00     0.038 A 
HETATM   19  C   UNL     1      40.961 -10.570   9.672  1.00  0.00     0.068 A 
HETATM   20  C   UNL     1      41.953 -10.474   8.698  1.00  0.00     0.038 A 
HETATM   21  C   UNL     1      41.689 -10.890   7.389  1.00  0.00     0.020 A 
BRANCH  19  22
HETATM   22  O   UNL     1      41.088 -10.209  10.986  1.00  0.00    -0.356 OA
HETATM   23  C   UNL     1      42.398 -10.244  11.537  1.00  0.00     0.210 C 
ENDBRANCH  19  22
ENDBRANCH  13  16
ENDBRANCH   1  12
BRANCH   5  24
HETATM   24  C   UNL     1      42.096 -17.609   4.035  1.00  0.00     0.137 C 
BRANCH  24  25
HETATM   25  C   UNL     1      43.594 -17.938   4.013  1.00  0.00     0.059 C 
BRANCH  25  26
HETATM   26  C   UNL     1      43.856 -19.341   3.522  1.00  0.00    -0.057 A 
HETATM   27  C   UNL     1      44.569 -20.255   4.311  1.00  0.00     0.007 A 
HETATM   28  C   UNL     1      44.828 -21.544   3.841  1.00  0.00     0.001 A 
HETATM   29  C   UNL     1      44.371 -21.935   2.584  1.00  0.00     0.000 A 
HETATM   30  C   UNL     1      43.653 -21.037   1.795  1.00  0.00     0.001 A 
HETATM   31  C   UNL     1      43.398 -19.746   2.261  1.00  0.00     0.007 A 
ENDBRANCH  25  26
ENDBRANCH  24  25
ENDBRANCH   5  24
TORSDOF 6
ENDMDL
MODEL 8
REMARK VINA RESULT:      -8.3      3.803      8.920
REMARK  6 active torsions:
REMARK  status: ('A' for Active; 'I' for Inactive)
REMARK    1  A    between atoms: O_2  and  C_3 
REMARK    2  A    between atoms: C_6  and  C_7 
REMARK       I    between atoms: C_7  and  N_8 
REMARK    3  A    between atoms: N_8  and  N_9 
REMARK    4  A    between atoms: N_13  and  C_14 
REMARK    5  A    between atoms: C_14  and  C_15 
REMARK    6  A    between atoms: C_15  and  C_16 
ROOT
HETATM    1  N   UNL     1      39.939 -16.242   1.831  1.00  0.00    -0.166 NA
HETATM    2  C   UNL     1      39.774 -15.062   2.335  1.00  0.00     0.157 A 
HETATM    3  C   UNL     1      40.456 -14.442   3.553  1.00  0.00     0.279 A 
HETATM    4  O   UNL     1      41.252 -15.031   4.257  1.00  0.00    -0.265 OA
HETATM    5  N   UNL     1      39.969 -13.148   3.634  1.00  0.00    -0.311 N 
HETATM    6  C   UNL     1      38.879 -14.042   1.809  1.00  0.00     0.027 A 
HETATM    7  C   UNL     1      39.032 -12.909   2.610  1.00  0.00     0.050 A 
HETATM    8  C   UNL     1      38.294 -11.771   2.342  1.00  0.00     0.031 A 
HETATM    9  C   UNL     1      37.398 -11.806   1.263  1.00  0.00     0.002 A 
HETATM   10  C   UNL     1      37.254 -12.961   0.471  1.00  0.00     0.001 A 
HETATM   11  C   UNL     1      38.007 -14.104   0.740  1.00  0.00     0.016 A 
ENDROOT
BRANCH   1  12
HETATM   12  N   UNL     1      40.817 -17.072   2.468  1.00  0.00    -0.242 N 
HETATM   13  C   UNL     1      41.960 -17.493   1.807  1.00  0.00     0.271 C 
HETATM   14  O   UNL     1      42.267 -17.146   0.668  1.00  0.00    -0.266 OA
HETATM   15  H   UNL     1      40.571 -17.411   3.396  1.00  0.00     0.192 HD
BRANCH  13  16
HETATM   16  C   UNL     1      42.849 -18.453   2.535  1.00  0.00     0.033 A 
HETATM   17  C   UNL     1      43.375 -19.615   1.958  1.00  0.00     0.020 A 
HETATM   18  C   UNL     1      44.213 -20.449   2.708  1.00  0.00     0.038 A 
HETATM   19  C   UNL     1      44.535 -20.146   4.033  1.00  0.00     0.068 A 
HETATM   20  C   UNL     1      43.996 -19.002   4.618  1.00  0.00     0.038 A 
HETATM   21  C   UNL     1      43.159 -18.164   3.873  1.00  0.00     0.020 A 
BRANCH  19  22
HETATM   22  O   UNL     1      45.370 -21.042   4.642  1.00  0.00    -0.356 OA
HETATM   23  C   UNL     1      44.849 -22.343   4.883  1.00  0.00     0.210 C 
ENDBRANCH  19  22
ENDBRANCH  13  16
ENDBRANCH   1  12
BRANCH   5  24
HETATM   24  C   UNL     1      40.352 -12.202   4.661  1.00  0.00     0.137 C 
BRANCH  24  25
HETATM   25  C   UNL     1      39.464 -12.304   5.908  1.00  0.00     0.059 C 
BRANCH  25  26
HETATM   26  C   UNL     1      40.085 -11.616   7.100  1.00  0.00    -0.057 A 
HETATM   27  C   UNL     1      41.399 -11.132   7.043  1.00  0.00     0.007 A 
HETATM   28  C   UNL     1      41.975 -10.518   8.157  1.00  0.00     0.001 A 
HETATM   29  C   UNL     1      41.242 -10.374   9.334  1.00  0.00     0.000 A 
HETATM   30  C   UNL     1      39.931 -10.842   9.397  1.00  0.00     0.001 A 
HETATM   31  C   UNL     1      39.355 -11.462   8.286  1.00  0.00     0.007 A 
ENDBRANCH  25  26
ENDBRANCH  24  25
ENDBRANCH   5  24
TORSDOF 6
ENDMDL
MODEL 9
REMARK VINA RESULT:      -8.0      2.751      5.752
REMARK  6 active torsions:
REMARK  status: ('A' for Active; 'I' for Inactive)
REMARK    1  A    between atoms: O_2  and  C_3 
REMARK    2  A    between atoms: C_6  and  C_7 
REMARK       I    between atoms: C_7  and  N_8 
REMARK    3  A    between atoms: N_8  and  N_9 
REMARK    4  A    between atoms: N_13  and  C_14 
REMARK    5  A    between atoms: C_14  and  C_15 
REMARK    6  A    between atoms: C_15  and  C_16 
ROOT
HETATM    1  N   UNL     1      41.498 -17.499   0.926  1.00  0.00    -0.166 NA
HETATM    2  C   UNL     1      41.823 -17.653   2.168  1.00  0.00     0.157 A 
HETATM    3  C   UNL     1      41.222 -16.982   3.401  1.00  0.00     0.279 A 
HETATM    4  O   UNL     1      40.343 -16.145   3.357  1.00  0.00    -0.265 OA
HETATM    5  N   UNL     1      41.886 -17.530   4.486  1.00  0.00    -0.311 N 
HETATM    6  C   UNL     1      42.859 -18.550   2.660  1.00  0.00     0.027 A 
HETATM    7  C   UNL     1      42.859 -18.452   4.052  1.00  0.00     0.050 A 
HETATM    8  C   UNL     1      43.754 -19.200   4.795  1.00  0.00     0.031 A 
HETATM    9  C   UNL     1      44.648 -20.032   4.105  1.00  0.00     0.002 A 
HETATM   10  C   UNL     1      44.636 -20.111   2.700  1.00  0.00     0.001 A 
HETATM   11  C   UNL     1      43.726 -19.362   1.955  1.00  0.00     0.016 A 
ENDROOT
BRANCH   1  12
HETATM   12  N   UNL     1      40.504 -16.603   0.651  1.00  0.00    -0.242 N 
HETATM   13  C   UNL     1      40.834 -15.337   0.193  1.00  0.00     0.271 C 
HETATM   14  O   UNL     1      41.984 -14.955  -0.015  1.00  0.00    -0.266 OA
HETATM   15  H   UNL     1      39.543 -16.874   0.851  1.00  0.00     0.192 HD
BRANCH  13  16
HETATM   16  C   UNL     1      39.704 -14.380  -0.029  1.00  0.00     0.033 A 
HETATM   17  C   UNL     1      38.630 -14.229   0.857  1.00  0.00     0.020 A 
HETATM   18  C   UNL     1      37.622 -13.297   0.580  1.00  0.00     0.038 A 
HETATM   19  C   UNL     1      37.664 -12.511  -0.574  1.00  0.00     0.068 A 
HETATM   20  C   UNL     1      38.719 -12.675  -1.469  1.00  0.00     0.038 A 
HETATM   21  C   UNL     1      39.730 -13.604  -1.197  1.00  0.00     0.020 A 
BRANCH  19  22
HETATM   22  O   UNL     1      36.621 -11.637  -0.713  1.00  0.00    -0.356 OA
HETATM   23  C   UNL     1      35.794 -11.440   0.427  1.00  0.00     0.210 C 
ENDBRANCH  19  22
ENDBRANCH  13  16
ENDBRANCH   1  12
BRANCH   5  24
HETATM   24  C   UNL     1      41.630 -17.164   5.862  1.00  0.00     0.137 C 
BRANCH  24  25
HETATM   25  C   UNL     1      42.471 -15.963   6.312  1.00  0.00     0.059 C 
BRANCH  25  26
HETATM   26  C   UNL     1      41.895 -14.656   5.822  1.00  0.00    -0.057 A 
HETATM   27  C   UNL     1      40.549 -14.336   6.048  1.00  0.00     0.007 A 
HETATM   28  C   UNL     1      40.017 -13.137   5.572  1.00  0.00     0.001 A 
HETATM   29  C   UNL     1      40.825 -12.242   4.871  1.00  0.00     0.000 A 
HETATM   30  C   UNL     1      42.168 -12.546   4.650  1.00  0.00     0.001 A 
HETATM   31  C   UNL     1      42.700 -13.748   5.121  1.00  0.00     0.007 A 
ENDBRANCH  25  26
ENDBRANCH  24  25
ENDBRANCH   5  24
TORSDOF 6
ENDMDL
MODEL 10
REMARK VINA RESULT:      -7.9      3.041      4.944
REMARK  6 active torsions:
REMARK  status: ('A' for Active; 'I' for Inactive)
REMARK    1  A    between atoms: O_2  and  C_3 
REMARK    2  A    between atoms: C_6  and  C_7 
REMARK       I    between atoms: C_7  and  N_8 
REMARK    3  A    between atoms: N_8  and  N_9 
REMARK    4  A    between atoms: N_13  and  C_14 
REMARK    5  A    between atoms: C_14  and  C_15 
REMARK    6  A    between atoms: C_15  and  C_16 
ROOT
HETATM    1  N   UNL     1      41.395 -16.109  -0.615  1.00  0.00    -0.166 NA
HETATM    2  C   UNL     1      41.454 -16.237   0.671  1.00  0.00     0.157 A 
HETATM    3  C   UNL     1      40.567 -15.596   1.736  1.00  0.00     0.279 A 
HETATM    4  O   UNL     1      39.672 -14.813   1.490  1.00  0.00    -0.265 OA
HETATM    5  N   UNL     1      41.014 -16.100   2.946  1.00  0.00    -0.311 N 
HETATM    6  C   UNL     1      42.410 -17.069   1.388  1.00  0.00     0.027 A 
HETATM    7  C   UNL     1      42.107 -16.965   2.746  1.00  0.00     0.050 A 
HETATM    8  C   UNL     1      42.862 -17.656   3.676  1.00  0.00     0.031 A 
HETATM    9  C   UNL     1      43.928 -18.438   3.207  1.00  0.00     0.002 A 
HETATM   10  C   UNL     1      44.222 -18.524   1.833  1.00  0.00     0.001 A 
HETATM   11  C   UNL     1      43.451 -17.833   0.899  1.00  0.00     0.016 A 
ENDROOT
BRANCH   1  12
HETATM   12  N   UNL     1      40.435 -15.274  -1.111  1.00  0.00    -0.242 N 
HETATM   13  C   UNL     1      40.320 -15.104  -2.482  1.00  0.00     0.271 C 
HETATM   14  O   UNL     1      41.020 -15.683  -3.311  1.00  0.00    -0.266 OA
HETATM   15  H   UNL     1      39.866 -14.748  -0.450  1.00  0.00     0.192 HD
BRANCH  13  16
HETATM   16  C   UNL     1      39.292 -14.127  -2.960  1.00  0.00     0.033 A 
HETATM   17  C   UNL     1      39.494 -12.742  -2.996  1.00  0.00     0.020 A 
HETATM   18  C   UNL     1      38.482 -11.901  -3.475  1.00  0.00     0.038 A 
HETATM   19  C   UNL     1      37.262 -12.419  -3.918  1.00  0.00     0.068 A 
HETATM   20  C   UNL     1      37.049 -13.795  -3.863  1.00  0.00     0.038 A 
HETATM   21  C   UNL     1      38.057 -14.640  -3.386  1.00  0.00     0.020 A 
BRANCH  19  22
HETATM   22  O   UNL     1      36.369 -11.486  -4.367  1.00  0.00    -0.356 OA
HETATM   23  C   UNL     1      36.793 -10.128  -4.339  1.00  0.00     0.210 C 
ENDBRANCH  19  22
ENDBRANCH  13  16
ENDBRANCH   1  12
BRANCH   5  24
HETATM   24  C   UNL     1      40.448 -15.742   4.230  1.00  0.00     0.137 C 
BRANCH  24  25
HETATM   25  C   UNL     1      41.029 -14.431   4.777  1.00  0.00     0.059 C 
BRANCH  25  26
HETATM   26  C   UNL     1      42.279 -14.664   5.590  1.00  0.00    -0.057 A 
HETATM   27  C   UNL     1      43.371 -13.791   5.493  1.00  0.00     0.007 A 
HETATM   28  C   UNL     1      44.533 -14.026   6.230  1.00  0.00     0.001 A 
HETATM   29  C   UNL     1      44.613 -15.130   7.076  1.00  0.00     0.000 A 
HETATM   30  C   UNL     1      43.530 -16.000   7.189  1.00  0.00     0.001 A 
HETATM   31  C   UNL     1      42.369 -15.769   6.448  1.00  0.00     0.007 A 
ENDBRANCH  25  26
ENDBRANCH  24  25
ENDBRANCH   5  24
TORSDOF 6
ENDMDL
