MODEL 1
REMARK VINA RESULT:      -9.5      0.000      0.000
REMARK  6 active torsions:
REMARK  status: ('A' for Active; 'I' for Inactive)
REMARK    1  A    between atoms: N_6  and  C_7 
REMARK    2  A    between atoms: C_8  and  N_9 
REMARK    3  A    between atoms: N_9  and  C_10 
REMARK    4  A    between atoms: C_10  and  N_11 
REMARK       I    between atoms: N_11  and  C_12 
REMARK    5  A    between atoms: C_12  and  C_13 
REMARK    6  A    between atoms: C_14  and  O_15 
ROOT
HETATM    1  C   UNL     1      41.920 -14.736   2.156  1.00  0.00     0.179 C 
HETATM    2  S   UNL     1      41.780 -13.288   3.001  1.00  0.00    -0.040 SA
ENDROOT
BRANCH   1   3
HETATM    3  N   UNL     1      40.857 -15.394   1.538  1.00  0.00    -0.331 N 
HETATM    4  H   UNL     1      40.608 -16.290   1.948  1.00  0.00     0.168 HD
BRANCH   3   5
HETATM    5  C   UNL     1      39.811 -14.777   0.807  1.00  0.00     0.061 A 
HETATM    6  C   UNL     1      40.080 -14.160  -0.445  1.00  0.00     0.057 A 
HETATM    7  C   UNL     1      39.059 -13.332  -0.952  1.00  0.00     0.031 A 
HETATM    8  C   UNL     1      37.809 -13.214  -0.328  1.00  0.00     0.002 A 
HETATM    9  C   UNL     1      37.548 -13.898   0.847  1.00  0.00     0.002 A 
HETATM   10  C   UNL     1      38.554 -14.660   1.426  1.00  0.00     0.032 A 
BRANCH   6  11
HETATM   11  N   UNL     1      41.294 -14.381  -1.148  1.00  0.00    -0.376 N 
HETATM   12  C   UNL     1      42.348 -13.335  -1.098  1.00  0.00     0.150 C 
HETATM   13  C   UNL     1      42.097 -12.193  -2.120  1.00  0.00     0.254 C 
HETATM   14  N   UNL     1      41.875 -12.742  -3.529  1.00  0.00    -0.072 N 
HETATM   15  C   UNL     1      41.561 -11.656  -4.515  1.00  0.00     0.269 C 
HETATM   16  H   UNL     1      42.753 -13.186  -3.825  1.00  0.00     0.279 HD
HETATM   17  C   UNL     1      40.798 -13.828  -3.541  1.00  0.00     0.254 C 
HETATM   18  C   UNL     1      41.152 -14.932  -2.527  1.00  0.00     0.150 C 
ENDBRANCH   6  11
ENDBRANCH   3   5
ENDBRANCH   1   3
BRANCH   1  19
HETATM   19  N   UNL     1      43.088 -15.484   2.027  1.00  0.00    -0.299 N 
HETATM   20  C   UNL     1      43.090 -16.807   1.624  1.00  0.00     0.260 C 
HETATM   21  O   UNL     1      42.792 -17.145   0.482  1.00  0.00    -0.267 OA
HETATM   22  H   UNL     1      43.737 -15.287   2.779  1.00  0.00     0.171 HD
BRANCH  20  23
HETATM   23  C   UNL     1      43.525 -17.836   2.618  1.00  0.00     0.068 C 
HETATM   24  C   UNL     1      43.723 -17.606   3.987  1.00  0.00     0.102 C 
HETATM   25  C   UNL     1      44.224 -18.654   4.794  1.00  0.00     0.056 C 
HETATM   26 BR   UNL     1      44.817 -18.272   6.580  1.00  0.00    -0.047 Br
HETATM   27  C   UNL     1      44.375 -19.979   4.282  1.00  0.00    -0.006 A 
HETATM   28  C   UNL     1      44.091 -20.199   2.914  1.00  0.00    -0.024 A 
HETATM   29  C   UNL     1      44.785 -21.108   5.040  1.00  0.00     0.014 A 
HETATM   30  C   UNL     1      43.705 -19.128   2.101  1.00  0.00     0.032 C 
HETATM   31  C   UNL     1      44.201 -21.484   2.358  1.00  0.00     0.012 A 
HETATM   32  C   UNL     1      44.590 -22.572   3.135  1.00  0.00     0.001 A 
HETATM   33  C   UNL     1      44.886 -22.383   4.476  1.00  0.00     0.001 A 
BRANCH  24  34
HETATM   34  O   UNL     1      43.487 -16.337   4.469  1.00  0.00    -0.353 OA
HETATM   35  C   UNL     1      42.335 -16.261   5.323  1.00  0.00     0.210 C 
ENDBRANCH  24  34
ENDBRANCH  20  23
ENDBRANCH   1  19
TORSDOF 6
ENDMDL
MODEL 2
REMARK VINA RESULT:      -9.5      1.461      2.710
REMARK  6 active torsions:
REMARK  status: ('A' for Active; 'I' for Inactive)
REMARK    1  A    between atoms: N_6  and  C_7 
REMARK    2  A    between atoms: C_8  and  N_9 
REMARK    3  A    between atoms: N_9  and  C_10 
REMARK    4  A    between atoms: C_10  and  N_11 
REMARK       I    between atoms: N_11  and  C_12 
REMARK    5  A    between atoms: C_12  and  C_13 
REMARK    6  A    between atoms: C_14  and  O_15 
ROOT
HETATM    1  C   UNL     1      42.320 -13.960   2.162  1.00  0.00     0.179 C 
HETATM    2  S   UNL     1      43.022 -13.397   3.583  1.00  0.00    -0.040 SA
ENDROOT
BRANCH   1   3
HETATM    3  N   UNL     1      41.453 -13.215   1.361  1.00  0.00    -0.331 N 
HETATM    4  H   UNL     1      40.748 -12.686   1.867  1.00  0.00     0.168 HD
BRANCH   3   5
HETATM    5  C   UNL     1      41.745 -12.713   0.068  1.00  0.00     0.061 A 
HETATM    6  C   UNL     1      41.466 -13.498  -1.083  1.00  0.00     0.057 A 
HETATM    7  C   UNL     1      42.047 -13.049  -2.286  1.00  0.00     0.031 A 
HETATM    8  C   UNL     1      42.755 -11.841  -2.373  1.00  0.00     0.002 A 
HETATM    9  C   UNL     1      42.934 -11.055  -1.248  1.00  0.00     0.002 A 
HETATM   10  C   UNL     1      42.449 -11.500  -0.025  1.00  0.00     0.032 A 
BRANCH   6  11
HETATM   11  N   UNL     1      40.640 -14.651  -1.027  1.00  0.00    -0.376 N 
HETATM   12  C   UNL     1      40.643 -15.588  -2.181  1.00  0.00     0.150 C 
HETATM   13  C   UNL     1      39.711 -15.117  -3.329  1.00  0.00     0.254 C 
HETATM   14  N   UNL     1      38.303 -14.812  -2.819  1.00  0.00    -0.072 N 
HETATM   15  C   UNL     1      37.410 -14.288  -3.904  1.00  0.00     0.269 C 
HETATM   16  H   UNL     1      37.901 -15.699  -2.487  1.00  0.00     0.279 HD
HETATM   17  C   UNL     1      38.338 -13.861  -1.622  1.00  0.00     0.254 C 
HETATM   18  C   UNL     1      39.253 -14.430  -0.523  1.00  0.00     0.150 C 
ENDBRANCH   6  11
ENDBRANCH   3   5
ENDBRANCH   1   3
BRANCH   1  19
HETATM   19  N   UNL     1      42.459 -15.248   1.648  1.00  0.00    -0.299 N 
HETATM   20  C   UNL     1      41.763 -16.334   2.147  1.00  0.00     0.260 C 
HETATM   21  O   UNL     1      40.548 -16.451   2.012  1.00  0.00    -0.267 OA
HETATM   22  H   UNL     1      43.425 -15.452   1.423  1.00  0.00     0.171 HD
BRANCH  20  23
HETATM   23  C   UNL     1      42.547 -17.412   2.823  1.00  0.00     0.068 C 
HETATM   24  C   UNL     1      43.046 -17.350   4.133  1.00  0.00     0.102 C 
HETATM   25  C   UNL     1      43.851 -18.410   4.612  1.00  0.00     0.056 C 
HETATM   26 BR   UNL     1      44.813 -18.197   6.260  1.00  0.00    -0.047 Br
HETATM   27  C   UNL     1      44.028 -19.609   3.855  1.00  0.00    -0.006 A 
HETATM   28  C   UNL     1      43.446 -19.674   2.568  1.00  0.00    -0.024 A 
HETATM   29  C   UNL     1      44.742 -20.755   4.294  1.00  0.00     0.014 A 
HETATM   30  C   UNL     1      42.748 -18.573   2.062  1.00  0.00     0.032 C 
HETATM   31  C   UNL     1      43.569 -20.834   1.785  1.00  0.00     0.012 A 
HETATM   32  C   UNL     1      44.263 -21.946   2.253  1.00  0.00     0.001 A 
HETATM   33  C   UNL     1      44.854 -21.906   3.507  1.00  0.00     0.001 A 
BRANCH  24  34
HETATM   34  O   UNL     1      42.786 -16.216   4.870  1.00  0.00    -0.353 OA
HETATM   35  C   UNL     1      41.613 -16.330   5.691  1.00  0.00     0.210 C 
ENDBRANCH  24  34
ENDBRANCH  20  23
ENDBRANCH   1  19
TORSDOF 6
ENDMDL
MODEL 3
REMARK VINA RESULT:      -9.2      1.646      2.340
REMARK  6 active torsions:
REMARK  status: ('A' for Active; 'I' for Inactive)
REMARK    1  A    between atoms: N_6  and  C_7 
REMARK    2  A    between atoms: C_8  and  N_9 
REMARK    3  A    between atoms: N_9  and  C_10 
REMARK    4  A    between atoms: C_10  and  N_11 
REMARK       I    between atoms: N_11  and  C_12 
REMARK    5  A    between atoms: C_12  and  C_13 
REMARK    6  A    between atoms: C_14  and  O_15 
ROOT
HETATM    1  C   UNL     1      42.145 -14.946   1.303  1.00  0.00     0.179 C 
HETATM    2  S   UNL     1      42.714 -13.879   2.472  1.00  0.00    -0.040 SA
ENDROOT
BRANCH   1   3
HETATM    3  N   UNL     1      41.017 -14.723   0.512  1.00  0.00    -0.331 N 
HETATM    4  H   UNL     1      40.226 -14.310   0.998  1.00  0.00     0.168 HD
BRANCH   3   5
HETATM    5  C   UNL     1      41.015 -14.515  -0.890  1.00  0.00     0.061 A 
HETATM    6  C   UNL     1      40.927 -13.198  -1.417  1.00  0.00     0.057 A 
HETATM    7  C   UNL     1      40.642 -13.108  -2.794  1.00  0.00     0.031 A 
HETATM    8  C   UNL     1      40.569 -14.237  -3.621  1.00  0.00     0.002 A 
HETATM    9  C   UNL     1      40.747 -15.503  -3.091  1.00  0.00     0.002 A 
HETATM   10  C   UNL     1      40.948 -15.644  -1.724  1.00  0.00     0.032 A 
BRANCH   6  11
HETATM   11  N   UNL     1      41.131 -12.048  -0.610  1.00  0.00    -0.376 N 
HETATM   12  C   UNL     1      40.198 -10.900  -0.753  1.00  0.00     0.150 C 
HETATM   13  C   UNL     1      40.567  -9.984  -1.951  1.00  0.00     0.254 C 
HETATM   14  N   UNL     1      42.033  -9.552  -1.896  1.00  0.00    -0.072 N 
HETATM   15  C   UNL     1      42.423  -8.724  -3.084  1.00  0.00     0.269 C 
HETATM   16  H   UNL     1      42.145  -8.966  -1.058  1.00  0.00     0.279 HD
HETATM   17  C   UNL     1      42.962 -10.755  -1.730  1.00  0.00     0.254 C 
HETATM   18  C   UNL     1      42.543 -11.578  -0.498  1.00  0.00     0.150 C 
ENDBRANCH   6  11
ENDBRANCH   3   5
ENDBRANCH   1   3
BRANCH   1  19
HETATM   19  N   UNL     1      42.683 -16.202   1.028  1.00  0.00    -0.299 N 
HETATM   20  C   UNL     1      42.081 -17.380   1.432  1.00  0.00     0.260 C 
HETATM   21  O   UNL     1      41.020 -17.771   0.954  1.00  0.00    -0.267 OA
HETATM   22  H   UNL     1      43.690 -16.203   1.133  1.00  0.00     0.171 HD
BRANCH  20  23
HETATM   23  C   UNL     1      42.794 -18.213   2.447  1.00  0.00     0.068 C 
HETATM   24  C   UNL     1      43.088 -17.814   3.760  1.00  0.00     0.102 C 
HETATM   25  C   UNL     1      43.851 -18.674   4.584  1.00  0.00     0.056 C 
HETATM   26 BR   UNL     1      44.545 -18.017   6.250  1.00  0.00    -0.047 Br
HETATM   27  C   UNL     1      44.185 -19.999   4.168  1.00  0.00    -0.006 A 
HETATM   28  C   UNL     1      43.806 -20.402   2.867  1.00  0.00    -0.024 A 
HETATM   29  C   UNL     1      44.868 -20.958   4.962  1.00  0.00     0.014 A 
HETATM   30  C   UNL     1      43.151 -19.501   2.021  1.00  0.00     0.032 C 
HETATM   31  C   UNL     1      44.089 -21.699   2.409  1.00  0.00     0.012 A 
HETATM   32  C   UNL     1      44.747 -22.620   3.220  1.00  0.00     0.001 A 
HETATM   33  C   UNL     1      45.139 -22.248   4.497  1.00  0.00     0.001 A 
BRANCH  24  34
HETATM   34  O   UNL     1      42.677 -16.562   4.161  1.00  0.00    -0.353 OA
HETATM   35  C   UNL     1      41.403 -16.569   4.824  1.00  0.00     0.210 C 
ENDBRANCH  24  34
ENDBRANCH  20  23
ENDBRANCH   1  19
TORSDOF 6
ENDMDL
MODEL 4
REMARK VINA RESULT:      -9.1      1.825      2.594
REMARK  6 active torsions:
REMARK  status: ('A' for Active; 'I' for Inactive)
REMARK    1  A    between atoms: N_6  and  C_7 
REMARK    2  A    between atoms: C_8  and  N_9 
REMARK    3  A    between atoms: N_9  and  C_10 
REMARK    4  A    between atoms: C_10  and  N_11 
REMARK       I    between atoms: N_11  and  C_12 
REMARK    5  A    between atoms: C_12  and  C_13 
REMARK    6  A    between atoms: C_14  and  O_15 
ROOT
HETATM    1  C   UNL     1      40.596 -14.682   1.561  1.00  0.00     0.179 C 
HETATM    2  S   UNL     1      38.929 -14.610   1.348  1.00  0.00    -0.040 SA
ENDROOT
BRANCH   1   3
HETATM    3  N   UNL     1      41.526 -14.637   0.521  1.00  0.00    -0.331 N 
HETATM    4  H   UNL     1      42.421 -15.073   0.725  1.00  0.00     0.168 HD
BRANCH   3   5
HETATM    5  C   UNL     1      41.222 -14.547  -0.860  1.00  0.00     0.061 A 
HETATM    6  C   UNL     1      40.877 -13.295  -1.436  1.00  0.00     0.057 A 
HETATM    7  C   UNL     1      40.316 -13.349  -2.728  1.00  0.00     0.031 A 
HETATM    8  C   UNL     1      40.213 -14.545  -3.453  1.00  0.00     0.002 A 
HETATM    9  C   UNL     1      40.640 -15.738  -2.895  1.00  0.00     0.002 A 
HETATM   10  C   UNL     1      41.123 -15.743  -1.593  1.00  0.00     0.032 A 
BRANCH   6  11
HETATM   11  N   UNL     1      41.102 -12.067  -0.760  1.00  0.00    -0.376 N 
HETATM   12  C   UNL     1      40.167 -10.937  -1.003  1.00  0.00     0.150 C 
HETATM   13  C   UNL     1      40.510 -10.154  -2.299  1.00  0.00     0.254 C 
HETATM   14  N   UNL     1      41.977  -9.724  -2.322  1.00  0.00    -0.072 N 
HETATM   15  C   UNL     1      42.341  -9.028  -3.600  1.00  0.00     0.269 C 
HETATM   16  H   UNL     1      42.109  -9.053  -1.554  1.00  0.00     0.279 HD
HETATM   17  C   UNL     1      42.908 -10.906  -2.051  1.00  0.00     0.254 C 
HETATM   18  C   UNL     1      42.516 -11.593  -0.730  1.00  0.00     0.150 C 
ENDBRANCH   6  11
ENDBRANCH   3   5
ENDBRANCH   1   3
BRANCH   1  19
HETATM   19  N   UNL     1      41.247 -14.862   2.779  1.00  0.00    -0.299 N 
HETATM   20  C   UNL     1      42.617 -15.023   2.881  1.00  0.00     0.260 C 
HETATM   21  O   UNL     1      43.403 -14.112   2.638  1.00  0.00    -0.267 OA
HETATM   22  H   UNL     1      40.719 -15.471   3.392  1.00  0.00     0.171 HD
BRANCH  20  23
HETATM   23  C   UNL     1      43.129 -16.345   3.356  1.00  0.00     0.068 C 
HETATM   24  C   UNL     1      43.522 -16.636   4.670  1.00  0.00     0.102 C 
HETATM   25  C   UNL     1      44.074 -17.907   4.957  1.00  0.00     0.056 C 
HETATM   26 BR   UNL     1      44.922 -18.209   6.653  1.00  0.00    -0.047 Br
HETATM   27  C   UNL     1      44.085 -18.949   3.980  1.00  0.00    -0.006 A 
HETATM   28  C   UNL     1      43.607 -18.649   2.683  1.00  0.00    -0.024 A 
HETATM   29  C   UNL     1      44.535 -20.276   4.206  1.00  0.00     0.014 A 
HETATM   30  C   UNL     1      43.170 -17.355   2.383  1.00  0.00     0.032 C 
HETATM   31  C   UNL     1      43.574 -19.638   1.687  1.00  0.00     0.012 A 
HETATM   32  C   UNL     1      44.008 -20.935   1.947  1.00  0.00     0.001 A 
HETATM   33  C   UNL     1      44.492 -21.254   3.207  1.00  0.00     0.001 A 
BRANCH  24  34
HETATM   34  O   UNL     1      43.420 -15.635   5.611  1.00  0.00    -0.353 OA
HETATM   35  C   UNL     1      42.157 -15.626   6.294  1.00  0.00     0.210 C 
ENDBRANCH  24  34
ENDBRANCH  20  23
ENDBRANCH   1  19
TORSDOF 6
ENDMDL
MODEL 5
REMARK VINA RESULT:      -8.9      1.403      1.898
REMARK  6 active torsions:
REMARK  status: ('A' for Active; 'I' for Inactive)
REMARK    1  A    between atoms: N_6  and  C_7 
REMARK    2  A    between atoms: C_8  and  N_9 
REMARK    3  A    between atoms: N_9  and  C_10 
REMARK    4  A    between atoms: C_10  and  N_11 
REMARK       I    between atoms: N_11  and  C_12 
REMARK    5  A    between atoms: C_12  and  C_13 
REMARK    6  A    between atoms: C_14  and  O_15 
ROOT
HETATM    1  C   UNL     1      41.234 -13.360   2.688  1.00  0.00     0.179 C 
HETATM    2  S   UNL     1      40.938 -11.735   2.371  1.00  0.00    -0.040 SA
ENDROOT
BRANCH   1   3
HETATM    3  N   UNL     1      40.782 -14.414   1.892  1.00  0.00    -0.331 N 
HETATM    4  H   UNL     1      40.945 -15.341   2.274  1.00  0.00     0.168 HD
BRANCH   3   5
HETATM    5  C   UNL     1      39.727 -14.347   0.948  1.00  0.00     0.061 A 
HETATM    6  C   UNL     1      40.013 -14.173  -0.433  1.00  0.00     0.057 A 
HETATM    7  C   UNL     1      38.915 -13.830  -1.247  1.00  0.00     0.031 A 
HETATM    8  C   UNL     1      37.603 -13.780  -0.756  1.00  0.00     0.002 A 
HETATM    9  C   UNL     1      37.347 -14.040   0.580  1.00  0.00     0.002 A 
HETATM   10  C   UNL     1      38.409 -14.301   1.435  1.00  0.00     0.032 A 
BRANCH   6  11
HETATM   11  N   UNL     1      41.319 -14.352  -0.960  1.00  0.00    -0.376 N 
HETATM   12  C   UNL     1      42.305 -13.250  -0.816  1.00  0.00     0.150 C 
HETATM   13  C   UNL     1      42.138 -12.160  -1.909  1.00  0.00     0.254 C 
HETATM   14  N   UNL     1      42.132 -12.769  -3.311  1.00  0.00    -0.072 N 
HETATM   15  C   UNL     1      41.900 -11.737  -4.374  1.00  0.00     0.269 C 
HETATM   16  H   UNL     1      43.063 -13.175  -3.470  1.00  0.00     0.279 HD
HETATM   17  C   UNL     1      41.120 -13.911  -3.419  1.00  0.00     0.254 C 
HETATM   18  C   UNL     1      41.389 -14.958  -2.322  1.00  0.00     0.150 C 
ENDBRANCH   6  11
ENDBRANCH   3   5
ENDBRANCH   1   3
BRANCH   1  19
HETATM   19  N   UNL     1      41.899 -13.856   3.808  1.00  0.00    -0.299 N 
HETATM   20  C   UNL     1      43.202 -14.315   3.763  1.00  0.00     0.260 C 
HETATM   21  O   UNL     1      44.155 -13.565   3.575  1.00  0.00    -0.267 OA
HETATM   22  H   UNL     1      41.286 -14.425   4.378  1.00  0.00     0.171 HD
BRANCH  20  23
HETATM   23  C   UNL     1      43.435 -15.771   4.007  1.00  0.00     0.068 C 
HETATM   24  C   UNL     1      43.507 -16.379   5.269  1.00  0.00     0.102 C 
HETATM   25  C   UNL     1      43.824 -17.756   5.352  1.00  0.00     0.056 C 
HETATM   26 BR   UNL     1      44.256 -18.526   7.057  1.00  0.00    -0.047 Br
HETATM   27  C   UNL     1      43.908 -18.570   4.181  1.00  0.00    -0.006 A 
HETATM   28  C   UNL     1      43.752 -17.943   2.923  1.00  0.00    -0.024 A 
HETATM   29  C   UNL     1      44.132 -19.972   4.175  1.00  0.00     0.014 A 
HETATM   30  C   UNL     1      43.552 -16.561   2.853  1.00  0.00     0.032 C 
HETATM   31  C   UNL     1      43.804 -18.695   1.738  1.00  0.00     0.012 A 
HETATM   32  C   UNL     1      44.009 -20.072   1.769  1.00  0.00     0.001 A 
HETATM   33  C   UNL     1      44.177 -20.711   2.988  1.00  0.00     0.001 A 
BRANCH  24  34
HETATM   34  O   UNL     1      43.337 -15.582   6.380  1.00  0.00    -0.353 OA
HETATM   35  C   UNL     1      44.553 -14.959   6.822  1.00  0.00     0.210 C 
ENDBRANCH  24  34
ENDBRANCH  20  23
ENDBRANCH   1  19
TORSDOF 6
ENDMDL
MODEL 6
REMARK VINA RESULT:      -8.9      2.783      4.285
REMARK  6 active torsions:
REMARK  status: ('A' for Active; 'I' for Inactive)
REMARK    1  A    between atoms: N_6  and  C_7 
REMARK    2  A    between atoms: C_8  and  N_9 
REMARK    3  A    between atoms: N_9  and  C_10 
REMARK    4  A    between atoms: C_10  and  N_11 
REMARK       I    between atoms: N_11  and  C_12 
REMARK    5  A    between atoms: C_12  and  C_13 
REMARK    6  A    between atoms: C_14  and  O_15 
ROOT
HETATM    1  C   UNL     1      41.038 -16.101   1.842  1.00  0.00     0.179 C 
HETATM    2  S   UNL     1      41.346 -16.574   0.258  1.00  0.00    -0.040 SA
ENDROOT
BRANCH   1   3
HETATM    3  N   UNL     1      39.814 -15.606   2.295  1.00  0.00    -0.331 N 
HETATM    4  H   UNL     1      39.450 -16.056   3.130  1.00  0.00     0.168 HD
BRANCH   3   5
HETATM    5  C   UNL     1      39.315 -14.299   2.070  1.00  0.00     0.061 A 
HETATM    6  C   UNL     1      39.491 -13.287   3.052  1.00  0.00     0.057 A 
HETATM    7  C   UNL     1      38.722 -12.120   2.874  1.00  0.00     0.031 A 
HETATM    8  C   UNL     1      37.923 -11.913   1.741  1.00  0.00     0.002 A 
HETATM    9  C   UNL     1      37.841 -12.884   0.758  1.00  0.00     0.002 A 
HETATM   10  C   UNL     1      38.518 -14.084   0.932  1.00  0.00     0.032 A 
BRANCH   6  11
HETATM   11  N   UNL     1      40.400 -13.437   4.133  1.00  0.00    -0.376 N 
HETATM   12  C   UNL     1      39.855 -13.607   5.505  1.00  0.00     0.150 C 
HETATM   13  C   UNL     1      39.474 -12.254   6.163  1.00  0.00     0.254 C 
HETATM   14  N   UNL     1      40.632 -11.257   6.106  1.00  0.00    -0.072 N 
HETATM   15  C   UNL     1      40.256  -9.922   6.674  1.00  0.00     0.269 C 
HETATM   16  H   UNL     1      41.390 -11.640   6.685  1.00  0.00     0.279 HD
HETATM   17  C   UNL     1      41.180 -11.120   4.685  1.00  0.00     0.254 C 
HETATM   18  C   UNL     1      41.566 -12.505   4.133  1.00  0.00     0.150 C 
ENDBRANCH   6  11
ENDBRANCH   3   5
ENDBRANCH   1   3
BRANCH   1  19
HETATM   19  N   UNL     1      41.974 -16.080   2.874  1.00  0.00    -0.299 N 
HETATM   20  C   UNL     1      43.242 -16.618   2.748  1.00  0.00     0.260 C 
HETATM   21  O   UNL     1      44.093 -16.122   2.016  1.00  0.00    -0.267 OA
HETATM   22  H   UNL     1      41.539 -16.269   3.769  1.00  0.00     0.171 HD
BRANCH  20  23
HETATM   23  C   UNL     1      43.578 -17.812   3.582  1.00  0.00     0.068 C 
HETATM   24  C   UNL     1      43.588 -17.843   4.984  1.00  0.00     0.102 C 
HETATM   25  C   UNL     1      44.015 -19.020   5.642  1.00  0.00     0.056 C 
HETATM   26 BR   UNL     1      44.356 -18.977   7.531  1.00  0.00    -0.047 Br
HETATM   27  C   UNL     1      44.275 -20.223   4.917  1.00  0.00    -0.006 A 
HETATM   28  C   UNL     1      44.179 -20.183   3.507  1.00  0.00    -0.024 A 
HETATM   29  C   UNL     1      44.620 -21.471   5.501  1.00  0.00     0.014 A 
HETATM   30  C   UNL     1      43.867 -18.982   2.863  1.00  0.00     0.032 C 
HETATM   31  C   UNL     1      44.403 -21.340   2.742  1.00  0.00     0.012 A 
HETATM   32  C   UNL     1      44.724 -22.551   3.348  1.00  0.00     0.001 A 
HETATM   33  C   UNL     1      44.836 -22.617   4.729  1.00  0.00     0.001 A 
BRANCH  24  34
HETATM   34  O   UNL     1      43.249 -16.690   5.658  1.00  0.00    -0.353 OA
HETATM   35  C   UNL     1      41.945 -16.745   6.255  1.00  0.00     0.210 C 
ENDBRANCH  24  34
ENDBRANCH  20  23
ENDBRANCH   1  19
TORSDOF 6
ENDMDL
MODEL 7
REMARK VINA RESULT:      -8.7      1.950      2.225
REMARK  6 active torsions:
REMARK  status: ('A' for Active; 'I' for Inactive)
REMARK    1  A    between atoms: N_6  and  C_7 
REMARK    2  A    between atoms: C_8  and  N_9 
REMARK    3  A    between atoms: N_9  and  C_10 
REMARK    4  A    between atoms: C_10  and  N_11 
REMARK       I    between atoms: N_11  and  C_12 
REMARK    5  A    between atoms: C_12  and  C_13 
REMARK    6  A    between atoms: C_14  and  O_15 
ROOT
HETATM    1  C   UNL     1      41.471 -14.006   3.073  1.00  0.00     0.179 C 
HETATM    2  S   UNL     1      42.430 -12.954   3.969  1.00  0.00    -0.040 SA
ENDROOT
BRANCH   1   3
HETATM    3  N   UNL     1      40.077 -13.957   3.026  1.00  0.00    -0.331 N 
HETATM    4  H   UNL     1      39.602 -14.602   3.651  1.00  0.00     0.168 HD
BRANCH   3   5
HETATM    5  C   UNL     1      39.300 -12.834   2.646  1.00  0.00     0.061 A 
HETATM    6  C   UNL     1      39.085 -12.546   1.271  1.00  0.00     0.057 A 
HETATM    7  C   UNL     1      38.556 -11.270   0.988  1.00  0.00     0.031 A 
HETATM    8  C   UNL     1      38.154 -10.384   1.997  1.00  0.00     0.002 A 
HETATM    9  C   UNL     1      38.297 -10.731   3.330  1.00  0.00     0.002 A 
HETATM   10  C   UNL     1      38.889 -11.944   3.655  1.00  0.00     0.032 A 
BRANCH   6  11
HETATM   11  N   UNL     1      39.366 -13.491   0.250  1.00  0.00    -0.376 N 
HETATM   12  C   UNL     1      40.577 -13.296  -0.589  1.00  0.00     0.150 C 
HETATM   13  C   UNL     1      40.338 -12.288  -1.746  1.00  0.00     0.254 C 
HETATM   14  N   UNL     1      39.104 -12.660  -2.567  1.00  0.00    -0.072 N 
HETATM   15  C   UNL     1      38.819 -11.658  -3.645  1.00  0.00     0.269 C 
HETATM   16  H   UNL     1      39.302 -13.560  -3.024  1.00  0.00     0.279 HD
HETATM   17  C   UNL     1      37.882 -12.872  -1.671  1.00  0.00     0.254 C 
HETATM   18  C   UNL     1      38.201 -13.912  -0.582  1.00  0.00     0.150 C 
ENDBRANCH   6  11
ENDBRANCH   3   5
ENDBRANCH   1   3
BRANCH   1  19
HETATM   19  N   UNL     1      41.937 -15.088   2.329  1.00  0.00    -0.299 N 
HETATM   20  C   UNL     1      41.420 -16.365   2.457  1.00  0.00     0.260 C 
HETATM   21  O   UNL     1      40.284 -16.651   2.091  1.00  0.00    -0.267 OA
HETATM   22  H   UNL     1      42.945 -15.065   2.237  1.00  0.00     0.171 HD
BRANCH  20  23
HETATM   23  C   UNL     1      42.314 -17.425   3.014  1.00  0.00     0.068 C 
HETATM   24  C   UNL     1      42.907 -17.399   4.285  1.00  0.00     0.102 C 
HETATM   25  C   UNL     1      43.806 -18.430   4.645  1.00  0.00     0.056 C 
HETATM   26 BR   UNL     1      44.877 -18.241   6.228  1.00  0.00    -0.047 Br
HETATM   27  C   UNL     1      43.994 -19.575   3.812  1.00  0.00    -0.006 A 
HETATM   28  C   UNL     1      43.321 -19.611   2.569  1.00  0.00    -0.024 A 
HETATM   29  C   UNL     1      44.805 -20.696   4.134  1.00  0.00     0.014 A 
HETATM   30  C   UNL     1      42.524 -18.531   2.177  1.00  0.00     0.032 C 
HETATM   31  C   UNL     1      43.451 -20.720   1.717  1.00  0.00     0.012 A 
HETATM   32  C   UNL     1      44.242 -21.810   2.071  1.00  0.00     0.001 A 
HETATM   33  C   UNL     1      44.923 -21.796   3.279  1.00  0.00     0.001 A 
BRANCH  24  34
HETATM   34  O   UNL     1      42.639 -16.321   5.100  1.00  0.00    -0.353 OA
HETATM   35  C   UNL     1      41.527 -16.541   5.982  1.00  0.00     0.210 C 
ENDBRANCH  24  34
ENDBRANCH  20  23
ENDBRANCH   1  19
TORSDOF 6
ENDMDL
MODEL 8
REMARK VINA RESULT:      -8.6      3.280      5.101
REMARK  6 active torsions:
REMARK  status: ('A' for Active; 'I' for Inactive)
REMARK    1  A    between atoms: N_6  and  C_7 
REMARK    2  A    between atoms: C_8  and  N_9 
REMARK    3  A    between atoms: N_9  and  C_10 
REMARK    4  A    between atoms: C_10  and  N_11 
REMARK       I    between atoms: N_11  and  C_12 
REMARK    5  A    between atoms: C_12  and  C_13 
REMARK    6  A    between atoms: C_14  and  O_15 
ROOT
HETATM    1  C   UNL     1      41.063 -13.892   1.635  1.00  0.00     0.179 C 
HETATM    2  S   UNL     1      42.178 -12.663   1.363  1.00  0.00    -0.040 SA
ENDROOT
BRANCH   1   3
HETATM    3  N   UNL     1      39.838 -13.717   2.280  1.00  0.00    -0.331 N 
HETATM    4  H   UNL     1      39.524 -14.511   2.831  1.00  0.00     0.168 HD
BRANCH   3   5
HETATM    5  C   UNL     1      39.277 -12.476   2.672  1.00  0.00     0.061 A 
HETATM    6  C   UNL     1      39.278 -12.092   4.040  1.00  0.00     0.057 A 
HETATM    7  C   UNL     1      38.454 -10.996   4.369  1.00  0.00     0.031 A 
HETATM    8  C   UNL     1      37.769 -10.253   3.397  1.00  0.00     0.002 A 
HETATM    9  C   UNL     1      37.859 -10.602   2.060  1.00  0.00     0.002 A 
HETATM   10  C   UNL     1      38.594 -11.725   1.700  1.00  0.00     0.032 A 
BRANCH   6  11
HETATM   11  N   UNL     1      40.073 -12.757   5.009  1.00  0.00    -0.376 N 
HETATM   12  C   UNL     1      39.478 -13.055   6.338  1.00  0.00     0.150 C 
HETATM   13  C   UNL     1      39.533 -11.836   7.298  1.00  0.00     0.254 C 
HETATM   14  N   UNL     1      40.947 -11.265   7.398  1.00  0.00    -0.072 N 
HETATM   15  C   UNL     1      41.003 -10.043   8.266  1.00  0.00     0.269 C 
HETATM   16  H   UNL     1      41.536 -11.985   7.836  1.00  0.00     0.279 HD
HETATM   17  C   UNL     1      41.535 -10.987   6.014  1.00  0.00     0.254 C 
HETATM   18  C   UNL     1      41.473 -12.261   5.150  1.00  0.00     0.150 C 
ENDBRANCH   6  11
ENDBRANCH   3   5
ENDBRANCH   1   3
BRANCH   1  19
HETATM   19  N   UNL     1      41.249 -15.236   1.315  1.00  0.00    -0.299 N 
HETATM   20  C   UNL     1      40.759 -16.267   2.096  1.00  0.00     0.260 C 
HETATM   21  O   UNL     1      39.558 -16.496   2.199  1.00  0.00    -0.267 OA
HETATM   22  H   UNL     1      42.181 -15.403   0.958  1.00  0.00     0.171 HD
BRANCH  20  23
HETATM   23  C   UNL     1      41.750 -17.149   2.784  1.00  0.00     0.068 C 
HETATM   24  C   UNL     1      42.234 -16.960   4.087  1.00  0.00     0.102 C 
HETATM   25  C   UNL     1      43.240 -17.825   4.578  1.00  0.00     0.056 C 
HETATM   26 BR   UNL     1      44.149 -17.387   6.212  1.00  0.00    -0.047 Br
HETATM   27  C   UNL     1      43.652 -18.978   3.842  1.00  0.00    -0.006 A 
HETATM   28  C   UNL     1      43.088 -19.187   2.563  1.00  0.00    -0.024 A 
HETATM   29  C   UNL     1      44.587 -19.946   4.296  1.00  0.00     0.014 A 
HETATM   30  C   UNL     1      42.178 -18.261   2.043  1.00  0.00     0.032 C 
HETATM   31  C   UNL     1      43.438 -20.314   1.801  1.00  0.00     0.012 A 
HETATM   32  C   UNL     1      44.347 -21.252   2.283  1.00  0.00     0.001 A 
HETATM   33  C   UNL     1      44.925 -21.067   3.530  1.00  0.00     0.001 A 
BRANCH  24  34
HETATM   34  O   UNL     1      41.754 -15.887   4.805  1.00  0.00    -0.353 OA
HETATM   35  C   UNL     1      40.803 -16.260   5.815  1.00  0.00     0.210 C 
ENDBRANCH  24  34
ENDBRANCH  20  23
ENDBRANCH   1  19
TORSDOF 6
ENDMDL
MODEL 9
REMARK VINA RESULT:      -8.6      2.331      3.177
REMARK  6 active torsions:
REMARK  status: ('A' for Active; 'I' for Inactive)
REMARK    1  A    between atoms: N_6  and  C_7 
REMARK    2  A    between atoms: C_8  and  N_9 
REMARK    3  A    between atoms: N_9  and  C_10 
REMARK    4  A    between atoms: C_10  and  N_11 
REMARK       I    between atoms: N_11  and  C_12 
REMARK    5  A    between atoms: C_12  and  C_13 
REMARK    6  A    between atoms: C_14  and  O_15 
ROOT
HETATM    1  C   UNL     1      40.715 -13.005   4.703  1.00  0.00     0.179 C 
HETATM    2  S   UNL     1      39.612 -12.362   5.798  1.00  0.00    -0.040 SA
ENDROOT
BRANCH   1   3
HETATM    3  N   UNL     1      40.444 -13.238   3.354  1.00  0.00    -0.331 N 
HETATM    4  H   UNL     1      39.977 -14.119   3.155  1.00  0.00     0.168 HD
BRANCH   3   5
HETATM    5  C   UNL     1      40.262 -12.243   2.361  1.00  0.00     0.061 A 
HETATM    6  C   UNL     1      39.900 -12.612   1.037  1.00  0.00     0.057 A 
HETATM    7  C   UNL     1      40.025 -11.600   0.064  1.00  0.00     0.031 A 
HETATM    8  C   UNL     1      40.367 -10.280   0.393  1.00  0.00     0.002 A 
HETATM    9  C   UNL     1      40.628  -9.934   1.707  1.00  0.00     0.002 A 
HETATM   10  C   UNL     1      40.598 -10.917   2.687  1.00  0.00     0.032 A 
BRANCH   6  11
HETATM   11  N   UNL     1      39.425 -13.912   0.720  1.00  0.00    -0.376 N 
HETATM   12  C   UNL     1      40.398 -14.931   0.248  1.00  0.00     0.150 C 
HETATM   13  C   UNL     1      40.705 -14.798  -1.268  1.00  0.00     0.254 C 
HETATM   14  N   UNL     1      39.423 -14.775  -2.100  1.00  0.00    -0.072 N 
HETATM   15  C   UNL     1      39.701 -14.576  -3.560  1.00  0.00     0.269 C 
HETATM   16  H   UNL     1      38.973 -15.693  -1.991  1.00  0.00     0.279 HD
HETATM   17  C   UNL     1      38.438 -13.728  -1.576  1.00  0.00     0.254 C 
HETATM   18  C   UNL     1      38.166 -13.964  -0.078  1.00  0.00     0.150 C 
ENDBRANCH   6  11
ENDBRANCH   3   5
ENDBRANCH   1   3
BRANCH   1  19
HETATM   19  N   UNL     1      42.000 -13.443   5.016  1.00  0.00    -0.299 N 
HETATM   20  C   UNL     1      42.853 -13.996   4.078  1.00  0.00     0.260 C 
HETATM   21  O   UNL     1      43.341 -13.335   3.166  1.00  0.00    -0.267 OA
HETATM   22  H   UNL     1      42.021 -13.913   5.913  1.00  0.00     0.171 HD
BRANCH  20  23
HETATM   23  C   UNL     1      43.218 -15.437   4.235  1.00  0.00     0.068 C 
HETATM   24  C   UNL     1      43.507 -16.071   5.452  1.00  0.00     0.102 C 
HETATM   25  C   UNL     1      43.927 -17.422   5.441  1.00  0.00     0.056 C 
HETATM   26 BR   UNL     1      44.645 -18.204   7.041  1.00  0.00    -0.047 Br
HETATM   27  C   UNL     1      43.904 -18.196   4.240  1.00  0.00    -0.006 A 
HETATM   28  C   UNL     1      43.531 -17.550   3.040  1.00  0.00    -0.024 A 
HETATM   29  C   UNL     1      44.222 -19.578   4.152  1.00  0.00     0.014 A 
HETATM   30  C   UNL     1      43.228 -16.185   3.048  1.00  0.00     0.032 C 
HETATM   31  C   UNL     1      43.470 -18.264   1.831  1.00  0.00     0.012 A 
HETATM   32  C   UNL     1      43.773 -19.622   1.784  1.00  0.00     0.001 A 
HETATM   33  C   UNL     1      44.153 -20.279   2.944  1.00  0.00     0.001 A 
BRANCH  24  34
HETATM   34  O   UNL     1      43.438 -15.319   6.604  1.00  0.00    -0.353 OA
HETATM   35  C   UNL     1      44.673 -14.661   6.927  1.00  0.00     0.210 C 
ENDBRANCH  24  34
ENDBRANCH  20  23
ENDBRANCH   1  19
TORSDOF 6
ENDMDL
MODEL 10
REMARK VINA RESULT:      -8.5      1.874      2.159
REMARK  6 active torsions:
REMARK  status: ('A' for Active; 'I' for Inactive)
REMARK    1  A    between atoms: N_6  and  C_7 
REMARK    2  A    between atoms: C_8  and  N_9 
REMARK    3  A    between atoms: N_9  and  C_10 
REMARK    4  A    between atoms: C_10  and  N_11 
REMARK       I    between atoms: N_11  and  C_12 
REMARK    5  A    between atoms: C_12  and  C_13 
REMARK    6  A    between atoms: C_14  and  O_15 
ROOT
HETATM    1  C   UNL     1      40.671 -15.705   1.146  1.00  0.00     0.179 C 
HETATM    2  S   UNL     1      41.542 -16.201  -0.206  1.00  0.00    -0.040 SA
ENDROOT
BRANCH   1   3
HETATM    3  N   UNL     1      39.417 -15.095   1.096  1.00  0.00    -0.331 N 
HETATM    4  H   UNL     1      38.659 -15.636   1.501  1.00  0.00     0.168 HD
BRANCH   3   5
HETATM    5  C   UNL     1      39.176 -13.699   1.045  1.00  0.00     0.061 A 
HETATM    6  C   UNL     1      39.296 -12.997  -0.184  1.00  0.00     0.057 A 
HETATM    7  C   UNL     1      39.324 -11.591  -0.087  1.00  0.00     0.031 A 
HETATM    8  C   UNL     1      39.126 -10.919   1.128  1.00  0.00     0.002 A 
HETATM    9  C   UNL     1      38.924 -11.633   2.296  1.00  0.00     0.002 A 
HETATM   10  C   UNL     1      38.971 -13.021   2.260  1.00  0.00     0.032 A 
BRANCH   6  11
HETATM   11  N   UNL     1      39.364 -13.670  -1.433  1.00  0.00    -0.376 N 
HETATM   12  C   UNL     1      40.364 -13.216  -2.434  1.00  0.00     0.150 C 
HETATM   13  C   UNL     1      39.871 -11.992  -3.251  1.00  0.00     0.254 C 
HETATM   14  N   UNL     1      38.493 -12.246  -3.864  1.00  0.00    -0.072 N 
HETATM   15  C   UNL     1      37.972 -11.046  -4.597  1.00  0.00     0.269 C 
HETATM   16  H   UNL     1      38.600 -13.006  -4.547  1.00  0.00     0.279 HD
HETATM   17  C   UNL     1      37.495 -12.728  -2.810  1.00  0.00     0.254 C 
HETATM   18  C   UNL     1      38.054 -13.965  -2.082  1.00  0.00     0.150 C 
ENDBRANCH   6  11
ENDBRANCH   3   5
ENDBRANCH   1   3
BRANCH   1  19
HETATM   19  N   UNL     1      41.117 -15.778   2.464  1.00  0.00    -0.299 N 
HETATM   20  C   UNL     1      42.457 -15.747   2.805  1.00  0.00     0.260 C 
HETATM   21  O   UNL     1      43.145 -14.739   2.668  1.00  0.00    -0.267 OA
HETATM   22  H   UNL     1      40.576 -16.446   2.999  1.00  0.00     0.171 HD
BRANCH  20  23
HETATM   23  C   UNL     1      43.049 -16.979   3.409  1.00  0.00     0.068 C 
HETATM   24  C   UNL     1      43.429 -17.120   4.753  1.00  0.00     0.102 C 
HETATM   25  C   UNL     1      44.062 -18.316   5.165  1.00  0.00     0.056 C 
HETATM   26 BR   UNL     1      44.885 -18.401   6.898  1.00  0.00    -0.047 Br
HETATM   27  C   UNL     1      44.173 -19.438   4.289  1.00  0.00    -0.006 A 
HETATM   28  C   UNL     1      43.709 -19.293   2.961  1.00  0.00    -0.024 A 
HETATM   29  C   UNL     1      44.711 -20.704   4.645  1.00  0.00     0.014 A 
HETATM   30  C   UNL     1      43.189 -18.067   2.535  1.00  0.00     0.032 C 
HETATM   31  C   UNL     1      43.773 -20.368   2.059  1.00  0.00     0.012 A 
HETATM   32  C   UNL     1      44.292 -21.601   2.446  1.00  0.00     0.001 A 
HETATM   33  C   UNL     1      44.765 -21.768   3.739  1.00  0.00     0.001 A 
BRANCH  24  34
HETATM   34  O   UNL     1      43.230 -16.049   5.595  1.00  0.00    -0.353 OA
HETATM   35  C   UNL     1      41.997 -16.124   6.327  1.00  0.00     0.210 C 
ENDBRANCH  24  34
ENDBRANCH  20  23
ENDBRANCH   1  19
TORSDOF 6
ENDMDL
