MODEL 1
REMARK VINA RESULT:      -8.5      0.000      0.000
REMARK  3 active torsions:
REMARK  status: ('A' for Active; 'I' for Inactive)
REMARK    1  A    between atoms: C_6  and  N_7 
REMARK       I    between atoms: N_7  and  C_8 
REMARK    2  A    between atoms: C_8  and  C_9 
REMARK    3  A    between atoms: C_9  and  C_10 
ROOT
HETATM    1  N   UNL     1      42.546 -16.856   3.916  1.00  0.00    -0.325 N 
HETATM    2  C   UNL     1      41.465 -16.689   4.761  1.00  0.00     0.228 C 
HETATM    3  O   UNL     1      40.832 -17.587   5.309  1.00  0.00    -0.273 OA
HETATM    4  H   UNL     1      43.210 -16.078   3.932  1.00  0.00     0.169 HD
ENDROOT
BRANCH   2   5
HETATM    5  C   UNL     1      41.065 -15.240   4.955  1.00  0.00     0.165 C 
BRANCH   5   6
HETATM    6  C   UNL     1      41.377 -14.332   3.779  1.00  0.00     0.074 A 
HETATM    7  N   UNL     1      42.514 -13.700   3.839  1.00  0.00    -0.175 NA
HETATM    8  N   UNL     1      42.873 -12.901   2.804  1.00  0.00    -0.243 N 
HETATM    9  C   UNL     1      42.167 -12.721   1.641  1.00  0.00     0.272 A 
HETATM   10  H   UNL     1      43.763 -12.417   2.882  1.00  0.00     0.192 HD
HETATM   11  O   UNL     1      42.576 -12.009   0.731  1.00  0.00    -0.266 OA
HETATM   12  C   UNL     1      40.881 -13.430   1.549  1.00  0.00     0.046 A 
HETATM   13  C   UNL     1      40.455 -14.222   2.618  1.00  0.00     0.006 A 
HETATM   14  C   UNL     1      40.098 -13.295   0.395  1.00  0.00     0.018 A 
HETATM   15  C   UNL     1      39.214 -14.865   2.531  1.00  0.00     0.014 A 
HETATM   16  C   UNL     1      38.431 -14.731   1.377  1.00  0.00     0.001 A 
HETATM   17  C   UNL     1      38.874 -13.952   0.310  1.00  0.00     0.001 A 
ENDBRANCH   5   6
ENDBRANCH   2   5
BRANCH   1  18
HETATM   18  C   UNL     1      43.089 -18.091   3.481  1.00  0.00     0.062 A 
HETATM   19  C   UNL     1      42.578 -18.642   2.286  1.00  0.00     0.061 A 
HETATM   20  C   UNL     1      43.058 -19.851   1.778  1.00  0.00     0.033 A 
HETATM   21 CL   UNL     1      41.357 -17.820   1.369  1.00  0.00    -0.082 Cl
HETATM   22  C   UNL     1      44.041 -20.560   2.468  1.00  0.00    -0.060 A 
HETATM   23  C   UNL     1      44.593 -21.839   1.913  1.00  0.00     0.048 C 
HETATM   24  C   UNL     1      44.533 -20.035   3.668  1.00  0.00     0.016 A 
HETATM   25  C   UNL     1      44.046 -18.824   4.208  1.00  0.00    -0.033 A 
HETATM   26  C   UNL     1      44.558 -18.433   5.567  1.00  0.00     0.050 C 
ENDBRANCH   1  18
TORSDOF 3
ENDMDL
MODEL 2
REMARK VINA RESULT:      -8.5      2.367      7.198
REMARK  3 active torsions:
REMARK  status: ('A' for Active; 'I' for Inactive)
REMARK    1  A    between atoms: C_6  and  N_7 
REMARK       I    between atoms: N_7  and  C_8 
REMARK    2  A    between atoms: C_8  and  C_9 
REMARK    3  A    between atoms: C_9  and  C_10 
ROOT
HETATM    1  N   UNL     1      41.841 -15.828   0.910  1.00  0.00    -0.325 N 
HETATM    2  C   UNL     1      41.867 -17.207   0.986  1.00  0.00     0.228 C 
HETATM    3  O   UNL     1      40.889 -17.947   1.015  1.00  0.00    -0.273 OA
HETATM    4  H   UNL     1      42.655 -15.422   0.440  1.00  0.00     0.169 HD
ENDROOT
BRANCH   2   5
HETATM    5  C   UNL     1      43.267 -17.783   1.072  1.00  0.00     0.165 C 
BRANCH   5   6
HETATM    6  C   UNL     1      43.684 -18.233   2.461  1.00  0.00     0.074 A 
HETATM    7  N   UNL     1      43.670 -17.312   3.382  1.00  0.00    -0.175 NA
HETATM    8  N   UNL     1      43.996 -17.653   4.653  1.00  0.00    -0.243 N 
HETATM    9  C   UNL     1      44.300 -18.916   5.097  1.00  0.00     0.272 A 
HETATM   10  H   UNL     1      43.980 -16.912   5.348  1.00  0.00     0.192 HD
HETATM   11  O   UNL     1      44.548 -19.154   6.273  1.00  0.00    -0.266 OA
HETATM   12  C   UNL     1      44.318 -19.974   4.074  1.00  0.00     0.046 A 
HETATM   13  C   UNL     1      44.038 -19.649   2.745  1.00  0.00     0.006 A 
HETATM   14  C   UNL     1      44.624 -21.289   4.445  1.00  0.00     0.018 A 
HETATM   15  C   UNL     1      44.089 -20.659   1.776  1.00  0.00     0.014 A 
HETATM   16  C   UNL     1      44.394 -21.975   2.148  1.00  0.00     0.001 A 
HETATM   17  C   UNL     1      44.656 -22.291   3.479  1.00  0.00     0.001 A 
ENDBRANCH   5   6
ENDBRANCH   2   5
BRANCH   1  18
HETATM   18  C   UNL     1      40.683 -15.008   0.906  1.00  0.00     0.062 A 
HETATM   19  C   UNL     1      40.211 -14.556  -0.345  1.00  0.00     0.061 A 
HETATM   20  C   UNL     1      39.074 -13.750  -0.446  1.00  0.00     0.033 A 
HETATM   21 CL   UNL     1      40.997 -15.014  -1.822  1.00  0.00    -0.082 Cl
HETATM   22  C   UNL     1      38.396 -13.348   0.704  1.00  0.00    -0.060 A 
HETATM   23  C   UNL     1      37.152 -12.517   0.608  1.00  0.00     0.048 C 
HETATM   24  C   UNL     1      38.875 -13.769   1.950  1.00  0.00     0.016 A 
HETATM   25  C   UNL     1      40.034 -14.567   2.073  1.00  0.00    -0.033 A 
HETATM   26  C   UNL     1      40.522 -14.844   3.469  1.00  0.00     0.050 C 
ENDBRANCH   1  18
TORSDOF 3
ENDMDL
MODEL 3
REMARK VINA RESULT:      -8.2      2.896      7.201
REMARK  3 active torsions:
REMARK  status: ('A' for Active; 'I' for Inactive)
REMARK    1  A    between atoms: C_6  and  N_7 
REMARK       I    between atoms: N_7  and  C_8 
REMARK    2  A    between atoms: C_8  and  C_9 
REMARK    3  A    between atoms: C_9  and  C_10 
ROOT
HETATM    1  N   UNL     1      40.856 -15.760  -0.159  1.00  0.00    -0.325 N 
HETATM    2  C   UNL     1      41.739 -16.626   0.458  1.00  0.00     0.228 C 
HETATM    3  O   UNL     1      42.952 -16.669   0.279  1.00  0.00    -0.273 OA
HETATM    4  H   UNL     1      40.033 -15.534   0.405  1.00  0.00     0.169 HD
ENDROOT
BRANCH   2   5
HETATM    5  C   UNL     1      41.069 -17.602   1.406  1.00  0.00     0.165 C 
BRANCH   5   6
HETATM    6  C   UNL     1      41.689 -17.669   2.790  1.00  0.00     0.074 A 
HETATM    7  N   UNL     1      41.183 -16.860   3.676  1.00  0.00    -0.175 NA
HETATM    8  N   UNL     1      41.665 -16.894   4.943  1.00  0.00    -0.243 N 
HETATM    9  C   UNL     1      42.625 -17.753   5.418  1.00  0.00     0.272 A 
HETATM   10  H   UNL     1      41.254 -16.248   5.610  1.00  0.00     0.192 HD
HETATM   11  O   UNL     1      42.983 -17.749   6.590  1.00  0.00    -0.266 OA
HETATM   12  C   UNL     1      43.208 -18.679   4.435  1.00  0.00     0.046 A 
HETATM   13  C   UNL     1      42.772 -18.638   3.109  1.00  0.00     0.006 A 
HETATM   14  C   UNL     1      44.197 -19.585   4.840  1.00  0.00     0.018 A 
HETATM   15  C   UNL     1      43.357 -19.503   2.177  1.00  0.00     0.014 A 
HETATM   16  C   UNL     1      44.346 -20.409   2.582  1.00  0.00     0.001 A 
HETATM   17  C   UNL     1      44.761 -20.454   3.910  1.00  0.00     0.001 A 
ENDBRANCH   5   6
ENDBRANCH   2   5
BRANCH   1  18
HETATM   18  C   UNL     1      41.177 -14.801  -1.153  1.00  0.00     0.062 A 
HETATM   19  C   UNL     1      41.685 -13.558  -0.718  1.00  0.00     0.061 A 
HETATM   20  C   UNL     1      42.034 -12.555  -1.626  1.00  0.00     0.033 A 
HETATM   21 CL   UNL     1      41.940 -13.232   0.966  1.00  0.00    -0.082 Cl
HETATM   22  C   UNL     1      41.855 -12.757  -2.994  1.00  0.00    -0.060 A 
HETATM   23  C   UNL     1      42.262 -11.705  -3.982  1.00  0.00     0.048 C 
HETATM   24  C   UNL     1      41.324 -13.976  -3.432  1.00  0.00     0.016 A 
HETATM   25  C   UNL     1      40.947 -14.993  -2.528  1.00  0.00    -0.033 A 
HETATM   26  C   UNL     1      40.268 -16.201  -3.112  1.00  0.00     0.050 C 
ENDBRANCH   1  18
TORSDOF 3
ENDMDL
MODEL 4
REMARK VINA RESULT:      -8.2      3.078      4.268
REMARK  3 active torsions:
REMARK  status: ('A' for Active; 'I' for Inactive)
REMARK    1  A    between atoms: C_6  and  N_7 
REMARK       I    between atoms: N_7  and  C_8 
REMARK    2  A    between atoms: C_8  and  C_9 
REMARK    3  A    between atoms: C_9  and  C_10 
ROOT
HETATM    1  N   UNL     1      41.983 -15.793   2.456  1.00  0.00    -0.325 N 
HETATM    2  C   UNL     1      42.466 -14.505   2.326  1.00  0.00     0.228 C 
HETATM    3  O   UNL     1      43.490 -14.063   2.838  1.00  0.00    -0.273 OA
HETATM    4  H   UNL     1      41.441 -16.118   1.651  1.00  0.00     0.169 HD
ENDROOT
BRANCH   2   5
HETATM    5  C   UNL     1      41.579 -13.606   1.486  1.00  0.00     0.165 C 
BRANCH   5   6
HETATM    6  C   UNL     1      41.471 -14.008   0.026  1.00  0.00     0.074 A 
HETATM    7  N   UNL     1      40.955 -15.182  -0.201  1.00  0.00    -0.175 NA
HETATM    8  N   UNL     1      40.795 -15.588  -1.485  1.00  0.00    -0.243 N 
HETATM    9  C   UNL     1      41.081 -14.851  -2.607  1.00  0.00     0.272 A 
HETATM   10  H   UNL     1      40.394 -16.511  -1.630  1.00  0.00     0.192 HD
HETATM   11  O   UNL     1      40.872 -15.274  -3.738  1.00  0.00    -0.266 OA
HETATM   12  C   UNL     1      41.661 -13.519  -2.374  1.00  0.00     0.046 A 
HETATM   13  C   UNL     1      41.888 -13.087  -1.065  1.00  0.00     0.006 A 
HETATM   14  C   UNL     1      41.985 -12.706  -3.468  1.00  0.00     0.018 A 
HETATM   15  C   UNL     1      42.470 -11.831  -0.859  1.00  0.00     0.014 A 
HETATM   16  C   UNL     1      42.793 -11.017  -1.952  1.00  0.00     0.001 A 
HETATM   17  C   UNL     1      42.548 -11.451  -3.253  1.00  0.00     0.001 A 
ENDBRANCH   5   6
ENDBRANCH   2   5
BRANCH   1  18
HETATM   18  C   UNL     1      42.547 -16.826   3.248  1.00  0.00     0.062 A 
HETATM   19  C   UNL     1      42.128 -16.917   4.592  1.00  0.00     0.061 A 
HETATM   20  C   UNL     1      42.625 -17.907   5.445  1.00  0.00     0.033 A 
HETATM   21 CL   UNL     1      40.943 -15.829   5.241  1.00  0.00    -0.082 Cl
HETATM   22  C   UNL     1      43.579 -18.813   4.983  1.00  0.00    -0.060 A 
HETATM   23  C   UNL     1      44.091 -19.905   5.874  1.00  0.00     0.048 C 
HETATM   24  C   UNL     1      44.021 -18.711   3.659  1.00  0.00     0.016 A 
HETATM   25  C   UNL     1      43.545 -17.705   2.789  1.00  0.00    -0.033 A 
HETATM   26  C   UNL     1      44.192 -17.619   1.434  1.00  0.00     0.050 C 
ENDBRANCH   1  18
TORSDOF 3
ENDMDL
MODEL 5
REMARK VINA RESULT:      -8.1      2.460      7.226
REMARK  3 active torsions:
REMARK  status: ('A' for Active; 'I' for Inactive)
REMARK    1  A    between atoms: C_6  and  N_7 
REMARK       I    between atoms: N_7  and  C_8 
REMARK    2  A    between atoms: C_8  and  C_9 
REMARK    3  A    between atoms: C_9  and  C_10 
ROOT
HETATM    1  N   UNL     1      42.067 -15.726   0.112  1.00  0.00    -0.325 N 
HETATM    2  C   UNL     1      42.005 -16.994   0.658  1.00  0.00     0.228 C 
HETATM    3  O   UNL     1      40.985 -17.655   0.835  1.00  0.00    -0.273 OA
HETATM    4  H   UNL     1      42.942 -15.528  -0.379  1.00  0.00     0.169 HD
ENDROOT
BRANCH   2   5
HETATM    5  C   UNL     1      43.354 -17.539   1.083  1.00  0.00     0.165 C 
BRANCH   5   6
HETATM    6  C   UNL     1      43.578 -17.580   2.584  1.00  0.00     0.074 A 
HETATM    7  N   UNL     1      43.316 -16.477   3.225  1.00  0.00    -0.175 NA
HETATM    8  N   UNL     1      43.458 -16.455   4.574  1.00  0.00    -0.243 N 
HETATM    9  C   UNL     1      43.812 -17.519   5.365  1.00  0.00     0.272 A 
HETATM   10  H   UNL     1      43.252 -15.579   5.045  1.00  0.00     0.192 HD
HETATM   11  O   UNL     1      43.884 -17.431   6.585  1.00  0.00    -0.266 OA
HETATM   12  C   UNL     1      44.109 -18.777   4.662  1.00  0.00     0.046 A 
HETATM   13  C   UNL     1      44.022 -18.823   3.269  1.00  0.00     0.006 A 
HETATM   14  C   UNL     1      44.481 -19.909   5.399  1.00  0.00     0.018 A 
HETATM   15  C   UNL     1      44.337 -20.017   2.611  1.00  0.00     0.014 A 
HETATM   16  C   UNL     1      44.709 -21.150   3.347  1.00  0.00     0.001 A 
HETATM   17  C   UNL     1      44.776 -21.098   4.737  1.00  0.00     0.001 A 
ENDBRANCH   5   6
ENDBRANCH   2   5
BRANCH   1  18
HETATM   18  C   UNL     1      40.965 -14.931  -0.294  1.00  0.00     0.062 A 
HETATM   19  C   UNL     1      40.273 -14.218   0.708  1.00  0.00     0.061 A 
HETATM   20  C   UNL     1      39.180 -13.404   0.400  1.00  0.00     0.033 A 
HETATM   21 CL   UNL     1      40.775 -14.284   2.367  1.00  0.00    -0.082 Cl
HETATM   22  C   UNL     1      38.728 -13.307  -0.916  1.00  0.00    -0.060 A 
HETATM   23  C   UNL     1      37.582 -12.407  -1.267  1.00  0.00     0.048 C 
HETATM   24  C   UNL     1      39.391 -14.034  -1.911  1.00  0.00     0.016 A 
HETATM   25  C   UNL     1      40.485 -14.877  -1.616  1.00  0.00    -0.033 A 
HETATM   26  C   UNL     1      41.028 -15.706  -2.748  1.00  0.00     0.050 C 
ENDBRANCH   1  18
TORSDOF 3
ENDMDL
MODEL 6
REMARK VINA RESULT:      -8.1      2.974      4.100
REMARK  3 active torsions:
REMARK  status: ('A' for Active; 'I' for Inactive)
REMARK    1  A    between atoms: C_6  and  N_7 
REMARK       I    between atoms: N_7  and  C_8 
REMARK    2  A    between atoms: C_8  and  C_9 
REMARK    3  A    between atoms: C_9  and  C_10 
ROOT
HETATM    1  N   UNL     1      42.018 -15.875   2.481  1.00  0.00    -0.325 N 
HETATM    2  C   UNL     1      42.531 -14.601   2.331  1.00  0.00     0.228 C 
HETATM    3  O   UNL     1      43.575 -14.181   2.823  1.00  0.00    -0.273 OA
HETATM    4  H   UNL     1      41.455 -16.192   1.687  1.00  0.00     0.169 HD
ENDROOT
BRANCH   2   5
HETATM    5  C   UNL     1      41.654 -13.687   1.498  1.00  0.00     0.165 C 
BRANCH   5   6
HETATM    6  C   UNL     1      41.522 -14.090   0.040  1.00  0.00     0.074 A 
HETATM    7  N   UNL     1      41.014 -15.270  -0.176  1.00  0.00    -0.175 NA
HETATM    8  N   UNL     1      40.834 -15.678  -1.457  1.00  0.00    -0.243 N 
HETATM    9  C   UNL     1      41.090 -14.938  -2.584  1.00  0.00     0.272 A 
HETATM   10  H   UNL     1      40.441 -16.605  -1.594  1.00  0.00     0.192 HD
HETATM   11  O   UNL     1      40.865 -15.363  -3.711  1.00  0.00    -0.266 OA
HETATM   12  C   UNL     1      41.660 -13.600  -2.362  1.00  0.00     0.046 A 
HETATM   13  C   UNL     1      41.907 -13.165  -1.058  1.00  0.00     0.006 A 
HETATM   14  C   UNL     1      41.954 -12.783  -3.462  1.00  0.00     0.018 A 
HETATM   15  C   UNL     1      42.479 -11.902  -0.863  1.00  0.00     0.014 A 
HETATM   16  C   UNL     1      42.773 -11.085  -1.963  1.00  0.00     0.001 A 
HETATM   17  C   UNL     1      42.507 -11.522  -3.258  1.00  0.00     0.001 A 
ENDBRANCH   5   6
ENDBRANCH   2   5
BRANCH   1  18
HETATM   18  C   UNL     1      42.569 -16.915   3.271  1.00  0.00     0.062 A 
HETATM   19  C   UNL     1      43.478 -17.795   2.646  1.00  0.00     0.061 A 
HETATM   20  C   UNL     1      44.076 -18.845   3.349  1.00  0.00     0.033 A 
HETATM   21 CL   UNL     1      43.931 -17.589   0.985  1.00  0.00    -0.082 Cl
HETATM   22  C   UNL     1      43.755 -19.063   4.688  1.00  0.00    -0.060 A 
HETATM   23  C   UNL     1      44.419 -20.161   5.465  1.00  0.00     0.048 C 
HETATM   24  C   UNL     1      42.832 -18.213   5.307  1.00  0.00     0.016 A 
HETATM   25  C   UNL     1      42.203 -17.159   4.608  1.00  0.00    -0.033 A 
HETATM   26  C   UNL     1      41.134 -16.399   5.345  1.00  0.00     0.050 C 
ENDBRANCH   1  18
TORSDOF 3
ENDMDL
MODEL 7
REMARK VINA RESULT:      -8.0      2.326      7.390
REMARK  3 active torsions:
REMARK  status: ('A' for Active; 'I' for Inactive)
REMARK    1  A    between atoms: C_6  and  N_7 
REMARK       I    between atoms: N_7  and  C_8 
REMARK    2  A    between atoms: C_8  and  C_9 
REMARK    3  A    between atoms: C_9  and  C_10 
ROOT
HETATM    1  N   UNL     1      40.411 -15.615   2.718  1.00  0.00    -0.325 N 
HETATM    2  C   UNL     1      41.440 -15.935   1.853  1.00  0.00     0.228 C 
HETATM    3  O   UNL     1      42.053 -15.147   1.139  1.00  0.00    -0.273 OA
HETATM    4  H   UNL     1      40.341 -16.237   3.528  1.00  0.00     0.169 HD
ENDROOT
BRANCH   2   5
HETATM    5  C   UNL     1      41.760 -17.416   1.811  1.00  0.00     0.165 C 
BRANCH   5   6
HETATM    6  C   UNL     1      42.733 -17.884   2.879  1.00  0.00     0.074 A 
HETATM    7  N   UNL     1      42.953 -17.046   3.850  1.00  0.00    -0.175 NA
HETATM    8  N   UNL     1      43.784 -17.416   4.857  1.00  0.00    -0.243 N 
HETATM    9  C   UNL     1      44.397 -18.636   4.990  1.00  0.00     0.272 A 
HETATM   10  H   UNL     1      43.939 -16.738   5.598  1.00  0.00     0.192 HD
HETATM   11  O   UNL     1      45.106 -18.911   5.951  1.00  0.00    -0.266 OA
HETATM   12  C   UNL     1      44.158 -19.601   3.905  1.00  0.00     0.046 A 
HETATM   13  C   UNL     1      43.349 -19.237   2.827  1.00  0.00     0.006 A 
HETATM   14  C   UNL     1      44.752 -20.869   3.965  1.00  0.00     0.018 A 
HETATM   15  C   UNL     1      43.157 -20.153   1.786  1.00  0.00     0.014 A 
HETATM   16  C   UNL     1      43.750 -21.421   1.845  1.00  0.00     0.001 A 
HETATM   17  C   UNL     1      44.541 -21.780   2.934  1.00  0.00     0.001 A 
ENDBRANCH   5   6
ENDBRANCH   2   5
BRANCH   1  18
HETATM   18  C   UNL     1      39.837 -14.332   2.904  1.00  0.00     0.062 A 
HETATM   19  C   UNL     1      40.049 -13.697   4.146  1.00  0.00     0.061 A 
HETATM   20  C   UNL     1      39.527 -12.430   4.416  1.00  0.00     0.033 A 
HETATM   21 CL   UNL     1      41.007 -14.445   5.385  1.00  0.00    -0.082 Cl
HETATM   22  C   UNL     1      38.750 -11.775   3.461  1.00  0.00    -0.060 A 
HETATM   23  C   UNL     1      38.217 -10.398   3.721  1.00  0.00     0.048 C 
HETATM   24  C   UNL     1      38.510 -12.411   2.237  1.00  0.00     0.016 A 
HETATM   25  C   UNL     1      39.013 -13.700   1.954  1.00  0.00    -0.033 A 
HETATM   26  C   UNL     1      38.578 -14.329   0.659  1.00  0.00     0.050 C 
ENDBRANCH   1  18
TORSDOF 3
ENDMDL
MODEL 8
REMARK VINA RESULT:      -7.9      2.760      3.620
REMARK  3 active torsions:
REMARK  status: ('A' for Active; 'I' for Inactive)
REMARK    1  A    between atoms: C_6  and  N_7 
REMARK       I    between atoms: N_7  and  C_8 
REMARK    2  A    between atoms: C_8  and  C_9 
REMARK    3  A    between atoms: C_9  and  C_10 
ROOT
HETATM    1  N   UNL     1      41.858 -16.162   2.678  1.00  0.00    -0.325 N 
HETATM    2  C   UNL     1      40.585 -16.207   2.144  1.00  0.00     0.228 C 
HETATM    3  O   UNL     1      39.861 -17.197   2.086  1.00  0.00    -0.273 OA
HETATM    4  H   UNL     1      42.115 -15.250   3.065  1.00  0.00     0.169 HD
ENDROOT
BRANCH   2   5
HETATM    5  C   UNL     1      40.121 -14.883   1.568  1.00  0.00     0.165 C 
BRANCH   5   6
HETATM    6  C   UNL     1      40.348 -14.727   0.075  1.00  0.00     0.074 A 
HETATM    7  N   UNL     1      41.354 -15.391  -0.417  1.00  0.00    -0.175 NA
HETATM    8  N   UNL     1      41.592 -15.325  -1.750  1.00  0.00    -0.243 N 
HETATM    9  C   UNL     1      40.830 -14.652  -2.673  1.00  0.00     0.272 A 
HETATM   10  H   UNL     1      42.387 -15.849  -2.103  1.00  0.00     0.192 HD
HETATM   11  O   UNL     1      41.088 -14.671  -3.871  1.00  0.00    -0.266 OA
HETATM   12  C   UNL     1      39.685 -13.898  -2.140  1.00  0.00     0.046 A 
HETATM   13  C   UNL     1      39.439 -13.901  -0.765  1.00  0.00     0.006 A 
HETATM   14  C   UNL     1      38.860 -13.182  -3.018  1.00  0.00     0.018 A 
HETATM   15  C   UNL     1      38.365 -13.154  -0.268  1.00  0.00     0.014 A 
HETATM   16  C   UNL     1      37.540 -12.438  -1.145  1.00  0.00     0.001 A 
HETATM   17  C   UNL     1      37.784 -12.455  -2.517  1.00  0.00     0.001 A 
ENDBRANCH   5   6
ENDBRANCH   2   5
BRANCH   1  18
HETATM   18  C   UNL     1      42.587 -17.258   3.206  1.00  0.00     0.062 A 
HETATM   19  C   UNL     1      42.439 -17.534   4.582  1.00  0.00     0.061 A 
HETATM   20  C   UNL     1      43.113 -18.598   5.189  1.00  0.00     0.033 A 
HETATM   21 CL   UNL     1      41.379 -16.590   5.580  1.00  0.00    -0.082 Cl
HETATM   22  C   UNL     1      43.979 -19.395   4.441  1.00  0.00    -0.060 A 
HETATM   23  C   UNL     1      44.677 -20.564   5.069  1.00  0.00     0.048 C 
HETATM   24  C   UNL     1      44.153 -19.109   3.082  1.00  0.00     0.016 A 
HETATM   25  C   UNL     1      43.496 -18.027   2.457  1.00  0.00    -0.033 A 
HETATM   26  C   UNL     1      43.866 -17.743   1.026  1.00  0.00     0.050 C 
ENDBRANCH   1  18
TORSDOF 3
ENDMDL
MODEL 9
REMARK VINA RESULT:      -7.8      1.903      2.367
REMARK  3 active torsions:
REMARK  status: ('A' for Active; 'I' for Inactive)
REMARK    1  A    between atoms: C_6  and  N_7 
REMARK       I    between atoms: N_7  and  C_8 
REMARK    2  A    between atoms: C_8  and  C_9 
REMARK    3  A    between atoms: C_9  and  C_10 
ROOT
HETATM    1  N   UNL     1      42.487 -17.038   4.189  1.00  0.00    -0.325 N 
HETATM    2  C   UNL     1      42.877 -15.744   3.903  1.00  0.00     0.228 C 
HETATM    3  O   UNL     1      43.678 -15.407   3.035  1.00  0.00    -0.273 OA
HETATM    4  H   UNL     1      41.538 -17.113   4.565  1.00  0.00     0.169 HD
ENDROOT
BRANCH   2   5
HETATM    5  C   UNL     1      42.241 -14.705   4.805  1.00  0.00     0.165 C 
BRANCH   5   6
HETATM    6  C   UNL     1      41.605 -13.535   4.075  1.00  0.00     0.074 A 
HETATM    7  N   UNL     1      42.123 -12.366   4.320  1.00  0.00    -0.175 NA
HETATM    8  N   UNL     1      41.627 -11.282   3.674  1.00  0.00    -0.243 N 
HETATM    9  C   UNL     1      40.639 -11.294   2.721  1.00  0.00     0.272 A 
HETATM   10  H   UNL     1      42.048 -10.383   3.890  1.00  0.00     0.192 HD
HETATM   11  O   UNL     1      40.268 -10.274   2.151  1.00  0.00    -0.266 OA
HETATM   12  C   UNL     1      40.042 -12.606   2.425  1.00  0.00     0.046 A 
HETATM   13  C   UNL     1      40.493 -13.737   3.108  1.00  0.00     0.006 A 
HETATM   14  C   UNL     1      39.024 -12.701   1.466  1.00  0.00     0.018 A 
HETATM   15  C   UNL     1      39.894 -14.973   2.840  1.00  0.00     0.014 A 
HETATM   16  C   UNL     1      38.877 -15.069   1.881  1.00  0.00     0.001 A 
HETATM   17  C   UNL     1      38.446 -13.938   1.193  1.00  0.00     0.001 A 
ENDBRANCH   5   6
ENDBRANCH   2   5
BRANCH   1  18
HETATM   18  C   UNL     1      42.977 -18.219   3.575  1.00  0.00     0.062 A 
HETATM   19  C   UNL     1      43.991 -18.930   4.251  1.00  0.00     0.061 A 
HETATM   20  C   UNL     1      44.529 -20.108   3.725  1.00  0.00     0.033 A 
HETATM   21 CL   UNL     1      44.590 -18.398   5.789  1.00  0.00    -0.082 Cl
HETATM   22  C   UNL     1      44.089 -20.589   2.493  1.00  0.00    -0.060 A 
HETATM   23  C   UNL     1      44.629 -21.872   1.935  1.00  0.00     0.048 C 
HETATM   24  C   UNL     1      43.104 -19.874   1.803  1.00  0.00     0.016 A 
HETATM   25  C   UNL     1      42.563 -18.672   2.309  1.00  0.00    -0.033 A 
HETATM   26  C   UNL     1      41.608 -17.928   1.415  1.00  0.00     0.050 C 
ENDBRANCH   1  18
TORSDOF 3
ENDMDL
MODEL 10
REMARK VINA RESULT:      -7.8      2.492      3.367
REMARK  3 active torsions:
REMARK  status: ('A' for Active; 'I' for Inactive)
REMARK    1  A    between atoms: C_6  and  N_7 
REMARK       I    between atoms: N_7  and  C_8 
REMARK    2  A    between atoms: C_8  and  C_9 
REMARK    3  A    between atoms: C_9  and  C_10 
ROOT
HETATM    1  N   UNL     1      41.903 -16.162   2.672  1.00  0.00    -0.325 N 
HETATM    2  C   UNL     1      42.365 -14.863   2.572  1.00  0.00     0.228 C 
HETATM    3  O   UNL     1      43.487 -14.471   2.878  1.00  0.00    -0.273 OA
HETATM    4  H   UNL     1      41.186 -16.402   1.982  1.00  0.00     0.169 HD
ENDROOT
BRANCH   2   5
HETATM    5  C   UNL     1      41.325 -13.887   2.059  1.00  0.00     0.165 C 
BRANCH   5   6
HETATM    6  C   UNL     1      41.707 -13.166   0.779  1.00  0.00     0.074 A 
HETATM    7  N   UNL     1      42.223 -11.980   0.930  1.00  0.00    -0.175 NA
HETATM    8  N   UNL     1      42.621 -11.295  -0.171  1.00  0.00    -0.243 N 
HETATM    9  C   UNL     1      42.584 -11.754  -1.464  1.00  0.00     0.272 A 
HETATM   10  H   UNL     1      43.015 -10.370  -0.021  1.00  0.00     0.192 HD
HETATM   11  O   UNL     1      42.999 -11.089  -2.406  1.00  0.00    -0.266 OA
HETATM   12  C   UNL     1      42.008 -13.094  -1.658  1.00  0.00     0.046 A 
HETATM   13  C   UNL     1      41.541 -13.808  -0.552  1.00  0.00     0.006 A 
HETATM   14  C   UNL     1      41.931 -13.633  -2.949  1.00  0.00     0.018 A 
HETATM   15  C   UNL     1      40.967 -15.069  -0.754  1.00  0.00     0.014 A 
HETATM   16  C   UNL     1      40.889 -15.608  -2.045  1.00  0.00     0.001 A 
HETATM   17  C   UNL     1      41.374 -14.894  -3.139  1.00  0.00     0.001 A 
ENDBRANCH   5   6
ENDBRANCH   2   5
BRANCH   1  18
HETATM   18  C   UNL     1      42.616 -17.269   3.197  1.00  0.00     0.062 A 
HETATM   19  C   UNL     1      42.480 -17.536   4.576  1.00  0.00     0.061 A 
HETATM   20  C   UNL     1      43.140 -18.610   5.179  1.00  0.00     0.033 A 
HETATM   21 CL   UNL     1      41.452 -16.566   5.581  1.00  0.00    -0.082 Cl
HETATM   22  C   UNL     1      43.980 -19.428   4.425  1.00  0.00    -0.060 A 
HETATM   23  C   UNL     1      44.663 -20.607   5.050  1.00  0.00     0.048 C 
HETATM   24  C   UNL     1      44.143 -19.153   3.062  1.00  0.00     0.016 A 
HETATM   25  C   UNL     1      43.500 -18.060   2.440  1.00  0.00    -0.033 A 
HETATM   26  C   UNL     1      43.858 -17.791   1.004  1.00  0.00     0.050 C 
ENDBRANCH   1  18
TORSDOF 3
ENDMDL
