MODEL 1
REMARK VINA RESULT:      -7.9      0.000      0.000
REMARK  4 active torsions:
REMARK  status: ('A' for Active; 'I' for Inactive)
REMARK    1  A    between atoms: C_9  and  C_10 
REMARK    2  A    between atoms: C_17  and  C_18 
REMARK       I    between atoms: C_18  and  N_19 
REMARK    3  A    between atoms: N_19  and  C_20 
REMARK    4  A    between atoms: C_23  and  O_24 
ROOT
HETATM    1  C   UNL     1      40.971 -15.865  -2.309  1.00  0.00     0.070 C 
HETATM    2  C   UNL     1      41.298 -14.622  -1.517  1.00  0.00     0.037 C 
HETATM    3  N   UNL     1      41.445 -13.460  -2.270  1.00  0.00    -0.192 N 
HETATM    4  C   UNL     1      41.971 -12.322  -1.777  1.00  0.00     0.725 A 
HETATM    5  N   UNL     1      42.226 -12.227  -0.436  1.00  0.00    -0.084 N 
HETATM    6  N   UNL     1      42.847 -11.066  -0.136  1.00  0.00    -0.149 NA
HETATM    7  C   UNL     1      42.878 -10.486  -1.341  1.00  0.00     0.275 A 
HETATM    8  N   UNL     1      42.352 -11.221  -2.373  1.00  0.00    -0.054 NA
HETATM    9  C   UNL     1      41.993 -13.316   0.521  1.00  0.00     0.204 C 
HETATM   10  C   UNL     1      41.532 -14.592  -0.179  1.00  0.00     0.062 C 
HETATM   11  H   UNL     1      41.337 -13.534  -3.279  1.00  0.00     0.184 HD
ENDROOT
BRANCH  10  12
HETATM   12  C   UNL     1      41.575 -15.800   0.688  1.00  0.00     0.256 C 
HETATM   13  N   UNL     1      42.842 -16.275   0.946  1.00  0.00    -0.323 N 
HETATM   14  H   UNL     1      43.611 -15.829   0.460  1.00  0.00     0.169 HD
HETATM   15  O   UNL     1      40.513 -16.279   1.066  1.00  0.00    -0.267 OA
BRANCH  13  16
HETATM   16  C   UNL     1      43.194 -17.281   1.874  1.00  0.00     0.035 A 
HETATM   17  C   UNL     1      43.213 -17.093   3.255  1.00  0.00     0.032 A 
HETATM   18  C   UNL     1      43.618 -18.126   4.108  1.00  0.00     0.039 A 
HETATM   19  C   UNL     1      44.010 -19.363   3.598  1.00  0.00     0.068 A 
HETATM   20  C   UNL     1      43.994 -19.561   2.219  1.00  0.00     0.039 A 
HETATM   21  C   UNL     1      43.585 -18.526   1.364  1.00  0.00     0.032 A 
BRANCH  19  22
HETATM   22  O   UNL     1      44.387 -20.276   4.542  1.00  0.00    -0.356 OA
HETATM   23  C   UNL     1      44.346 -19.855   5.899  1.00  0.00     0.210 C 
ENDBRANCH  19  22
ENDBRANCH  13  16
ENDBRANCH  10  12
BRANCH   9  24
HETATM   24  C   UNL     1      41.090 -12.856   1.665  1.00  0.00    -0.006 A 
HETATM   25  C   UNL     1      41.437 -12.893   3.027  1.00  0.00     0.042 A 
HETATM   26 CL   UNL     1      42.995 -13.383   3.589  1.00  0.00    -0.084 Cl
HETATM   27  C   UNL     1      40.517 -12.505   4.011  1.00  0.00     0.024 A 
HETATM   28  C   UNL     1      39.247 -12.057   3.657  1.00  0.00     0.002 A 
HETATM   29  C   UNL     1      38.894 -11.987   2.315  1.00  0.00     0.001 A 
HETATM   30  C   UNL     1      39.804 -12.381   1.331  1.00  0.00     0.011 A 
ENDBRANCH   9  24
TORSDOF 4
ENDMDL
MODEL 2
REMARK VINA RESULT:      -7.8      3.457      5.111
REMARK  4 active torsions:
REMARK  status: ('A' for Active; 'I' for Inactive)
REMARK    1  A    between atoms: C_9  and  C_10 
REMARK    2  A    between atoms: C_17  and  C_18 
REMARK       I    between atoms: C_18  and  N_19 
REMARK    3  A    between atoms: N_19  and  C_20 
REMARK    4  A    between atoms: C_23  and  O_24 
ROOT
HETATM    1  C   UNL     1      44.239 -15.094   6.796  1.00  0.00     0.070 C 
HETATM    2  C   UNL     1      43.023 -14.467   6.159  1.00  0.00     0.037 C 
HETATM    3  N   UNL     1      42.789 -13.139   6.507  1.00  0.00    -0.192 N 
HETATM    4  C   UNL     1      41.636 -12.496   6.239  1.00  0.00     0.725 A 
HETATM    5  N   UNL     1      40.701 -13.102   5.443  1.00  0.00    -0.084 N 
HETATM    6  N   UNL     1      39.571 -12.366   5.369  1.00  0.00    -0.149 NA
HETATM    7  C   UNL     1      39.924 -11.301   6.097  1.00  0.00     0.275 A 
HETATM    8  N   UNL     1      41.180 -11.340   6.647  1.00  0.00    -0.054 NA
HETATM    9  C   UNL     1      40.855 -14.447   4.878  1.00  0.00     0.204 C 
HETATM   10  C   UNL     1      42.133 -15.122   5.368  1.00  0.00     0.062 C 
HETATM   11  H   UNL     1      43.434 -12.701   7.161  1.00  0.00     0.184 HD
ENDROOT
BRANCH  10  12
HETATM   12  C   UNL     1      42.190 -16.580   5.078  1.00  0.00     0.256 C 
HETATM   13  N   UNL     1      43.092 -16.934   4.098  1.00  0.00    -0.323 N 
HETATM   14  H   UNL     1      43.559 -16.183   3.606  1.00  0.00     0.169 HD
HETATM   15  O   UNL     1      41.434 -17.322   5.692  1.00  0.00    -0.267 OA
BRANCH  13  16
HETATM   16  C   UNL     1      43.487 -18.245   3.749  1.00  0.00     0.035 A 
HETATM   17  C   UNL     1      44.337 -19.033   4.523  1.00  0.00     0.032 A 
HETATM   18  C   UNL     1      44.721 -20.307   4.086  1.00  0.00     0.039 A 
HETATM   19  C   UNL     1      44.262 -20.815   2.872  1.00  0.00     0.068 A 
HETATM   20  C   UNL     1      43.412 -20.035   2.092  1.00  0.00     0.039 A 
HETATM   21  C   UNL     1      43.025 -18.759   2.530  1.00  0.00     0.032 A 
BRANCH  19  22
HETATM   22  O   UNL     1      44.721 -22.065   2.568  1.00  0.00    -0.356 OA
HETATM   23  C   UNL     1      44.721 -23.026   3.615  1.00  0.00     0.210 C 
ENDBRANCH  19  22
ENDBRANCH  13  16
ENDBRANCH  10  12
BRANCH   9  24
HETATM   24  C   UNL     1      40.691 -14.425   3.358  1.00  0.00    -0.006 A 
HETATM   25  C   UNL     1      41.656 -13.950   2.453  1.00  0.00     0.042 A 
HETATM   26 CL   UNL     1      43.221 -13.408   2.943  1.00  0.00    -0.084 Cl
HETATM   27  C   UNL     1      41.391 -13.914   1.077  1.00  0.00     0.024 A 
HETATM   28  C   UNL     1      40.172 -14.367   0.578  1.00  0.00     0.002 A 
HETATM   29  C   UNL     1      39.215 -14.866   1.453  1.00  0.00     0.001 A 
HETATM   30  C   UNL     1      39.471 -14.895   2.826  1.00  0.00     0.011 A 
ENDBRANCH   9  24
TORSDOF 4
ENDMDL
MODEL 3
REMARK VINA RESULT:      -7.8      3.159      4.955
REMARK  4 active torsions:
REMARK  status: ('A' for Active; 'I' for Inactive)
REMARK    1  A    between atoms: C_9  and  C_10 
REMARK    2  A    between atoms: C_17  and  C_18 
REMARK       I    between atoms: C_18  and  N_19 
REMARK    3  A    between atoms: N_19  and  C_20 
REMARK    4  A    between atoms: C_23  and  O_24 
ROOT
HETATM    1  C   UNL     1      43.711 -14.954   6.671  1.00  0.00     0.070 C 
HETATM    2  C   UNL     1      42.688 -14.195   5.863  1.00  0.00     0.037 C 
HETATM    3  N   UNL     1      42.453 -12.888   6.282  1.00  0.00    -0.192 N 
HETATM    4  C   UNL     1      41.414 -12.148   5.847  1.00  0.00     0.725 A 
HETATM    5  N   UNL     1      40.636 -12.620   4.824  1.00  0.00    -0.084 N 
HETATM    6  N   UNL     1      39.584 -11.805   4.592  1.00  0.00    -0.149 NA
HETATM    7  C   UNL     1      39.830 -10.831   5.476  1.00  0.00     0.275 A 
HETATM    8  N   UNL     1      40.940 -11.002   6.263  1.00  0.00    -0.054 NA
HETATM    9  C   UNL     1      40.838 -13.921   4.175  1.00  0.00     0.204 C 
HETATM   10  C   UNL     1      41.951 -14.719   4.849  1.00  0.00     0.062 C 
HETATM   11  H   UNL     1      42.968 -12.550   7.092  1.00  0.00     0.184 HD
ENDROOT
BRANCH  10  12
HETATM   12  C   UNL     1      41.995 -16.149   4.438  1.00  0.00     0.256 C 
HETATM   13  N   UNL     1      43.117 -16.504   3.723  1.00  0.00    -0.323 N 
HETATM   14  H   UNL     1      43.755 -15.762   3.464  1.00  0.00     0.169 HD
HETATM   15  O   UNL     1      41.046 -16.865   4.733  1.00  0.00    -0.267 OA
BRANCH  13  16
HETATM   16  C   UNL     1      43.511 -17.815   3.367  1.00  0.00     0.035 A 
HETATM   17  C   UNL     1      43.271 -18.387   2.119  1.00  0.00     0.032 A 
HETATM   18  C   UNL     1      43.651 -19.709   1.858  1.00  0.00     0.039 A 
HETATM   19  C   UNL     1      44.277 -20.480   2.836  1.00  0.00     0.068 A 
HETATM   20  C   UNL     1      44.521 -19.916   4.086  1.00  0.00     0.039 A 
HETATM   21  C   UNL     1      44.143 -18.591   4.348  1.00  0.00     0.032 A 
BRANCH  19  22
HETATM   22  O   UNL     1      44.585 -21.753   2.448  1.00  0.00    -0.356 OA
HETATM   23  C   UNL     1      44.663 -22.739   3.469  1.00  0.00     0.210 C 
ENDBRANCH  19  22
ENDBRANCH  13  16
ENDBRANCH  10  12
BRANCH   9  24
HETATM   24  C   UNL     1      40.995 -13.761   2.663  1.00  0.00    -0.006 A 
HETATM   25  C   UNL     1      40.307 -14.519   1.700  1.00  0.00     0.042 A 
HETATM   26 CL   UNL     1      39.101 -15.687   2.105  1.00  0.00    -0.084 Cl
HETATM   27  C   UNL     1      40.562 -14.341   0.333  1.00  0.00     0.024 A 
HETATM   28  C   UNL     1      41.489 -13.394  -0.097  1.00  0.00     0.002 A 
HETATM   29  C   UNL     1      42.160 -12.616   0.838  1.00  0.00     0.001 A 
HETATM   30  C   UNL     1      41.916 -12.796   2.201  1.00  0.00     0.011 A 
ENDBRANCH   9  24
TORSDOF 4
ENDMDL
MODEL 4
REMARK VINA RESULT:      -7.5      3.059      7.073
REMARK  4 active torsions:
REMARK  status: ('A' for Active; 'I' for Inactive)
REMARK    1  A    between atoms: C_9  and  C_10 
REMARK    2  A    between atoms: C_17  and  C_18 
REMARK       I    between atoms: C_18  and  N_19 
REMARK    3  A    between atoms: N_19  and  C_20 
REMARK    4  A    between atoms: C_23  and  O_24 
ROOT
HETATM    1  C   UNL     1      39.377 -13.957   4.718  1.00  0.00     0.070 C 
HETATM    2  C   UNL     1      40.815 -14.397   4.844  1.00  0.00     0.037 C 
HETATM    3  N   UNL     1      41.487 -13.915   5.965  1.00  0.00    -0.192 N 
HETATM    4  C   UNL     1      42.823 -13.996   6.117  1.00  0.00     0.725 A 
HETATM    5  N   UNL     1      43.557 -14.728   5.223  1.00  0.00    -0.084 N 
HETATM    6  N   UNL     1      44.880 -14.611   5.463  1.00  0.00    -0.149 NA
HETATM    7  C   UNL     1      44.864 -13.841   6.557  1.00  0.00     0.275 A 
HETATM    8  N   UNL     1      43.625 -13.443   6.990  1.00  0.00    -0.054 NA
HETATM    9  C   UNL     1      42.981 -15.418   4.062  1.00  0.00     0.204 C 
HETATM   10  C   UNL     1      41.487 -15.134   3.922  1.00  0.00     0.062 C 
HETATM   11  H   UNL     1      40.975 -13.304   6.597  1.00  0.00     0.184 HD
ENDROOT
BRANCH  10  12
HETATM   12  C   UNL     1      40.919 -15.549   2.611  1.00  0.00     0.256 C 
HETATM   13  N   UNL     1      41.032 -14.606   1.614  1.00  0.00    -0.323 N 
HETATM   14  H   UNL     1      41.398 -13.699   1.874  1.00  0.00     0.169 HD
HETATM   15  O   UNL     1      40.386 -16.649   2.534  1.00  0.00    -0.267 OA
BRANCH  13  16
HETATM   16  C   UNL     1      40.752 -14.792   0.241  1.00  0.00     0.035 A 
HETATM   17  C   UNL     1      41.398 -15.729  -0.565  1.00  0.00     0.032 A 
HETATM   18  C   UNL     1      41.098 -15.821  -1.929  1.00  0.00     0.039 A 
HETATM   19  C   UNL     1      40.149 -14.983  -2.512  1.00  0.00     0.068 A 
HETATM   20  C   UNL     1      39.498 -14.043  -1.714  1.00  0.00     0.039 A 
HETATM   21  C   UNL     1      39.797 -13.952  -0.347  1.00  0.00     0.032 A 
BRANCH  19  22
HETATM   22  O   UNL     1      39.962 -15.177  -3.851  1.00  0.00    -0.356 OA
HETATM   23  C   UNL     1      38.952 -16.100  -4.234  1.00  0.00     0.210 C 
ENDBRANCH  19  22
ENDBRANCH  13  16
ENDBRANCH  10  12
BRANCH   9  24
HETATM   24  C   UNL     1      43.348 -16.902   4.069  1.00  0.00    -0.006 A 
HETATM   25  C   UNL     1      43.823 -17.617   2.956  1.00  0.00     0.042 A 
HETATM   26 CL   UNL     1      44.151 -16.876   1.431  1.00  0.00    -0.084 Cl
HETATM   27  C   UNL     1      44.078 -18.992   3.044  1.00  0.00     0.024 A 
HETATM   28  C   UNL     1      43.882 -19.674   4.243  1.00  0.00     0.002 A 
HETATM   29  C   UNL     1      43.438 -18.980   5.363  1.00  0.00     0.001 A 
HETATM   30  C   UNL     1      43.175 -17.611   5.277  1.00  0.00     0.011 A 
ENDBRANCH   9  24
TORSDOF 4
ENDMDL
MODEL 5
REMARK VINA RESULT:      -7.4      2.638      4.265
REMARK  4 active torsions:
REMARK  status: ('A' for Active; 'I' for Inactive)
REMARK    1  A    between atoms: C_9  and  C_10 
REMARK    2  A    between atoms: C_17  and  C_18 
REMARK       I    between atoms: C_18  and  N_19 
REMARK    3  A    between atoms: N_19  and  C_20 
REMARK    4  A    between atoms: C_23  and  O_24 
ROOT
HETATM    1  C   UNL     1      43.409 -13.712   5.150  1.00  0.00     0.070 C 
HETATM    2  C   UNL     1      42.319 -13.181   4.252  1.00  0.00     0.037 C 
HETATM    3  N   UNL     1      42.067 -11.816   4.367  1.00  0.00    -0.192 N 
HETATM    4  C   UNL     1      40.983 -11.217   3.837  1.00  0.00     0.725 A 
HETATM    5  N   UNL     1      40.165 -11.929   3.003  1.00  0.00    -0.084 N 
HETATM    6  N   UNL     1      39.077 -11.209   2.653  1.00  0.00    -0.149 NA
HETATM    7  C   UNL     1      39.342 -10.050   3.267  1.00  0.00     0.275 A 
HETATM    8  N   UNL     1      40.499 -10.013   4.002  1.00  0.00    -0.054 NA
HETATM    9  C   UNL     1      40.369 -13.343   2.665  1.00  0.00     0.204 C 
HETATM   10  C   UNL     1      41.543 -13.941   3.436  1.00  0.00     0.062 C 
HETATM   11  H   UNL     1      42.617 -11.289   5.042  1.00  0.00     0.184 HD
ENDROOT
BRANCH  10  12
HETATM   12  C   UNL     1      41.607 -15.427   3.369  1.00  0.00     0.256 C 
HETATM   13  N   UNL     1      42.826 -15.929   2.967  1.00  0.00    -0.323 N 
HETATM   14  H   UNL     1      43.526 -15.261   2.669  1.00  0.00     0.169 HD
HETATM   15  O   UNL     1      40.596 -16.062   3.638  1.00  0.00    -0.267 OA
BRANCH  13  16
HETATM   16  C   UNL     1      43.229 -17.283   2.989  1.00  0.00     0.035 A 
HETATM   17  C   UNL     1      43.805 -17.905   4.096  1.00  0.00     0.032 A 
HETATM   18  C   UNL     1      44.222 -19.239   4.025  1.00  0.00     0.039 A 
HETATM   19  C   UNL     1      44.069 -19.976   2.852  1.00  0.00     0.068 A 
HETATM   20  C   UNL     1      43.494 -19.363   1.740  1.00  0.00     0.039 A 
HETATM   21  C   UNL     1      43.075 -18.026   1.811  1.00  0.00     0.032 A 
BRANCH  19  22
HETATM   22  O   UNL     1      44.526 -21.261   2.921  1.00  0.00    -0.356 OA
HETATM   23  C   UNL     1      44.346 -22.073   1.769  1.00  0.00     0.210 C 
ENDBRANCH  19  22
ENDBRANCH  13  16
ENDBRANCH  10  12
BRANCH   9  24
HETATM   24  C   UNL     1      40.436 -13.540   1.151  1.00  0.00    -0.006 A 
HETATM   25  C   UNL     1      39.384 -14.030   0.358  1.00  0.00     0.042 A 
HETATM   26 CL   UNL     1      37.817 -14.390   0.989  1.00  0.00    -0.084 Cl
HETATM   27  C   UNL     1      39.559 -14.233  -1.018  1.00  0.00     0.024 A 
HETATM   28  C   UNL     1      40.775 -13.935  -1.629  1.00  0.00     0.002 A 
HETATM   29  C   UNL     1      41.819 -13.424  -0.868  1.00  0.00     0.001 A 
HETATM   30  C   UNL     1      41.651 -13.228   0.504  1.00  0.00     0.011 A 
ENDBRANCH   9  24
TORSDOF 4
ENDMDL
MODEL 6
REMARK VINA RESULT:      -7.3      2.258      4.170
REMARK  4 active torsions:
REMARK  status: ('A' for Active; 'I' for Inactive)
REMARK    1  A    between atoms: C_9  and  C_10 
REMARK    2  A    between atoms: C_17  and  C_18 
REMARK       I    between atoms: C_18  and  N_19 
REMARK    3  A    between atoms: N_19  and  C_20 
REMARK    4  A    between atoms: C_23  and  O_24 
ROOT
HETATM    1  C   UNL     1      40.346 -14.252   4.804  1.00  0.00     0.070 C 
HETATM    2  C   UNL     1      39.890 -13.763   3.451  1.00  0.00     0.037 C 
HETATM    3  N   UNL     1      39.216 -12.544   3.457  1.00  0.00    -0.192 N 
HETATM    4  C   UNL     1      38.529 -12.074   2.398  1.00  0.00     0.725 A 
HETATM    5  N   UNL     1      38.620 -12.725   1.197  1.00  0.00    -0.084 N 
HETATM    6  N   UNL     1      37.788 -12.184   0.282  1.00  0.00    -0.149 NA
HETATM    7  C   UNL     1      37.273 -11.171   0.988  1.00  0.00     0.275 A 
HETATM    8  N   UNL     1      37.701 -11.068   2.287  1.00  0.00    -0.054 NA
HETATM    9  C   UNL     1      39.404 -13.948   0.987  1.00  0.00     0.204 C 
HETATM   10  C   UNL     1      40.017 -14.455   2.289  1.00  0.00     0.062 C 
HETATM   11  H   UNL     1      39.072 -12.087   4.355  1.00  0.00     0.184 HD
ENDROOT
BRANCH  10  12
HETATM   12  C   UNL     1      40.560 -15.838   2.198  1.00  0.00     0.256 C 
HETATM   13  N   UNL     1      41.927 -15.927   2.341  1.00  0.00    -0.323 N 
HETATM   14  H   UNL     1      42.444 -15.059   2.402  1.00  0.00     0.169 HD
HETATM   15  O   UNL     1      39.776 -16.753   1.978  1.00  0.00    -0.267 OA
BRANCH  13  16
HETATM   16  C   UNL     1      42.685 -17.112   2.481  1.00  0.00     0.035 A 
HETATM   17  C   UNL     1      43.086 -17.910   1.410  1.00  0.00     0.032 A 
HETATM   18  C   UNL     1      43.796 -19.095   1.634  1.00  0.00     0.039 A 
HETATM   19  C   UNL     1      44.119 -19.503   2.927  1.00  0.00     0.068 A 
HETATM   20  C   UNL     1      43.723 -18.712   4.003  1.00  0.00     0.039 A 
HETATM   21  C   UNL     1      43.013 -17.523   3.780  1.00  0.00     0.032 A 
BRANCH  19  22
HETATM   22  O   UNL     1      44.806 -20.682   2.999  1.00  0.00    -0.356 OA
HETATM   23  C   UNL     1      44.343 -21.750   2.183  1.00  0.00     0.210 C 
ENDBRANCH  19  22
ENDBRANCH  13  16
ENDBRANCH  10  12
BRANCH   9  24
HETATM   24  C   UNL     1      40.402 -13.769  -0.158  1.00  0.00    -0.006 A 
HETATM   25  C   UNL     1      41.475 -12.861  -0.154  1.00  0.00     0.042 A 
HETATM   26 CL   UNL     1      41.870 -11.877   1.209  1.00  0.00    -0.084 Cl
HETATM   27  C   UNL     1      42.303 -12.726  -1.277  1.00  0.00     0.024 A 
HETATM   28  C   UNL     1      42.089 -13.504  -2.412  1.00  0.00     0.002 A 
HETATM   29  C   UNL     1      41.051 -14.427  -2.427  1.00  0.00     0.001 A 
HETATM   30  C   UNL     1      40.218 -14.559  -1.313  1.00  0.00     0.011 A 
ENDBRANCH   9  24
TORSDOF 4
ENDMDL
MODEL 7
REMARK VINA RESULT:      -7.3      2.438      4.439
REMARK  4 active torsions:
REMARK  status: ('A' for Active; 'I' for Inactive)
REMARK    1  A    between atoms: C_9  and  C_10 
REMARK    2  A    between atoms: C_17  and  C_18 
REMARK       I    between atoms: C_18  and  N_19 
REMARK    3  A    between atoms: N_19  and  C_20 
REMARK    4  A    between atoms: C_23  and  O_24 
ROOT
HETATM    1  C   UNL     1      41.692 -12.196   5.278  1.00  0.00     0.070 C 
HETATM    2  C   UNL     1      41.022 -12.168   3.926  1.00  0.00     0.037 C 
HETATM    3  N   UNL     1      39.919 -11.323   3.828  1.00  0.00    -0.192 N 
HETATM    4  C   UNL     1      39.058 -11.349   2.792  1.00  0.00     0.725 A 
HETATM    5  N   UNL     1      39.349 -12.116   1.697  1.00  0.00    -0.084 N 
HETATM    6  N   UNL     1      38.333 -12.109   0.808  1.00  0.00    -0.149 NA
HETATM    7  C   UNL     1      37.487 -11.265   1.411  1.00  0.00     0.275 A 
HETATM    8  N   UNL     1      37.893 -10.777   2.627  1.00  0.00    -0.054 NA
HETATM    9  C   UNL     1      40.546 -12.959   1.583  1.00  0.00     0.204 C 
HETATM   10  C   UNL     1      41.365 -12.952   2.871  1.00  0.00     0.062 C 
HETATM   11  H   UNL     1      39.644 -10.805   4.659  1.00  0.00     0.184 HD
ENDROOT
BRANCH  10  12
HETATM   12  C   UNL     1      42.408 -14.011   2.923  1.00  0.00     0.256 C 
HETATM   13  N   UNL     1      41.917 -15.298   2.938  1.00  0.00    -0.323 N 
HETATM   14  H   UNL     1      40.913 -15.409   3.005  1.00  0.00     0.169 HD
HETATM   15  O   UNL     1      43.582 -13.665   2.979  1.00  0.00    -0.267 OA
BRANCH  13  16
HETATM   16  C   UNL     1      42.666 -16.489   2.802  1.00  0.00     0.035 A 
HETATM   17  C   UNL     1      43.324 -16.864   1.632  1.00  0.00     0.032 A 
HETATM   18  C   UNL     1      44.008 -18.083   1.560  1.00  0.00     0.039 A 
HETATM   19  C   UNL     1      44.047 -18.948   2.652  1.00  0.00     0.068 A 
HETATM   20  C   UNL     1      43.392 -18.582   3.827  1.00  0.00     0.039 A 
HETATM   21  C   UNL     1      42.708 -17.358   3.900  1.00  0.00     0.032 A 
BRANCH  19  22
HETATM   22  O   UNL     1      44.742 -20.105   2.440  1.00  0.00    -0.356 OA
HETATM   23  C   UNL     1      43.985 -21.259   2.100  1.00  0.00     0.210 C 
ENDBRANCH  19  22
ENDBRANCH  13  16
ENDBRANCH  10  12
BRANCH   9  24
HETATM   24  C   UNL     1      41.340 -12.616   0.322  1.00  0.00    -0.006 A 
HETATM   25  C   UNL     1      41.599 -13.510  -0.731  1.00  0.00     0.042 A 
HETATM   26 CL   UNL     1      40.963 -15.114  -0.784  1.00  0.00    -0.084 Cl
HETATM   27  C   UNL     1      42.390 -13.121  -1.822  1.00  0.00     0.024 A 
HETATM   28  C   UNL     1      42.916 -11.833  -1.892  1.00  0.00     0.002 A 
HETATM   29  C   UNL     1      42.649 -10.926  -0.874  1.00  0.00     0.001 A 
HETATM   30  C   UNL     1      41.870 -11.312   0.219  1.00  0.00     0.011 A 
ENDBRANCH   9  24
TORSDOF 4
ENDMDL
MODEL 8
REMARK VINA RESULT:      -7.2      3.318      7.545
REMARK  4 active torsions:
REMARK  status: ('A' for Active; 'I' for Inactive)
REMARK    1  A    between atoms: C_9  and  C_10 
REMARK    2  A    between atoms: C_17  and  C_18 
REMARK       I    between atoms: C_18  and  N_19 
REMARK    3  A    between atoms: N_19  and  C_20 
REMARK    4  A    between atoms: C_23  and  O_24 
ROOT
HETATM    1  C   UNL     1      39.645 -14.002   5.432  1.00  0.00     0.070 C 
HETATM    2  C   UNL     1      40.941 -14.765   5.313  1.00  0.00     0.037 C 
HETATM    3  N   UNL     1      41.445 -15.269   6.510  1.00  0.00    -0.192 N 
HETATM    4  C   UNL     1      42.694 -15.756   6.639  1.00  0.00     0.725 A 
HETATM    5  N   UNL     1      43.465 -15.928   5.522  1.00  0.00    -0.084 N 
HETATM    6  N   UNL     1      44.716 -16.321   5.845  1.00  0.00    -0.149 NA
HETATM    7  C   UNL     1      44.605 -16.422   7.175  1.00  0.00     0.275 A 
HETATM    8  N   UNL     1      43.384 -16.086   7.701  1.00  0.00    -0.054 NA
HETATM    9  C   UNL     1      43.030 -15.578   4.164  1.00  0.00     0.204 C 
HETATM   10  C   UNL     1      41.658 -14.908   4.168  1.00  0.00     0.062 C 
HETATM   11  H   UNL     1      40.920 -15.079   7.361  1.00  0.00     0.184 HD
ENDROOT
BRANCH  10  12
HETATM   12  C   UNL     1      41.303 -14.263   2.876  1.00  0.00     0.256 C 
HETATM   13  N   UNL     1      40.491 -15.022   2.061  1.00  0.00    -0.323 N 
HETATM   14  H   UNL     1      40.285 -15.966   2.363  1.00  0.00     0.169 HD
HETATM   15  O   UNL     1      41.772 -13.158   2.633  1.00  0.00    -0.267 OA
BRANCH  13  16
HETATM   16  C   UNL     1      39.853 -14.596   0.874  1.00  0.00     0.035 A 
HETATM   17  C   UNL     1      38.544 -14.118   0.822  1.00  0.00     0.032 A 
HETATM   18  C   UNL     1      37.966 -13.760  -0.401  1.00  0.00     0.039 A 
HETATM   19  C   UNL     1      38.682 -13.870  -1.591  1.00  0.00     0.068 A 
HETATM   20  C   UNL     1      39.991 -14.347  -1.550  1.00  0.00     0.039 A 
HETATM   21  C   UNL     1      40.572 -14.704  -0.324  1.00  0.00     0.032 A 
BRANCH  19  22
HETATM   22  O   UNL     1      37.993 -13.493  -2.709  1.00  0.00    -0.356 OA
HETATM   23  C   UNL     1      37.488 -14.532  -3.537  1.00  0.00     0.210 C 
ENDBRANCH  19  22
ENDBRANCH  13  16
ENDBRANCH  10  12
BRANCH   9  24
HETATM   24  C   UNL     1      43.148 -16.778   3.224  1.00  0.00    -0.006 A 
HETATM   25  C   UNL     1      42.620 -18.055   3.482  1.00  0.00     0.042 A 
HETATM   26 CL   UNL     1      41.668 -18.417   4.876  1.00  0.00    -0.084 Cl
HETATM   27  C   UNL     1      42.831 -19.112   2.585  1.00  0.00     0.024 A 
HETATM   28  C   UNL     1      43.554 -18.910   1.411  1.00  0.00     0.002 A 
HETATM   29  C   UNL     1      44.061 -17.649   1.124  1.00  0.00     0.001 A 
HETATM   30  C   UNL     1      43.860 -16.596   2.020  1.00  0.00     0.011 A 
ENDBRANCH   9  24
TORSDOF 4
ENDMDL
MODEL 9
REMARK VINA RESULT:      -6.9      2.323      4.242
REMARK  4 active torsions:
REMARK  status: ('A' for Active; 'I' for Inactive)
REMARK    1  A    between atoms: C_9  and  C_10 
REMARK    2  A    between atoms: C_17  and  C_18 
REMARK       I    between atoms: C_18  and  N_19 
REMARK    3  A    between atoms: N_19  and  C_20 
REMARK    4  A    between atoms: C_23  and  O_24 
ROOT
HETATM    1  C   UNL     1      41.484 -12.193   4.131  1.00  0.00     0.070 C 
HETATM    2  C   UNL     1      40.695 -12.552   2.895  1.00  0.00     0.037 C 
HETATM    3  N   UNL     1      39.562 -11.776   2.670  1.00  0.00    -0.192 N 
HETATM    4  C   UNL     1      38.611 -12.099   1.771  1.00  0.00     0.725 A 
HETATM    5  N   UNL     1      38.829 -13.142   0.912  1.00  0.00    -0.084 N 
HETATM    6  N   UNL     1      37.736 -13.392   0.158  1.00  0.00    -0.149 NA
HETATM    7  C   UNL     1      36.921 -12.417   0.578  1.00  0.00     0.275 A 
HETATM    8  N   UNL     1      37.419 -11.604   1.563  1.00  0.00    -0.054 NA
HETATM    9  C   UNL     1      40.037 -13.976   0.925  1.00  0.00     0.204 C 
HETATM   10  C   UNL     1      40.968 -13.600   2.075  1.00  0.00     0.062 C 
HETATM   11  H   UNL     1      39.345 -11.047   3.346  1.00  0.00     0.184 HD
ENDROOT
BRANCH  10  12
HETATM   12  C   UNL     1      42.046 -14.595   2.323  1.00  0.00     0.256 C 
HETATM   13  N   UNL     1      41.598 -15.843   2.696  1.00  0.00    -0.323 N 
HETATM   14  H   UNL     1      40.604 -15.949   2.856  1.00  0.00     0.169 HD
HETATM   15  O   UNL     1      43.209 -14.229   2.209  1.00  0.00    -0.267 OA
BRANCH  13  16
HETATM   16  C   UNL     1      42.375 -17.018   2.814  1.00  0.00     0.035 A 
HETATM   17  C   UNL     1      42.853 -17.516   4.026  1.00  0.00     0.032 A 
HETATM   18  C   UNL     1      43.657 -18.661   4.056  1.00  0.00     0.039 A 
HETATM   19  C   UNL     1      43.996 -19.330   2.881  1.00  0.00     0.068 A 
HETATM   20  C   UNL     1      43.522 -18.840   1.665  1.00  0.00     0.039 A 
HETATM   21  C   UNL     1      42.714 -17.693   1.634  1.00  0.00     0.032 A 
BRANCH  19  22
HETATM   22  O   UNL     1      44.791 -20.426   3.057  1.00  0.00    -0.356 OA
HETATM   23  C   UNL     1      45.068 -20.814   4.396  1.00  0.00     0.210 C 
ENDBRANCH  19  22
ENDBRANCH  13  16
ENDBRANCH  10  12
BRANCH   9  24
HETATM   24  C   UNL     1      40.703 -13.997  -0.451  1.00  0.00    -0.006 A 
HETATM   25  C   UNL     1      41.337 -12.897  -1.053  1.00  0.00     0.042 A 
HETATM   26 CL   UNL     1      41.534 -11.374  -0.262  1.00  0.00    -0.084 Cl
HETATM   27  C   UNL     1      41.869 -12.997  -2.347  1.00  0.00     0.024 A 
HETATM   28  C   UNL     1      41.795 -14.195  -3.052  1.00  0.00     0.002 A 
HETATM   29  C   UNL     1      41.196 -15.303  -2.464  1.00  0.00     0.001 A 
HETATM   30  C   UNL     1      40.658 -15.205  -1.180  1.00  0.00     0.011 A 
ENDBRANCH   9  24
TORSDOF 4
ENDMDL
MODEL 10
REMARK VINA RESULT:      -6.9      4.213      8.191
REMARK  4 active torsions:
REMARK  status: ('A' for Active; 'I' for Inactive)
REMARK    1  A    between atoms: C_9  and  C_10 
REMARK    2  A    between atoms: C_17  and  C_18 
REMARK       I    between atoms: C_18  and  N_19 
REMARK    3  A    between atoms: N_19  and  C_20 
REMARK    4  A    between atoms: C_23  and  O_24 
ROOT
HETATM    1  C   UNL     1      43.262 -17.044   8.321  1.00  0.00     0.070 C 
HETATM    2  C   UNL     1      43.486 -17.610   6.941  1.00  0.00     0.037 C 
HETATM    3  N   UNL     1      43.654 -18.992   6.886  1.00  0.00    -0.192 N 
HETATM    4  C   UNL     1      44.103 -19.639   5.793  1.00  0.00     0.725 A 
HETATM    5  N   UNL     1      44.250 -18.950   4.619  1.00  0.00    -0.084 N 
HETATM    6  N   UNL     1      44.807 -19.724   3.663  1.00  0.00    -0.149 NA
HETATM    7  C   UNL     1      44.912 -20.886   4.319  1.00  0.00     0.275 A 
HETATM    8  N   UNL     1      44.492 -20.876   5.624  1.00  0.00    -0.054 NA
HETATM    9  C   UNL     1      43.980 -17.515   4.473  1.00  0.00     0.204 C 
HETATM   10  C   UNL     1      43.616 -16.871   5.808  1.00  0.00     0.062 C 
HETATM   11  H   UNL     1      43.625 -19.507   7.763  1.00  0.00     0.184 HD
ENDROOT
BRANCH  10  12
HETATM   12  C   UNL     1      43.631 -15.384   5.780  1.00  0.00     0.256 C 
HETATM   13  N   UNL     1      42.469 -14.808   5.316  1.00  0.00    -0.323 N 
HETATM   14  H   UNL     1      41.756 -15.430   4.956  1.00  0.00     0.169 HD
HETATM   15  O   UNL     1      44.654 -14.809   6.129  1.00  0.00    -0.267 OA
BRANCH  13  16
HETATM   16  C   UNL     1      42.134 -13.435   5.352  1.00  0.00     0.035 A 
HETATM   17  C   UNL     1      42.056 -12.684   6.524  1.00  0.00     0.032 A 
HETATM   18  C   UNL     1      41.672 -11.338   6.481  1.00  0.00     0.039 A 
HETATM   19  C   UNL     1      41.361 -10.720   5.272  1.00  0.00     0.068 A 
HETATM   20  C   UNL     1      41.437 -11.463   4.095  1.00  0.00     0.039 A 
HETATM   21  C   UNL     1      41.824 -12.811   4.136  1.00  0.00     0.032 A 
BRANCH  19  22
HETATM   22  O   UNL     1      40.996  -9.408   5.379  1.00  0.00    -0.356 OA
HETATM   23  C   UNL     1      41.342  -8.738   6.583  1.00  0.00     0.210 C 
ENDBRANCH  19  22
ENDBRANCH  13  16
ENDBRANCH  10  12
BRANCH   9  24
HETATM   24  C   UNL     1      42.976 -17.258   3.348  1.00  0.00    -0.006 A 
HETATM   25  C   UNL     1      41.589 -17.470   3.446  1.00  0.00     0.042 A 
HETATM   26 CL   UNL     1      40.813 -17.967   4.906  1.00  0.00    -0.084 Cl
HETATM   27  C   UNL     1      40.754 -17.262   2.340  1.00  0.00     0.024 A 
HETATM   28  C   UNL     1      41.280 -16.822   1.128  1.00  0.00     0.002 A 
HETATM   29  C   UNL     1      42.644 -16.580   1.018  1.00  0.00     0.001 A 
HETATM   30  C   UNL     1      43.481 -16.795   2.115  1.00  0.00     0.011 A 
ENDBRANCH   9  24
TORSDOF 4
ENDMDL
