MODEL 1
REMARK VINA RESULT:      -8.9      0.000      0.000
REMARK  8 active torsions:
REMARK  status: ('A' for Active; 'I' for Inactive)
REMARK    1  A    between atoms: C_2  and  C_3 
REMARK    2  A    between atoms: C_3  and  C_4 
REMARK    3  A    between atoms: C_4  and  N_5 
REMARK       I    between atoms: N_5  and  C_6 
REMARK    4  A    between atoms: C_6  and  C_7 
REMARK    5  A    between atoms: C_14  and  S_15 
REMARK    6  A    between atoms: S_15  and  N_16 
REMARK    7  A    between atoms: N_16  and  C_17 
REMARK    8  A    between atoms: C_19  and  O_20 
ROOT
HETATM    1  C   UNL     1      41.835 -16.647   2.908  1.00  0.00     0.098 C 
HETATM    2  C   UNL     1      41.964 -16.629   1.424  1.00  0.00     0.201 C 
HETATM    3  O   UNL     1      42.803 -17.312   0.840  1.00  0.00    -0.286 OA
HETATM    4  C   UNL     1      41.052 -15.737   0.657  1.00  0.00     0.043 A 
HETATM    5  C   UNL     1      40.042 -15.044   1.353  1.00  0.00     0.046 A 
HETATM    6  N   UNL     1      39.876 -15.246   2.729  1.00  0.00    -0.364 N 
HETATM    7  C   UNL     1      41.214 -15.575  -0.724  1.00  0.00     0.043 A 
HETATM    8  C   UNL     1      40.338 -14.730  -1.412  1.00  0.00     0.081 A 
HETATM    9  C   UNL     1      39.322 -14.046  -0.734  1.00  0.00     0.027 A 
HETATM   10  C   UNL     1      39.167 -14.217   0.644  1.00  0.00     0.032 A 
HETATM   11  C   UNL     1      40.812 -15.956   3.439  1.00  0.00     0.109 C 
HETATM   12  H   UNL     1      39.307 -14.583   3.248  1.00  0.00     0.165 HD
ENDROOT
BRANCH   8  13
HETATM   13  S   UNL     1      40.538 -14.465  -3.162  1.00  0.00     0.263 S 
HETATM   14  O   UNL     1      40.478 -15.766  -3.794  1.00  0.00    -0.200 OA
HETATM   15  O   UNL     1      39.652 -13.394  -3.559  1.00  0.00    -0.200 OA
BRANCH  13  16
HETATM   16  N   UNL     1      42.144 -13.956  -3.282  1.00  0.00    -0.281 N 
HETATM   17  H   UNL     1      42.802 -14.653  -2.940  1.00  0.00     0.179 HD
BRANCH  16  18
HETATM   18  C   UNL     1      42.444 -12.586  -3.054  1.00  0.00     0.045 A 
HETATM   19  C   UNL     1      42.819 -12.160  -1.778  1.00  0.00     0.066 A 
HETATM   20  C   UNL     1      43.050 -10.803  -1.546  1.00  0.00     0.070 A 
HETATM   21  C   UNL     1      42.952  -9.893  -2.601  1.00  0.00     0.037 A 
HETATM   22  C   UNL     1      42.572 -10.322  -3.872  1.00  0.00     0.005 A 
HETATM   23  C   UNL     1      42.302 -11.670  -4.096  1.00  0.00     0.030 A 
BRANCH  20  24
HETATM   24  O   UNL     1      43.405 -10.263  -0.340  1.00  0.00    -0.356 OA
HETATM   25  C   UNL     1      43.489  -8.842  -0.306  1.00  0.00     0.210 C 
ENDBRANCH  20  24
ENDBRANCH  16  18
ENDBRANCH  13  16
ENDBRANCH   8  13
BRANCH   1  26
HETATM   26  C   UNL     1      42.775 -17.335   3.838  1.00  0.00     0.257 C 
HETATM   27  N   UNL     1      43.054 -18.643   3.533  1.00  0.00    -0.357 N 
HETATM   28  H   UNL     1      42.660 -19.027   2.673  1.00  0.00     0.162 HD
HETATM   29  O   UNL     1      43.270 -16.746   4.796  1.00  0.00    -0.267 OA
BRANCH  27  30
HETATM   30  C   UNL     1      44.079 -19.404   4.218  1.00  0.00     0.123 C 
BRANCH  30  31
HETATM   31  C   UNL     1      44.874 -20.316   3.280  1.00  0.00     0.023 C 
BRANCH  31  32
HETATM   32  C   UNL     1      44.139 -21.633   2.968  1.00  0.00    -0.021 C 
HETATM   33  C   UNL     1      44.682 -22.803   3.790  1.00  0.00     0.009 C 
HETATM   34  C   UNL     1      44.249 -21.958   1.476  1.00  0.00     0.009 C 
ENDBRANCH  31  32
ENDBRANCH  30  31
ENDBRANCH  27  30
ENDBRANCH   1  26
TORSDOF 8
ENDMDL
MODEL 2
REMARK VINA RESULT:      -8.5      0.936      1.401
REMARK  8 active torsions:
REMARK  status: ('A' for Active; 'I' for Inactive)
REMARK    1  A    between atoms: C_2  and  C_3 
REMARK    2  A    between atoms: C_3  and  C_4 
REMARK    3  A    between atoms: C_4  and  N_5 
REMARK       I    between atoms: N_5  and  C_6 
REMARK    4  A    between atoms: C_6  and  C_7 
REMARK    5  A    between atoms: C_14  and  S_15 
REMARK    6  A    between atoms: S_15  and  N_16 
REMARK    7  A    between atoms: N_16  and  C_17 
REMARK    8  A    between atoms: C_19  and  O_20 
ROOT
HETATM    1  C   UNL     1      41.988 -16.656   3.074  1.00  0.00     0.098 C 
HETATM    2  C   UNL     1      42.111 -16.644   1.589  1.00  0.00     0.201 C 
HETATM    3  O   UNL     1      42.948 -17.327   1.004  1.00  0.00    -0.286 OA
HETATM    4  C   UNL     1      41.195 -15.755   0.822  1.00  0.00     0.043 A 
HETATM    5  C   UNL     1      40.187 -15.061   1.519  1.00  0.00     0.046 A 
HETATM    6  N   UNL     1      40.026 -15.257   2.897  1.00  0.00    -0.364 N 
HETATM    7  C   UNL     1      41.351 -15.598  -0.561  1.00  0.00     0.043 A 
HETATM    8  C   UNL     1      40.472 -14.757  -1.248  1.00  0.00     0.081 A 
HETATM    9  C   UNL     1      39.458 -14.071  -0.569  1.00  0.00     0.027 A 
HETATM   10  C   UNL     1      39.308 -14.238   0.810  1.00  0.00     0.032 A 
HETATM   11  C   UNL     1      40.966 -15.964   3.605  1.00  0.00     0.109 C 
HETATM   12  H   UNL     1      39.458 -14.593   3.415  1.00  0.00     0.165 HD
ENDROOT
BRANCH   8  13
HETATM   13  S   UNL     1      40.665 -14.498  -3.000  1.00  0.00     0.263 S 
HETATM   14  O   UNL     1      40.687 -15.807  -3.619  1.00  0.00    -0.200 OA
HETATM   15  O   UNL     1      39.718 -13.487  -3.413  1.00  0.00    -0.200 OA
BRANCH  13  16
HETATM   16  N   UNL     1      42.238 -13.895  -3.118  1.00  0.00    -0.281 N 
HETATM   17  H   UNL     1      42.938 -14.560  -2.797  1.00  0.00     0.179 HD
BRANCH  16  18
HETATM   18  C   UNL     1      42.460 -12.516  -2.860  1.00  0.00     0.045 A 
HETATM   19  C   UNL     1      42.310 -11.583  -3.889  1.00  0.00     0.066 A 
HETATM   20  C   UNL     1      42.593 -10.238  -3.646  1.00  0.00     0.070 A 
HETATM   21  C   UNL     1      42.975  -9.831  -2.366  1.00  0.00     0.037 A 
HETATM   22  C   UNL     1      43.129 -10.766  -1.343  1.00  0.00     0.005 A 
HETATM   23  C   UNL     1      42.887 -12.114  -1.595  1.00  0.00     0.030 A 
BRANCH  20  24
HETATM   24  O   UNL     1      42.499  -9.237  -4.574  1.00  0.00    -0.356 OA
HETATM   25  C   UNL     1      42.387  -7.919  -4.045  1.00  0.00     0.210 C 
ENDBRANCH  20  24
ENDBRANCH  16  18
ENDBRANCH  13  16
ENDBRANCH   8  13
BRANCH   1  26
HETATM   26  C   UNL     1      42.932 -17.339   4.002  1.00  0.00     0.257 C 
HETATM   27  N   UNL     1      43.062 -18.693   3.820  1.00  0.00    -0.357 N 
HETATM   28  H   UNL     1      42.565 -19.119   3.037  1.00  0.00     0.162 HD
HETATM   29  O   UNL     1      43.556 -16.711   4.854  1.00  0.00    -0.267 OA
BRANCH  27  30
HETATM   30  C   UNL     1      44.063 -19.482   4.508  1.00  0.00     0.123 C 
BRANCH  30  31
HETATM   31  C   UNL     1      44.918 -20.323   3.557  1.00  0.00     0.023 C 
BRANCH  31  32
HETATM   32  C   UNL     1      44.218 -21.626   3.126  1.00  0.00    -0.021 C 
HETATM   33  C   UNL     1      44.737 -22.840   3.899  1.00  0.00     0.009 C 
HETATM   34  C   UNL     1      44.407 -21.853   1.624  1.00  0.00     0.009 C 
ENDBRANCH  31  32
ENDBRANCH  30  31
ENDBRANCH  27  30
ENDBRANCH   1  26
TORSDOF 8
ENDMDL
MODEL 3
REMARK VINA RESULT:      -8.3      5.025      8.811
REMARK  8 active torsions:
REMARK  status: ('A' for Active; 'I' for Inactive)
REMARK    1  A    between atoms: C_2  and  C_3 
REMARK    2  A    between atoms: C_3  and  C_4 
REMARK    3  A    between atoms: C_4  and  N_5 
REMARK       I    between atoms: N_5  and  C_6 
REMARK    4  A    between atoms: C_6  and  C_7 
REMARK    5  A    between atoms: C_14  and  S_15 
REMARK    6  A    between atoms: S_15  and  N_16 
REMARK    7  A    between atoms: N_16  and  C_17 
REMARK    8  A    between atoms: C_19  and  O_20 
ROOT
HETATM    1  C   UNL     1      41.257 -11.879   6.010  1.00  0.00     0.098 C 
HETATM    2  C   UNL     1      42.056 -12.987   5.414  1.00  0.00     0.201 C 
HETATM    3  O   UNL     1      43.181 -13.265   5.823  1.00  0.00    -0.286 OA
HETATM    4  C   UNL     1      41.457 -13.746   4.281  1.00  0.00     0.043 A 
HETATM    5  C   UNL     1      40.130 -13.461   3.904  1.00  0.00     0.046 A 
HETATM    6  N   UNL     1      39.384 -12.521   4.627  1.00  0.00    -0.364 N 
HETATM    7  C   UNL     1      42.209 -14.706   3.593  1.00  0.00     0.043 A 
HETATM    8  C   UNL     1      41.614 -15.399   2.537  1.00  0.00     0.081 A 
HETATM    9  C   UNL     1      40.291 -15.135   2.160  1.00  0.00     0.027 A 
HETATM   10  C   UNL     1      39.548 -14.178   2.856  1.00  0.00     0.032 A 
HETATM   11  C   UNL     1      39.996 -11.733   5.570  1.00  0.00     0.109 C 
HETATM   12  H   UNL     1      38.526 -12.167   4.213  1.00  0.00     0.165 HD
ENDROOT
BRANCH   8  13
HETATM   13  S   UNL     1      42.552 -16.598   1.609  1.00  0.00     0.263 S 
HETATM   14  O   UNL     1      42.042 -16.573   0.254  1.00  0.00    -0.200 OA
HETATM   15  O   UNL     1      43.954 -16.385   1.889  1.00  0.00    -0.200 OA
BRANCH  13  16
HETATM   16  N   UNL     1      42.048 -18.064   2.276  1.00  0.00    -0.281 N 
HETATM   17  H   UNL     1      41.104 -18.019   2.656  1.00  0.00     0.179 HD
BRANCH  16  18
HETATM   18  C   UNL     1      43.002 -18.869   2.955  1.00  0.00     0.045 A 
HETATM   19  C   UNL     1      43.261 -18.646   4.309  1.00  0.00     0.066 A 
HETATM   20  C   UNL     1      44.246 -19.397   4.955  1.00  0.00     0.070 A 
HETATM   21  C   UNL     1      44.928 -20.393   4.253  1.00  0.00     0.037 A 
HETATM   22  C   UNL     1      44.671 -20.608   2.900  1.00  0.00     0.005 A 
HETATM   23  C   UNL     1      43.717 -19.833   2.245  1.00  0.00     0.030 A 
BRANCH  20  24
HETATM   24  O   UNL     1      44.599 -19.261   6.269  1.00  0.00    -0.356 OA
HETATM   25  C   UNL     1      45.269 -18.049   6.601  1.00  0.00     0.210 C 
ENDBRANCH  20  24
ENDBRANCH  16  18
ENDBRANCH  13  16
ENDBRANCH   8  13
BRANCH   1  26
HETATM   26  C   UNL     1      41.767 -10.907   7.018  1.00  0.00     0.257 C 
HETATM   27  N   UNL     1      42.177 -11.453   8.208  1.00  0.00    -0.357 N 
HETATM   28  H   UNL     1      42.167 -12.469   8.295  1.00  0.00     0.162 HD
HETATM   29  O   UNL     1      41.824  -9.705   6.772  1.00  0.00    -0.267 OA
BRANCH  27  30
HETATM   30  C   UNL     1      42.863 -10.683   9.225  1.00  0.00     0.123 C 
BRANCH  30  31
HETATM   31  C   UNL     1      42.409 -11.030  10.645  1.00  0.00     0.023 C 
BRANCH  31  32
HETATM   32  C   UNL     1      43.578 -11.083  11.647  1.00  0.00    -0.021 C 
HETATM   33  C   UNL     1      43.506  -9.952  12.674  1.00  0.00     0.009 C 
HETATM   34  C   UNL     1      44.914 -11.018  10.902  1.00  0.00     0.009 C 
ENDBRANCH  31  32
ENDBRANCH  30  31
ENDBRANCH  27  30
ENDBRANCH   1  26
TORSDOF 8
ENDMDL
MODEL 4
REMARK VINA RESULT:      -8.2      4.943      7.453
REMARK  8 active torsions:
REMARK  status: ('A' for Active; 'I' for Inactive)
REMARK    1  A    between atoms: C_2  and  C_3 
REMARK    2  A    between atoms: C_3  and  C_4 
REMARK    3  A    between atoms: C_4  and  N_5 
REMARK       I    between atoms: N_5  and  C_6 
REMARK    4  A    between atoms: C_6  and  C_7 
REMARK    5  A    between atoms: C_14  and  S_15 
REMARK    6  A    between atoms: S_15  and  N_16 
REMARK    7  A    between atoms: N_16  and  C_17 
REMARK    8  A    between atoms: C_19  and  O_20 
ROOT
HETATM    1  C   UNL     1      44.351 -14.615   6.721  1.00  0.00     0.098 C 
HETATM    2  C   UNL     1      43.845 -14.504   5.324  1.00  0.00     0.201 C 
HETATM    3  O   UNL     1      44.081 -13.519   4.628  1.00  0.00    -0.286 OA
HETATM    4  C   UNL     1      43.019 -15.623   4.792  1.00  0.00     0.043 A 
HETATM    5  C   UNL     1      42.850 -16.774   5.585  1.00  0.00     0.046 A 
HETATM    6  N   UNL     1      43.501 -16.874   6.822  1.00  0.00    -0.364 N 
HETATM    7  C   UNL     1      42.404 -15.517   3.539  1.00  0.00     0.043 A 
HETATM    8  C   UNL     1      41.637 -16.587   3.071  1.00  0.00     0.081 A 
HETATM    9  C   UNL     1      41.472 -17.743   3.844  1.00  0.00     0.027 A 
HETATM   10  C   UNL     1      42.093 -17.840   5.091  1.00  0.00     0.032 A 
HETATM   11  C   UNL     1      44.137 -15.780   7.355  1.00  0.00     0.109 C 
HETATM   12  H   UNL     1      43.195 -17.594   7.470  1.00  0.00     0.165 HD
ENDROOT
BRANCH   8  13
HETATM   13  S   UNL     1      40.804 -16.473   1.500  1.00  0.00     0.263 S 
HETATM   14  O   UNL     1      41.372 -15.337   0.804  1.00  0.00    -0.200 OA
HETATM   15  O   UNL     1      40.788 -17.790   0.903  1.00  0.00    -0.200 OA
BRANCH  13  16
HETATM   16  N   UNL     1      39.237 -16.023   1.939  1.00  0.00    -0.281 N 
HETATM   17  H   UNL     1      38.541 -16.718   1.677  1.00  0.00     0.179 HD
BRANCH  16  18
HETATM   18  C   UNL     1      38.874 -14.652   1.856  1.00  0.00     0.045 A 
HETATM   19  C   UNL     1      39.416 -13.734   2.759  1.00  0.00     0.066 A 
HETATM   20  C   UNL     1      39.007 -12.400   2.714  1.00  0.00     0.070 A 
HETATM   21  C   UNL     1      38.096 -11.987   1.738  1.00  0.00     0.037 A 
HETATM   22  C   UNL     1      37.553 -12.908   0.843  1.00  0.00     0.005 A 
HETATM   23  C   UNL     1      37.930 -14.247   0.913  1.00  0.00     0.030 A 
BRANCH  20  24
HETATM   24  O   UNL     1      39.452 -11.414   3.551  1.00  0.00    -0.356 OA
HETATM   25  C   UNL     1      40.659 -11.703   4.250  1.00  0.00     0.210 C 
ENDBRANCH  20  24
ENDBRANCH  16  18
ENDBRANCH  13  16
ENDBRANCH   8  13
BRANCH   1  26
HETATM   26  C   UNL     1      45.033 -13.523   7.471  1.00  0.00     0.257 C 
HETATM   27  N   UNL     1      44.312 -12.979   8.504  1.00  0.00    -0.357 N 
HETATM   28  H   UNL     1      43.407 -13.394   8.725  1.00  0.00     0.162 HD
HETATM   29  O   UNL     1      46.170 -13.163   7.179  1.00  0.00    -0.267 OA
BRANCH  27  30
HETATM   30  C   UNL     1      44.885 -12.039   9.447  1.00  0.00     0.123 C 
BRANCH  30  31
HETATM   31  C   UNL     1      44.353 -12.221  10.870  1.00  0.00     0.023 C 
BRANCH  31  32
HETATM   32  C   UNL     1      43.747 -10.928  11.449  1.00  0.00    -0.021 C 
HETATM   33  C   UNL     1      42.976 -11.185  12.744  1.00  0.00     0.009 C 
HETATM   34  C   UNL     1      42.823 -10.273  10.420  1.00  0.00     0.009 C 
ENDBRANCH  31  32
ENDBRANCH  30  31
ENDBRANCH  27  30
ENDBRANCH   1  26
TORSDOF 8
ENDMDL
MODEL 5
REMARK VINA RESULT:      -8.2      4.779      7.206
REMARK  8 active torsions:
REMARK  status: ('A' for Active; 'I' for Inactive)
REMARK    1  A    between atoms: C_2  and  C_3 
REMARK    2  A    between atoms: C_3  and  C_4 
REMARK    3  A    between atoms: C_4  and  N_5 
REMARK       I    between atoms: N_5  and  C_6 
REMARK    4  A    between atoms: C_6  and  C_7 
REMARK    5  A    between atoms: C_14  and  S_15 
REMARK    6  A    between atoms: S_15  and  N_16 
REMARK    7  A    between atoms: N_16  and  C_17 
REMARK    8  A    between atoms: C_19  and  O_20 
ROOT
HETATM    1  C   UNL     1      44.205 -14.486   6.821  1.00  0.00     0.098 C 
HETATM    2  C   UNL     1      43.643 -14.341   5.448  1.00  0.00     0.201 C 
HETATM    3  O   UNL     1      43.665 -13.267   4.851  1.00  0.00    -0.286 OA
HETATM    4  C   UNL     1      43.029 -15.542   4.818  1.00  0.00     0.043 A 
HETATM    5  C   UNL     1      43.108 -16.775   5.494  1.00  0.00     0.046 A 
HETATM    6  N   UNL     1      43.804 -16.865   6.706  1.00  0.00    -0.364 N 
HETATM    7  C   UNL     1      42.366 -15.438   3.589  1.00  0.00     0.043 A 
HETATM    8  C   UNL     1      41.802 -16.586   3.027  1.00  0.00     0.081 A 
HETATM    9  C   UNL     1      41.885 -17.820   3.682  1.00  0.00     0.027 A 
HETATM   10  C   UNL     1      42.552 -17.914   4.906  1.00  0.00     0.032 A 
HETATM   11  C   UNL     1      44.237 -15.725   7.338  1.00  0.00     0.109 C 
HETATM   12  H   UNL     1      43.662 -17.689   7.283  1.00  0.00     0.165 HD
ENDROOT
BRANCH   8  13
HETATM   13  S   UNL     1      40.914 -16.486   1.485  1.00  0.00     0.263 S 
HETATM   14  O   UNL     1      40.766 -17.841   0.996  1.00  0.00    -0.200 OA
HETATM   15  O   UNL     1      39.768 -15.628   1.682  1.00  0.00    -0.200 OA
BRANCH  13  16
HETATM   16  N   UNL     1      42.026 -15.734   0.461  1.00  0.00    -0.281 N 
HETATM   17  H   UNL     1      42.858 -15.414   0.953  1.00  0.00     0.179 HD
BRANCH  16  18
HETATM   18  C   UNL     1      41.537 -14.939  -0.610  1.00  0.00     0.045 A 
HETATM   19  C   UNL     1      41.071 -15.553  -1.775  1.00  0.00     0.066 A 
HETATM   20  C   UNL     1      40.653 -14.765  -2.849  1.00  0.00     0.070 A 
HETATM   21  C   UNL     1      40.659 -13.373  -2.730  1.00  0.00     0.037 A 
HETATM   22  C   UNL     1      41.130 -12.764  -1.568  1.00  0.00     0.005 A 
HETATM   23  C   UNL     1      41.586 -13.549  -0.512  1.00  0.00     0.030 A 
BRANCH  20  24
HETATM   24  O   UNL     1      40.193 -15.248  -4.043  1.00  0.00    -0.356 OA
HETATM   25  C   UNL     1      39.166 -16.231  -3.953  1.00  0.00     0.210 C 
ENDBRANCH  20  24
ENDBRANCH  16  18
ENDBRANCH  13  16
ENDBRANCH   8  13
BRANCH   1  26
HETATM   26  C   UNL     1      44.689 -13.359   7.667  1.00  0.00     0.257 C 
HETATM   27  N   UNL     1      43.720 -12.489   8.101  1.00  0.00    -0.357 N 
HETATM   28  H   UNL     1      42.749 -12.705   7.874  1.00  0.00     0.162 HD
HETATM   29  O   UNL     1      45.877 -13.246   7.961  1.00  0.00    -0.267 OA
BRANCH  27  30
HETATM   30  C   UNL     1      43.984 -11.449   9.074  1.00  0.00     0.123 C 
BRANCH  30  31
HETATM   31  C   UNL     1      42.788 -11.169   9.988  1.00  0.00     0.023 C 
BRANCH  31  32
HETATM   32  C   UNL     1      43.133 -11.320  11.481  1.00  0.00    -0.021 C 
HETATM   33  C   UNL     1      43.663 -10.018  12.083  1.00  0.00     0.009 C 
HETATM   34  C   UNL     1      44.164 -12.434  11.674  1.00  0.00     0.009 C 
ENDBRANCH  31  32
ENDBRANCH  30  31
ENDBRANCH  27  30
ENDBRANCH   1  26
TORSDOF 8
ENDMDL
MODEL 6
REMARK VINA RESULT:      -8.0      3.139      4.521
REMARK  8 active torsions:
REMARK  status: ('A' for Active; 'I' for Inactive)
REMARK    1  A    between atoms: C_2  and  C_3 
REMARK    2  A    between atoms: C_3  and  C_4 
REMARK    3  A    between atoms: C_4  and  N_5 
REMARK       I    between atoms: N_5  and  C_6 
REMARK    4  A    between atoms: C_6  and  C_7 
REMARK    5  A    between atoms: C_14  and  S_15 
REMARK    6  A    between atoms: S_15  and  N_16 
REMARK    7  A    between atoms: N_16  and  C_17 
REMARK    8  A    between atoms: C_19  and  O_20 
ROOT
HETATM    1  C   UNL     1      43.096 -16.943   5.599  1.00  0.00     0.098 C 
HETATM    2  C   UNL     1      42.156 -16.745   4.460  1.00  0.00     0.201 C 
HETATM    3  O   UNL     1      42.003 -17.603   3.593  1.00  0.00    -0.286 OA
HETATM    4  C   UNL     1      41.412 -15.457   4.387  1.00  0.00     0.043 A 
HETATM    5  C   UNL     1      41.542 -14.541   5.449  1.00  0.00     0.046 A 
HETATM    6  N   UNL     1      42.314 -14.874   6.570  1.00  0.00    -0.364 N 
HETATM    7  C   UNL     1      40.619 -15.158   3.273  1.00  0.00     0.043 A 
HETATM    8  C   UNL     1      39.934 -13.941   3.239  1.00  0.00     0.081 A 
HETATM    9  C   UNL     1      40.045 -13.027   4.294  1.00  0.00     0.027 A 
HETATM   10  C   UNL     1      40.836 -13.337   5.403  1.00  0.00     0.032 A 
HETATM   11  C   UNL     1      43.103 -15.997   6.553  1.00  0.00     0.109 C 
HETATM   12  H   UNL     1      42.580 -14.130   7.209  1.00  0.00     0.165 HD
ENDROOT
BRANCH   8  13
HETATM   13  S   UNL     1      38.949 -13.505   1.820  1.00  0.00     0.263 S 
HETATM   14  O   UNL     1      38.306 -14.721   1.366  1.00  0.00    -0.200 OA
HETATM   15  O   UNL     1      38.181 -12.326   2.150  1.00  0.00    -0.200 OA
BRANCH  13  16
HETATM   16  N   UNL     1      40.114 -13.126   0.658  1.00  0.00    -0.281 N 
HETATM   17  H   UNL     1      40.311 -12.128   0.611  1.00  0.00     0.179 HD
BRANCH  16  18
HETATM   18  C   UNL     1      40.136 -13.868  -0.553  1.00  0.00     0.045 A 
HETATM   19  C   UNL     1      39.211 -13.582  -1.560  1.00  0.00     0.066 A 
HETATM   20  C   UNL     1      39.196 -14.356  -2.722  1.00  0.00     0.070 A 
HETATM   21  C   UNL     1      40.135 -15.377  -2.886  1.00  0.00     0.037 A 
HETATM   22  C   UNL     1      41.053 -15.663  -1.876  1.00  0.00     0.005 A 
HETATM   23  C   UNL     1      41.043 -14.917  -0.700  1.00  0.00     0.030 A 
BRANCH  20  24
HETATM   24  O   UNL     1      38.331 -14.185  -3.767  1.00  0.00    -0.356 OA
HETATM   25  C   UNL     1      37.198 -15.049  -3.774  1.00  0.00     0.210 C 
ENDBRANCH  20  24
ENDBRANCH  16  18
ENDBRANCH  13  16
ENDBRANCH   8  13
BRANCH   1  26
HETATM   26  C   UNL     1      44.048 -18.082   5.732  1.00  0.00     0.257 C 
HETATM   27  N   UNL     1      43.636 -19.263   5.168  1.00  0.00    -0.357 N 
HETATM   28  H   UNL     1      42.756 -19.264   4.652  1.00  0.00     0.162 HD
HETATM   29  O   UNL     1      45.132 -17.945   6.294  1.00  0.00    -0.267 OA
BRANCH  27  30
HETATM   30  C   UNL     1      44.505 -20.415   5.045  1.00  0.00     0.123 C 
BRANCH  30  31
HETATM   31  C   UNL     1      45.054 -20.602   3.629  1.00  0.00     0.023 C 
BRANCH  31  32
HETATM   32  C   UNL     1      43.945 -20.624   2.560  1.00  0.00    -0.021 C 
HETATM   33  C   UNL     1      44.045 -21.852   1.654  1.00  0.00     0.009 C 
HETATM   34  C   UNL     1      44.003 -19.351   1.712  1.00  0.00     0.009 C 
ENDBRANCH  31  32
ENDBRANCH  30  31
ENDBRANCH  27  30
ENDBRANCH   1  26
TORSDOF 8
ENDMDL
MODEL 7
REMARK VINA RESULT:      -7.7      6.495      8.931
REMARK  8 active torsions:
REMARK  status: ('A' for Active; 'I' for Inactive)
REMARK    1  A    between atoms: C_2  and  C_3 
REMARK    2  A    between atoms: C_3  and  C_4 
REMARK    3  A    between atoms: C_4  and  N_5 
REMARK       I    between atoms: N_5  and  C_6 
REMARK    4  A    between atoms: C_6  and  C_7 
REMARK    5  A    between atoms: C_14  and  S_15 
REMARK    6  A    between atoms: S_15  and  N_16 
REMARK    7  A    between atoms: N_16  and  C_17 
REMARK    8  A    between atoms: C_19  and  O_20 
ROOT
HETATM    1  C   UNL     1      42.322 -13.996   3.665  1.00  0.00     0.098 C 
HETATM    2  C   UNL     1      42.083 -13.570   5.073  1.00  0.00     0.201 C 
HETATM    3  O   UNL     1      42.329 -14.311   6.022  1.00  0.00    -0.286 OA
HETATM    4  C   UNL     1      41.513 -12.214   5.302  1.00  0.00     0.043 A 
HETATM    5  C   UNL     1      41.335 -11.360   4.196  1.00  0.00     0.046 A 
HETATM    6  N   UNL     1      41.745 -11.772   2.921  1.00  0.00    -0.364 N 
HETATM    7  C   UNL     1      41.142 -11.808   6.590  1.00  0.00     0.043 A 
HETATM    8  C   UNL     1      40.612 -10.528   6.768  1.00  0.00     0.081 A 
HETATM    9  C   UNL     1      40.441  -9.665   5.679  1.00  0.00     0.027 A 
HETATM   10  C   UNL     1      40.819 -10.077   4.399  1.00  0.00     0.032 A 
HETATM   11  C   UNL     1      42.131 -13.072   2.709  1.00  0.00     0.109 C 
HETATM   12  H   UNL     1      41.408 -11.251   2.116  1.00  0.00     0.165 HD
ENDROOT
BRANCH   8  13
HETATM   13  S   UNL     1      40.087  -9.992   8.384  1.00  0.00     0.263 S 
HETATM   14  O   UNL     1      40.787  -8.755   8.664  1.00  0.00    -0.200 OA
HETATM   15  O   UNL     1      38.645 -10.068   8.438  1.00  0.00    -0.200 OA
BRANCH  13  16
HETATM   16  N   UNL     1      40.763 -11.157   9.402  1.00  0.00    -0.281 N 
HETATM   17  H   UNL     1      40.058 -11.711   9.886  1.00  0.00     0.179 HD
BRANCH  16  18
HETATM   18  C   UNL     1      41.958 -10.841  10.102  1.00  0.00     0.045 A 
HETATM   19  C   UNL     1      43.178 -10.829   9.422  1.00  0.00     0.066 A 
HETATM   20  C   UNL     1      44.357 -10.581  10.127  1.00  0.00     0.070 A 
HETATM   21  C   UNL     1      44.301 -10.300  11.494  1.00  0.00     0.037 A 
HETATM   22  C   UNL     1      43.081 -10.319  12.170  1.00  0.00     0.005 A 
HETATM   23  C   UNL     1      41.909 -10.606  11.475  1.00  0.00     0.030 A 
BRANCH  20  24
HETATM   24  O   UNL     1      45.610 -10.559   9.578  1.00  0.00    -0.356 OA
HETATM   25  C   UNL     1      45.967 -11.710   8.820  1.00  0.00     0.210 C 
ENDBRANCH  20  24
ENDBRANCH  16  18
ENDBRANCH  13  16
ENDBRANCH   8  13
BRANCH   1  26
HETATM   26  C   UNL     1      42.712 -15.372   3.245  1.00  0.00     0.257 C 
HETATM   27  N   UNL     1      42.280 -16.383   4.065  1.00  0.00    -0.357 N 
HETATM   28  H   UNL     1      41.679 -16.136   4.852  1.00  0.00     0.162 HD
HETATM   29  O   UNL     1      43.361 -15.565   2.220  1.00  0.00    -0.267 OA
BRANCH  27  30
HETATM   30  C   UNL     1      42.412 -17.783   3.715  1.00  0.00     0.123 C 
BRANCH  30  31
HETATM   31  C   UNL     1      43.670 -18.429   4.299  1.00  0.00     0.023 C 
BRANCH  31  32
HETATM   32  C   UNL     1      43.931 -19.839   3.737  1.00  0.00    -0.021 C 
HETATM   33  C   UNL     1      45.196 -20.466   4.323  1.00  0.00     0.009 C 
HETATM   34  C   UNL     1      44.041 -19.786   2.211  1.00  0.00     0.009 C 
ENDBRANCH  31  32
ENDBRANCH  30  31
ENDBRANCH  27  30
ENDBRANCH   1  26
TORSDOF 8
ENDMDL
MODEL 8
REMARK VINA RESULT:      -7.7      2.334      3.248
REMARK  8 active torsions:
REMARK  status: ('A' for Active; 'I' for Inactive)
REMARK    1  A    between atoms: C_2  and  C_3 
REMARK    2  A    between atoms: C_3  and  C_4 
REMARK    3  A    between atoms: C_4  and  N_5 
REMARK       I    between atoms: N_5  and  C_6 
REMARK    4  A    between atoms: C_6  and  C_7 
REMARK    5  A    between atoms: C_14  and  S_15 
REMARK    6  A    between atoms: S_15  and  N_16 
REMARK    7  A    between atoms: N_16  and  C_17 
REMARK    8  A    between atoms: C_19  and  O_20 
ROOT
HETATM    1  C   UNL     1      42.532 -16.710   5.262  1.00  0.00     0.098 C 
HETATM    2  C   UNL     1      41.697 -16.656   4.030  1.00  0.00     0.201 C 
HETATM    3  O   UNL     1      41.689 -17.576   3.215  1.00  0.00    -0.286 OA
HETATM    4  C   UNL     1      40.877 -15.435   3.797  1.00  0.00     0.043 A 
HETATM    5  C   UNL     1      40.839 -14.446   4.799  1.00  0.00     0.046 A 
HETATM    6  N   UNL     1      41.518 -14.648   6.007  1.00  0.00    -0.364 N 
HETATM    7  C   UNL     1      40.178 -15.268   2.595  1.00  0.00     0.043 A 
HETATM    8  C   UNL     1      39.417 -14.111   2.412  1.00  0.00     0.081 A 
HETATM    9  C   UNL     1      39.361 -13.125   3.406  1.00  0.00     0.027 A 
HETATM   10  C   UNL     1      40.059 -13.304   4.602  1.00  0.00     0.032 A 
HETATM   11  C   UNL     1      42.381 -15.707   6.144  1.00  0.00     0.109 C 
HETATM   12  H   UNL     1      41.668 -13.847   6.615  1.00  0.00     0.165 HD
ENDROOT
BRANCH   8  13
HETATM   13  S   UNL     1      38.548 -13.842   0.880  1.00  0.00     0.263 S 
HETATM   14  O   UNL     1      37.235 -14.434   1.032  1.00  0.00    -0.200 OA
HETATM   15  O   UNL     1      38.709 -12.455   0.509  1.00  0.00    -0.200 OA
BRANCH  13  16
HETATM   16  N   UNL     1      39.387 -14.828  -0.203  1.00  0.00    -0.281 N 
HETATM   17  H   UNL     1      39.787 -15.651   0.244  1.00  0.00     0.179 HD
BRANCH  16  18
HETATM   18  C   UNL     1      40.122 -14.217  -1.254  1.00  0.00     0.045 A 
HETATM   19  C   UNL     1      41.361 -13.629  -0.984  1.00  0.00     0.066 A 
HETATM   20  C   UNL     1      42.049 -12.973  -2.007  1.00  0.00     0.070 A 
HETATM   21  C   UNL     1      41.516 -12.953  -3.298  1.00  0.00     0.037 A 
HETATM   22  C   UNL     1      40.277 -13.536  -3.561  1.00  0.00     0.005 A 
HETATM   23  C   UNL     1      39.571 -14.156  -2.533  1.00  0.00     0.030 A 
BRANCH  20  24
HETATM   24  O   UNL     1      43.256 -12.348  -1.864  1.00  0.00    -0.356 OA
HETATM   25  C   UNL     1      43.196 -10.980  -1.472  1.00  0.00     0.210 C 
ENDBRANCH  20  24
ENDBRANCH  16  18
ENDBRANCH  13  16
ENDBRANCH   8  13
BRANCH   1  26
HETATM   26  C   UNL     1      43.543 -17.763   5.563  1.00  0.00     0.257 C 
HETATM   27  N   UNL     1      43.254 -19.012   5.076  1.00  0.00    -0.357 N 
HETATM   28  H   UNL     1      42.419 -19.119   4.499  1.00  0.00     0.162 HD
HETATM   29  O   UNL     1      44.567 -17.503   6.189  1.00  0.00    -0.267 OA
BRANCH  27  30
HETATM   30  C   UNL     1      44.204 -20.106   5.118  1.00  0.00     0.123 C 
BRANCH  30  31
HETATM   31  C   UNL     1      45.178 -20.097   3.938  1.00  0.00     0.023 C 
BRANCH  31  32
HETATM   32  C   UNL     1      44.765 -21.073   2.819  1.00  0.00    -0.021 C 
HETATM   33  C   UNL     1      43.545 -20.575   2.044  1.00  0.00     0.009 C 
HETATM   34  C   UNL     1      44.473 -22.456   3.408  1.00  0.00     0.009 C 
ENDBRANCH  31  32
ENDBRANCH  30  31
ENDBRANCH  27  30
ENDBRANCH   1  26
TORSDOF 8
ENDMDL
MODEL 9
REMARK VINA RESULT:      -7.7      2.693      9.444
REMARK  8 active torsions:
REMARK  status: ('A' for Active; 'I' for Inactive)
REMARK    1  A    between atoms: C_2  and  C_3 
REMARK    2  A    between atoms: C_3  and  C_4 
REMARK    3  A    between atoms: C_4  and  N_5 
REMARK       I    between atoms: N_5  and  C_6 
REMARK    4  A    between atoms: C_6  and  C_7 
REMARK    5  A    between atoms: C_14  and  S_15 
REMARK    6  A    between atoms: S_15  and  N_16 
REMARK    7  A    between atoms: N_16  and  C_17 
REMARK    8  A    between atoms: C_19  and  O_20 
ROOT
HETATM    1  C   UNL     1      41.151 -12.891   0.256  1.00  0.00     0.098 C 
HETATM    2  C   UNL     1      41.828 -13.351   1.501  1.00  0.00     0.201 C 
HETATM    3  O   UNL     1      42.652 -12.650   2.086  1.00  0.00    -0.286 OA
HETATM    4  C   UNL     1      41.493 -14.707   2.016  1.00  0.00     0.043 A 
HETATM    5  C   UNL     1      40.476 -15.441   1.374  1.00  0.00     0.046 A 
HETATM    6  N   UNL     1      39.765 -14.868   0.311  1.00  0.00    -0.364 N 
HETATM    7  C   UNL     1      42.193 -15.248   3.102  1.00  0.00     0.043 A 
HETATM    8  C   UNL     1      41.849 -16.523   3.558  1.00  0.00     0.081 A 
HETATM    9  C   UNL     1      40.832 -17.257   2.937  1.00  0.00     0.027 A 
HETATM   10  C   UNL     1      40.137 -16.707   1.857  1.00  0.00     0.032 A 
HETATM   11  C   UNL     1      40.184 -13.682  -0.238  1.00  0.00     0.109 C 
HETATM   12  H   UNL     1      39.205 -15.479  -0.277  1.00  0.00     0.165 HD
ENDROOT
BRANCH   8  13
HETATM   13  S   UNL     1      42.746 -17.262   4.910  1.00  0.00     0.263 S 
HETATM   14  O   UNL     1      43.195 -16.179   5.759  1.00  0.00    -0.200 OA
HETATM   15  O   UNL     1      41.951 -18.349   5.435  1.00  0.00    -0.200 OA
BRANCH  13  16
HETATM   16  N   UNL     1      44.126 -17.872   4.153  1.00  0.00    -0.281 N 
HETATM   17  H   UNL     1      44.706 -17.141   3.746  1.00  0.00     0.179 HD
BRANCH  16  18
HETATM   18  C   UNL     1      44.036 -19.112   3.465  1.00  0.00     0.045 A 
HETATM   19  C   UNL     1      44.410 -20.293   4.109  1.00  0.00     0.066 A 
HETATM   20  C   UNL     1      44.380 -21.500   3.407  1.00  0.00     0.070 A 
HETATM   21  C   UNL     1      43.931 -21.520   2.085  1.00  0.00     0.037 A 
HETATM   22  C   UNL     1      43.564 -20.338   1.444  1.00  0.00     0.005 A 
HETATM   23  C   UNL     1      43.632 -19.128   2.131  1.00  0.00     0.030 A 
BRANCH  20  24
HETATM   24  O   UNL     1      44.737 -22.715   3.922  1.00  0.00    -0.356 OA
HETATM   25  C   UNL     1      45.317 -22.684   5.223  1.00  0.00     0.210 C 
ENDBRANCH  20  24
ENDBRANCH  16  18
ENDBRANCH  13  16
ENDBRANCH   8  13
BRANCH   1  26
HETATM   26  C   UNL     1      41.496 -11.651  -0.494  1.00  0.00     0.257 C 
HETATM   27  N   UNL     1      42.743 -11.636  -1.067  1.00  0.00    -0.357 N 
HETATM   28  H   UNL     1      43.310 -12.481  -0.997  1.00  0.00     0.162 HD
HETATM   29  O   UNL     1      40.696 -10.724  -0.596  1.00  0.00    -0.267 OA
BRANCH  27  30
HETATM   30  C   UNL     1      43.172 -10.594  -1.978  1.00  0.00     0.123 C 
BRANCH  30  31
HETATM   31  C   UNL     1      44.088  -9.562  -1.315  1.00  0.00     0.023 C 
BRANCH  31  32
HETATM   32  C   UNL     1      43.314  -8.352  -0.759  1.00  0.00    -0.021 C 
HETATM   33  C   UNL     1      42.359  -7.755  -1.794  1.00  0.00     0.009 C 
HETATM   34  C   UNL     1      44.291  -7.276  -0.280  1.00  0.00     0.009 C 
ENDBRANCH  31  32
ENDBRANCH  30  31
ENDBRANCH  27  30
ENDBRANCH   1  26
TORSDOF 8
ENDMDL
MODEL 10
REMARK VINA RESULT:      -7.7      2.128      2.837
REMARK  8 active torsions:
REMARK  status: ('A' for Active; 'I' for Inactive)
REMARK    1  A    between atoms: C_2  and  C_3 
REMARK    2  A    between atoms: C_3  and  C_4 
REMARK    3  A    between atoms: C_4  and  N_5 
REMARK       I    between atoms: N_5  and  C_6 
REMARK    4  A    between atoms: C_6  and  C_7 
REMARK    5  A    between atoms: C_14  and  S_15 
REMARK    6  A    between atoms: S_15  and  N_16 
REMARK    7  A    between atoms: N_16  and  C_17 
REMARK    8  A    between atoms: C_19  and  O_20 
ROOT
HETATM    1  C   UNL     1      41.411 -15.958   2.791  1.00  0.00     0.098 C 
HETATM    2  C   UNL     1      41.624 -15.999   1.317  1.00  0.00     0.201 C 
HETATM    3  O   UNL     1      42.533 -16.655   0.813  1.00  0.00    -0.286 OA
HETATM    4  C   UNL     1      40.707 -15.199   0.459  1.00  0.00     0.043 A 
HETATM    5  C   UNL     1      39.621 -14.538   1.064  1.00  0.00     0.046 A 
HETATM    6  N   UNL     1      39.388 -14.687   2.438  1.00  0.00    -0.364 N 
HETATM    7  C   UNL     1      40.938 -15.089  -0.918  1.00  0.00     0.043 A 
HETATM    8  C   UNL     1      40.056 -14.331  -1.692  1.00  0.00     0.081 A 
HETATM    9  C   UNL     1      38.964 -13.679  -1.104  1.00  0.00     0.027 A 
HETATM   10  C   UNL     1      38.741 -13.798   0.270  1.00  0.00     0.032 A 
HETATM   11  C   UNL     1      40.321 -15.307   3.231  1.00  0.00     0.109 C 
HETATM   12  H   UNL     1      38.752 -14.037   2.892  1.00  0.00     0.165 HD
ENDROOT
BRANCH   8  13
HETATM   13  S   UNL     1      40.340 -14.133  -3.440  1.00  0.00     0.263 S 
HETATM   14  O   UNL     1      40.272 -15.454  -4.029  1.00  0.00    -0.200 OA
HETATM   15  O   UNL     1      39.501 -13.055  -3.912  1.00  0.00    -0.200 OA
BRANCH  13  16
HETATM   16  N   UNL     1      41.962 -13.671  -3.505  1.00  0.00    -0.281 N 
HETATM   17  H   UNL     1      42.596 -14.425  -3.247  1.00  0.00     0.179 HD
BRANCH  16  18
HETATM   18  C   UNL     1      42.310 -12.347  -3.122  1.00  0.00     0.045 A 
HETATM   19  C   UNL     1      42.197 -11.305  -4.044  1.00  0.00     0.066 A 
HETATM   20  C   UNL     1      42.601 -10.018  -3.682  1.00  0.00     0.070 A 
HETATM   21  C   UNL     1      43.068  -9.778  -2.388  1.00  0.00     0.037 A 
HETATM   22  C   UNL     1      43.185 -10.822  -1.472  1.00  0.00     0.005 A 
HETATM   23  C   UNL     1      42.820 -12.114  -1.845  1.00  0.00     0.030 A 
BRANCH  20  24
HETATM   24  O   UNL     1      42.555  -8.923  -4.499  1.00  0.00    -0.356 OA
HETATM   25  C   UNL     1      41.997  -7.748  -3.919  1.00  0.00     0.210 C 
ENDBRANCH  20  24
ENDBRANCH  16  18
ENDBRANCH  13  16
ENDBRANCH   8  13
BRANCH   1  26
HETATM   26  C   UNL     1      42.334 -16.545   3.803  1.00  0.00     0.257 C 
HETATM   27  N   UNL     1      41.773 -17.471   4.645  1.00  0.00    -0.357 N 
HETATM   28  H   UNL     1      40.801 -17.737   4.483  1.00  0.00     0.162 HD
HETATM   29  O   UNL     1      43.519 -16.222   3.849  1.00  0.00    -0.267 OA
BRANCH  27  30
HETATM   30  C   UNL     1      42.559 -18.270   5.563  1.00  0.00     0.123 C 
BRANCH  30  31
HETATM   31  C   UNL     1      42.594 -17.691   6.979  1.00  0.00     0.023 C 
BRANCH  31  32
HETATM   32  C   UNL     1      43.984 -17.149   7.365  1.00  0.00    -0.021 C 
HETATM   33  C   UNL     1      44.093 -15.639   7.143  1.00  0.00     0.009 C 
HETATM   34  C   UNL     1      45.071 -17.868   6.564  1.00  0.00     0.009 C 
ENDBRANCH  31  32
ENDBRANCH  30  31
ENDBRANCH  27  30
ENDBRANCH   1  26
TORSDOF 8
ENDMDL
