MODEL 1
REMARK VINA RESULT:      -9.6      0.000      0.000
REMARK  8 active torsions:
REMARK  status: ('A' for Active; 'I' for Inactive)
REMARK    1  A    between atoms: N_3  and  C_4 
REMARK    2  A    between atoms: C_7  and  O_8 
REMARK    3  A    between atoms: C_13  and  C_14 
REMARK    4  A    between atoms: N_15  and  N_16 
REMARK       I    between atoms: N_16  and  C_17 
REMARK    5  A    between atoms: C_17  and  C_18 
REMARK    6  A    between atoms: C_18  and  O_19 
REMARK    7  A    between atoms: C_18  and  C_20 
REMARK    8  A    between atoms: C_18  and  C_26 
ROOT
HETATM    1  N   UNL     1      42.146 -16.159  -0.539  1.00  0.00    -0.244 N 
HETATM    2  C   UNL     1      41.143 -15.205  -0.696  1.00  0.00     0.282 C 
HETATM    3  O   UNL     1      40.286 -14.937   0.153  1.00  0.00    -0.268 OA
HETATM    4  H   UNL     1      42.669 -16.452  -1.360  1.00  0.00     0.192 HD
ENDROOT
BRANCH   1   5
HETATM    5  N   UNL     1      42.362 -16.962   0.550  1.00  0.00    -0.184 NA
HETATM    6  C   UNL     1      43.563 -17.355   0.827  1.00  0.00     0.152 C 
BRANCH   6   7
HETATM    7  C   UNL     1      43.754 -18.229   1.973  1.00  0.00     0.008 A 
HETATM    8  C   UNL     1      43.662 -17.854   3.309  1.00  0.00     0.025 A 
HETATM    9  N   UNL     1      43.999 -18.955   4.102  1.00  0.00    -0.319 N 
HETATM   10  C   UNL     1      43.208 -16.542   3.863  1.00  0.00     0.070 C 
HETATM   11  C   UNL     1      44.213 -20.042   3.261  1.00  0.00     0.014 A 
HETATM   12  C   UNL     1      44.655 -21.397   3.704  1.00  0.00     0.068 C 
HETATM   13  C   UNL     1      44.063 -19.610   1.959  1.00  0.00     0.040 A 
BRANCH   9  14
HETATM   14  C   UNL     1      44.142 -18.953   5.522  1.00  0.00     0.039 A 
HETATM   15  C   UNL     1      43.467 -19.909   6.293  1.00  0.00     0.033 A 
HETATM   16  C   UNL     1      43.585 -19.900   7.686  1.00  0.00     0.039 A 
HETATM   17  C   UNL     1      44.380 -18.937   8.299  1.00  0.00     0.065 A 
HETATM   18  C   UNL     1      45.058 -17.987   7.544  1.00  0.00     0.039 A 
HETATM   19  C   UNL     1      44.940 -17.990   6.152  1.00  0.00     0.033 A 
BRANCH  17  20
HETATM   20  O   UNL     1      44.522 -18.889   9.654  1.00  0.00    -0.361 OA
HETATM   21  H   UNL     1      43.977 -19.591  10.048  1.00  0.00     0.217 HD
ENDBRANCH  17  20
ENDBRANCH   9  14
ENDBRANCH   6   7
ENDBRANCH   1   5
BRANCH   2  22
HETATM   22  C   UNL     1      41.122 -14.491  -2.096  1.00  0.00     0.195 C 
BRANCH  22  23
HETATM   23  O   UNL     1      41.975 -15.272  -2.965  1.00  0.00    -0.371 OA
HETATM   24  H   UNL     1      42.566 -15.765  -2.363  1.00  0.00     0.212 HD
ENDBRANCH  22  23
BRANCH  22  25
HETATM   25  C   UNL     1      39.700 -14.526  -2.687  1.00  0.00    -0.010 A 
HETATM   26  C   UNL     1      39.282 -15.541  -3.570  1.00  0.00     0.011 A 
HETATM   27  C   UNL     1      38.006 -15.519  -4.140  1.00  0.00     0.001 A 
HETATM   28  C   UNL     1      37.125 -14.484  -3.840  1.00  0.00     0.000 A 
HETATM   29  C   UNL     1      37.516 -13.469  -2.972  1.00  0.00     0.001 A 
HETATM   30  C   UNL     1      38.793 -13.486  -2.405  1.00  0.00     0.011 A 
ENDBRANCH  22  25
BRANCH  22  31
HETATM   31  C   UNL     1      41.770 -13.098  -2.089  1.00  0.00    -0.010 A 
HETATM   32  C   UNL     1      42.180 -12.445  -0.913  1.00  0.00     0.011 A 
HETATM   33  C   UNL     1      42.759 -11.173  -0.963  1.00  0.00     0.001 A 
HETATM   34  C   UNL     1      42.946 -10.531  -2.185  1.00  0.00     0.000 A 
HETATM   35  C   UNL     1      42.565 -11.164  -3.363  1.00  0.00     0.001 A 
HETATM   36  C   UNL     1      41.990 -12.435  -3.315  1.00  0.00     0.011 A 
ENDBRANCH  22  31
ENDBRANCH   2  22
TORSDOF 8
ENDMDL
MODEL 2
REMARK VINA RESULT:      -9.2      1.260      3.482
REMARK  8 active torsions:
REMARK  status: ('A' for Active; 'I' for Inactive)
REMARK    1  A    between atoms: N_3  and  C_4 
REMARK    2  A    between atoms: C_7  and  O_8 
REMARK    3  A    between atoms: C_13  and  C_14 
REMARK    4  A    between atoms: N_15  and  N_16 
REMARK       I    between atoms: N_16  and  C_17 
REMARK    5  A    between atoms: C_17  and  C_18 
REMARK    6  A    between atoms: C_18  and  O_19 
REMARK    7  A    between atoms: C_18  and  C_20 
REMARK    8  A    between atoms: C_18  and  C_26 
ROOT
HETATM    1  N   UNL     1      41.681 -15.014  -0.185  1.00  0.00    -0.244 N 
HETATM    2  C   UNL     1      40.735 -14.027   0.084  1.00  0.00     0.282 C 
HETATM    3  O   UNL     1      40.335 -13.723   1.213  1.00  0.00    -0.268 OA
HETATM    4  H   UNL     1      41.791 -15.331  -1.144  1.00  0.00     0.192 HD
ENDROOT
BRANCH   1   5
HETATM    5  N   UNL     1      42.322 -15.815   0.723  1.00  0.00    -0.184 NA
HETATM    6  C   UNL     1      41.866 -17.002   0.963  1.00  0.00     0.152 C 
BRANCH   6   7
HETATM    7  C   UNL     1      42.554 -17.816   1.951  1.00  0.00     0.008 A 
HETATM    8  C   UNL     1      42.469 -17.670   3.331  1.00  0.00     0.025 A 
HETATM    9  N   UNL     1      43.343 -18.581   3.929  1.00  0.00    -0.319 N 
HETATM   10  C   UNL     1      41.558 -16.768   4.102  1.00  0.00     0.070 C 
HETATM   11  C   UNL     1      43.908 -19.360   2.923  1.00  0.00     0.014 A 
HETATM   12  C   UNL     1      44.944 -20.412   3.131  1.00  0.00     0.068 C 
HETATM   13  C   UNL     1      43.430 -18.902   1.712  1.00  0.00     0.040 A 
BRANCH   9  14
HETATM   14  C   UNL     1      43.640 -18.669   5.322  1.00  0.00     0.039 A 
HETATM   15  C   UNL     1      43.374 -19.856   6.020  1.00  0.00     0.033 A 
HETATM   16  C   UNL     1      43.641 -19.941   7.389  1.00  0.00     0.039 A 
HETATM   17  C   UNL     1      44.177 -18.843   8.052  1.00  0.00     0.065 A 
HETATM   18  C   UNL     1      44.450 -17.662   7.370  1.00  0.00     0.039 A 
HETATM   19  C   UNL     1      44.180 -17.571   6.002  1.00  0.00     0.033 A 
BRANCH  17  20
HETATM   20  O   UNL     1      44.452 -18.881   9.387  1.00  0.00    -0.361 OA
HETATM   21  H   UNL     1      45.416 -18.864   9.506  1.00  0.00     0.217 HD
ENDBRANCH  17  20
ENDBRANCH   9  14
ENDBRANCH   6   7
ENDBRANCH   1   5
BRANCH   2  22
HETATM   22  C   UNL     1      40.132 -13.324  -1.186  1.00  0.00     0.195 C 
BRANCH  22  23
HETATM   23  O   UNL     1      38.982 -12.574  -0.730  1.00  0.00    -0.371 OA
HETATM   24  H   UNL     1      38.615 -12.160  -1.537  1.00  0.00     0.212 HD
ENDBRANCH  22  23
BRANCH  22  25
HETATM   25  C   UNL     1      41.144 -12.318  -1.766  1.00  0.00    -0.010 A 
HETATM   26  C   UNL     1      42.249 -11.857  -1.024  1.00  0.00     0.011 A 
HETATM   27  C   UNL     1      43.120 -10.899  -1.550  1.00  0.00     0.001 A 
HETATM   28  C   UNL     1      42.904 -10.384  -2.825  1.00  0.00     0.000 A 
HETATM   29  C   UNL     1      41.819 -10.823  -3.576  1.00  0.00     0.001 A 
HETATM   30  C   UNL     1      40.943 -11.776  -3.050  1.00  0.00     0.011 A 
ENDBRANCH  22  25
BRANCH  22  31
HETATM   31  C   UNL     1      39.553 -14.305  -2.218  1.00  0.00    -0.010 A 
HETATM   32  C   UNL     1      40.331 -15.263  -2.892  1.00  0.00     0.011 A 
HETATM   33  C   UNL     1      39.754 -16.127  -3.828  1.00  0.00     0.001 A 
HETATM   34  C   UNL     1      38.391 -16.056  -4.105  1.00  0.00     0.000 A 
HETATM   35  C   UNL     1      37.597 -15.128  -3.440  1.00  0.00     0.001 A 
HETATM   36  C   UNL     1      38.171 -14.267  -2.502  1.00  0.00     0.011 A 
ENDBRANCH  22  31
ENDBRANCH   2  22
TORSDOF 8
ENDMDL
MODEL 3
REMARK VINA RESULT:      -8.9      1.626      2.142
REMARK  8 active torsions:
REMARK  status: ('A' for Active; 'I' for Inactive)
REMARK    1  A    between atoms: N_3  and  C_4 
REMARK    2  A    between atoms: C_7  and  O_8 
REMARK    3  A    between atoms: C_13  and  C_14 
REMARK    4  A    between atoms: N_15  and  N_16 
REMARK       I    between atoms: N_16  and  C_17 
REMARK    5  A    between atoms: C_17  and  C_18 
REMARK    6  A    between atoms: C_18  and  O_19 
REMARK    7  A    between atoms: C_18  and  C_20 
REMARK    8  A    between atoms: C_18  and  C_26 
ROOT
HETATM    1  N   UNL     1      41.694 -15.475  -0.176  1.00  0.00    -0.244 N 
HETATM    2  C   UNL     1      41.464 -14.102  -0.140  1.00  0.00     0.282 C 
HETATM    3  O   UNL     1      41.854 -13.345   0.756  1.00  0.00    -0.268 OA
HETATM    4  H   UNL     1      41.164 -16.038  -0.835  1.00  0.00     0.192 HD
ENDROOT
BRANCH   1   5
HETATM    5  N   UNL     1      42.369 -16.226   0.750  1.00  0.00    -0.184 NA
HETATM    6  C   UNL     1      41.911 -17.389   1.087  1.00  0.00     0.152 C 
BRANCH   6   7
HETATM    7  C   UNL     1      42.636 -18.148   2.092  1.00  0.00     0.008 A 
HETATM    8  C   UNL     1      42.536 -17.984   3.469  1.00  0.00     0.025 A 
HETATM    9  N   UNL     1      43.454 -18.837   4.086  1.00  0.00    -0.319 N 
HETATM   10  C   UNL     1      41.574 -17.120   4.220  1.00  0.00     0.070 C 
HETATM   11  C   UNL     1      44.066 -19.601   3.096  1.00  0.00     0.014 A 
HETATM   12  C   UNL     1      45.156 -20.592   3.327  1.00  0.00     0.068 C 
HETATM   13  C   UNL     1      43.571 -19.189   1.876  1.00  0.00     0.040 A 
BRANCH   9  14
HETATM   14  C   UNL     1      43.748 -18.886   5.482  1.00  0.00     0.039 A 
HETATM   15  C   UNL     1      43.400 -20.020   6.230  1.00  0.00     0.033 A 
HETATM   16  C   UNL     1      43.665 -20.066   7.602  1.00  0.00     0.039 A 
HETATM   17  C   UNL     1      44.278 -18.979   8.217  1.00  0.00     0.065 A 
HETATM   18  C   UNL     1      44.630 -17.851   7.486  1.00  0.00     0.039 A 
HETATM   19  C   UNL     1      44.365 -17.800   6.115  1.00  0.00     0.033 A 
BRANCH  17  20
HETATM   20  O   UNL     1      44.552 -18.980   9.553  1.00  0.00    -0.361 OA
HETATM   21  H   UNL     1      44.685 -18.062   9.842  1.00  0.00     0.217 HD
ENDBRANCH  17  20
ENDBRANCH   9  14
ENDBRANCH   6   7
ENDBRANCH   1   5
BRANCH   2  22
HETATM   22  C   UNL     1      40.595 -13.545  -1.325  1.00  0.00     0.195 C 
BRANCH  22  23
HETATM   23  O   UNL     1      40.362 -14.658  -2.219  1.00  0.00    -0.371 OA
HETATM   24  H   UNL     1      40.873 -15.400  -1.838  1.00  0.00     0.212 HD
ENDBRANCH  22  23
BRANCH  22  25
HETATM   25  C   UNL     1      39.224 -13.075  -0.802  1.00  0.00    -0.010 A 
HETATM   26  C   UNL     1      38.703 -11.803  -1.110  1.00  0.00     0.011 A 
HETATM   27  C   UNL     1      37.484 -11.376  -0.576  1.00  0.00     0.001 A 
HETATM   28  C   UNL     1      36.763 -12.211   0.274  1.00  0.00     0.000 A 
HETATM   29  C   UNL     1      37.258 -13.472   0.592  1.00  0.00     0.001 A 
HETATM   30  C   UNL     1      38.479 -13.898   0.065  1.00  0.00     0.011 A 
ENDBRANCH  22  25
BRANCH  22  31
HETATM   31  C   UNL     1      41.327 -12.512  -2.196  1.00  0.00    -0.010 A 
HETATM   32  C   UNL     1      41.222 -12.474  -3.598  1.00  0.00     0.011 A 
HETATM   33  C   UNL     1      41.916 -11.515  -4.344  1.00  0.00     0.001 A 
HETATM   34  C   UNL     1      42.723 -10.576  -3.707  1.00  0.00     0.000 A 
HETATM   35  C   UNL     1      42.830 -10.583  -2.320  1.00  0.00     0.001 A 
HETATM   36  C   UNL     1      42.135 -11.536  -1.574  1.00  0.00     0.011 A 
ENDBRANCH  22  31
ENDBRANCH   2  22
TORSDOF 8
ENDMDL
MODEL 4
REMARK VINA RESULT:      -8.9      1.802      2.900
REMARK  8 active torsions:
REMARK  status: ('A' for Active; 'I' for Inactive)
REMARK    1  A    between atoms: N_3  and  C_4 
REMARK    2  A    between atoms: C_7  and  O_8 
REMARK    3  A    between atoms: C_13  and  C_14 
REMARK    4  A    between atoms: N_15  and  N_16 
REMARK       I    between atoms: N_16  and  C_17 
REMARK    5  A    between atoms: C_17  and  C_18 
REMARK    6  A    between atoms: C_18  and  O_19 
REMARK    7  A    between atoms: C_18  and  C_20 
REMARK    8  A    between atoms: C_18  and  C_26 
ROOT
HETATM    1  N   UNL     1      41.224 -15.296  -1.346  1.00  0.00    -0.244 N 
HETATM    2  C   UNL     1      40.206 -14.371  -1.569  1.00  0.00     0.282 C 
HETATM    3  O   UNL     1      39.293 -14.122  -0.774  1.00  0.00    -0.268 OA
HETATM    4  H   UNL     1      41.802 -15.579  -2.132  1.00  0.00     0.192 HD
ENDROOT
BRANCH   1   5
HETATM    5  N   UNL     1      41.396 -16.087  -0.241  1.00  0.00    -0.184 NA
HETATM    6  C   UNL     1      41.905 -15.580   0.836  1.00  0.00     0.152 C 
BRANCH   6   7
HETATM    7  C   UNL     1      42.100 -16.453   1.981  1.00  0.00     0.008 A 
HETATM    8  C   UNL     1      43.069 -17.443   2.097  1.00  0.00     0.025 A 
HETATM    9  N   UNL     1      42.873 -18.117   3.305  1.00  0.00    -0.319 N 
HETATM   10  C   UNL     1      44.200 -17.732   1.162  1.00  0.00     0.070 C 
HETATM   11  C   UNL     1      41.836 -17.487   3.986  1.00  0.00     0.014 A 
HETATM   12  C   UNL     1      41.269 -17.934   5.292  1.00  0.00     0.068 C 
HETATM   13  C   UNL     1      41.359 -16.468   3.188  1.00  0.00     0.040 A 
BRANCH   9  14
HETATM   14  C   UNL     1      43.580 -19.276   3.744  1.00  0.00     0.039 A 
HETATM   15  C   UNL     1      43.805 -20.336   2.853  1.00  0.00     0.033 A 
HETATM   16  C   UNL     1      44.478 -21.484   3.282  1.00  0.00     0.039 A 
HETATM   17  C   UNL     1      44.926 -21.564   4.596  1.00  0.00     0.065 A 
HETATM   18  C   UNL     1      44.712 -20.519   5.487  1.00  0.00     0.039 A 
HETATM   19  C   UNL     1      44.038 -19.371   5.064  1.00  0.00     0.033 A 
BRANCH  17  20
HETATM   20  O   UNL     1      45.584 -22.666   5.057  1.00  0.00    -0.361 OA
HETATM   21  H   UNL     1      46.369 -22.374   5.550  1.00  0.00     0.217 HD
ENDBRANCH  17  20
ENDBRANCH   9  14
ENDBRANCH   6   7
ENDBRANCH   1   5
BRANCH   2  22
HETATM   22  C   UNL     1      40.248 -13.666  -2.973  1.00  0.00     0.195 C 
BRANCH  22  23
HETATM   23  O   UNL     1      40.915 -14.584  -3.871  1.00  0.00    -0.371 OA
HETATM   24  H   UNL     1      40.738 -15.472  -3.501  1.00  0.00     0.212 HD
ENDBRANCH  22  23
BRANCH  22  25
HETATM   25  C   UNL     1      38.818 -13.453  -3.503  1.00  0.00    -0.010 A 
HETATM   26  C   UNL     1      38.221 -12.177  -3.552  1.00  0.00     0.011 A 
HETATM   27  C   UNL     1      36.902 -12.016  -3.982  1.00  0.00     0.001 A 
HETATM   28  C   UNL     1      36.153 -13.124  -4.370  1.00  0.00     0.000 A 
HETATM   29  C   UNL     1      36.721 -14.394  -4.329  1.00  0.00     0.001 A 
HETATM   30  C   UNL     1      38.038 -14.558  -3.894  1.00  0.00     0.011 A 
ENDBRANCH  22  25
BRANCH  22  31
HETATM   31  C   UNL     1      41.129 -12.406  -3.005  1.00  0.00    -0.010 A 
HETATM   32  C   UNL     1      41.643 -11.856  -4.193  1.00  0.00     0.011 A 
HETATM   33  C   UNL     1      42.445 -10.711  -4.164  1.00  0.00     0.001 A 
HETATM   34  C   UNL     1      42.746 -10.091  -2.954  1.00  0.00     0.000 A 
HETATM   35  C   UNL     1      42.236 -10.607  -1.767  1.00  0.00     0.001 A 
HETATM   36  C   UNL     1      41.432 -11.747  -1.794  1.00  0.00     0.011 A 
ENDBRANCH  22  31
ENDBRANCH   2  22
TORSDOF 8
ENDMDL
MODEL 5
REMARK VINA RESULT:      -8.6      2.772     10.456
REMARK  8 active torsions:
REMARK  status: ('A' for Active; 'I' for Inactive)
REMARK    1  A    between atoms: N_3  and  C_4 
REMARK    2  A    between atoms: C_7  and  O_8 
REMARK    3  A    between atoms: C_13  and  C_14 
REMARK    4  A    between atoms: N_15  and  N_16 
REMARK       I    between atoms: N_16  and  C_17 
REMARK    5  A    between atoms: C_17  and  C_18 
REMARK    6  A    between atoms: C_18  and  O_19 
REMARK    7  A    between atoms: C_18  and  C_20 
REMARK    8  A    between atoms: C_18  and  C_26 
ROOT
HETATM    1  N   UNL     1      41.829 -15.419   2.650  1.00  0.00    -0.244 N 
HETATM    2  C   UNL     1      42.899 -16.297   2.802  1.00  0.00     0.282 C 
HETATM    3  O   UNL     1      43.959 -16.233   2.170  1.00  0.00    -0.268 OA
HETATM    4  H   UNL     1      40.933 -15.672   3.057  1.00  0.00     0.192 HD
ENDROOT
BRANCH   1   5
HETATM    5  N   UNL     1      41.747 -14.354   1.792  1.00  0.00    -0.184 NA
HETATM    6  C   UNL     1      40.594 -13.998   1.324  1.00  0.00     0.152 C 
BRANCH   6   7
HETATM    7  C   UNL     1      40.545 -12.882   0.394  1.00  0.00     0.008 A 
HETATM    8  C   UNL     1      40.805 -12.943  -0.970  1.00  0.00     0.025 A 
HETATM    9  N   UNL     1      40.741 -11.649  -1.494  1.00  0.00    -0.319 N 
HETATM   10  C   UNL     1      41.039 -14.163  -1.804  1.00  0.00     0.070 C 
HETATM   11  C   UNL     1      40.352 -10.790  -0.471  1.00  0.00     0.014 A 
HETATM   12  C   UNL     1      40.225  -9.309  -0.595  1.00  0.00     0.068 C 
HETATM   13  C   UNL     1      40.227 -11.533   0.685  1.00  0.00     0.040 A 
BRANCH   9  14
HETATM   14  C   UNL     1      41.063 -11.268  -2.831  1.00  0.00     0.039 A 
HETATM   15  C   UNL     1      42.399 -11.032  -3.187  1.00  0.00     0.033 A 
HETATM   16  C   UNL     1      42.720 -10.636  -4.489  1.00  0.00     0.039 A 
HETATM   17  C   UNL     1      41.705 -10.484  -5.428  1.00  0.00     0.065 A 
HETATM   18  C   UNL     1      40.378 -10.720  -5.087  1.00  0.00     0.039 A 
HETATM   19  C   UNL     1      40.053 -11.112  -3.787  1.00  0.00     0.033 A 
BRANCH  17  20
HETATM   20  O   UNL     1      41.973 -10.098  -6.708  1.00  0.00    -0.361 OA
HETATM   21  H   UNL     1      42.925  -9.923  -6.786  1.00  0.00     0.217 HD
ENDBRANCH  17  20
ENDBRANCH   9  14
ENDBRANCH   6   7
ENDBRANCH   1   5
BRANCH   2  22
HETATM   22  C   UNL     1      42.659 -17.463   3.828  1.00  0.00     0.195 C 
BRANCH  22  23
HETATM   23  O   UNL     1      41.232 -17.705   3.844  1.00  0.00    -0.371 OA
HETATM   24  H   UNL     1      40.826 -16.834   3.663  1.00  0.00     0.212 HD
ENDBRANCH  22  23
BRANCH  22  25
HETATM   25  C   UNL     1      43.343 -18.753   3.336  1.00  0.00    -0.010 A 
HETATM   26  C   UNL     1      42.913 -19.431   2.178  1.00  0.00     0.011 A 
HETATM   27  C   UNL     1      43.511 -20.631   1.784  1.00  0.00     0.001 A 
HETATM   28  C   UNL     1      44.547 -21.176   2.537  1.00  0.00     0.000 A 
HETATM   29  C   UNL     1      44.987 -20.524   3.685  1.00  0.00     0.001 A 
HETATM   30  C   UNL     1      44.387 -19.328   4.084  1.00  0.00     0.011 A 
ENDBRANCH  22  25
BRANCH  22  31
HETATM   31  C   UNL     1      42.990 -17.086   5.281  1.00  0.00    -0.010 A 
HETATM   32  C   UNL     1      43.760 -15.961   5.628  1.00  0.00     0.011 A 
HETATM   33  C   UNL     1      44.038 -15.668   6.967  1.00  0.00     0.001 A 
HETATM   34  C   UNL     1      43.551 -16.486   7.983  1.00  0.00     0.000 A 
HETATM   35  C   UNL     1      42.773 -17.595   7.666  1.00  0.00     0.001 A 
HETATM   36  C   UNL     1      42.491 -17.887   6.330  1.00  0.00     0.011 A 
ENDBRANCH  22  31
ENDBRANCH   2  22
TORSDOF 8
ENDMDL
MODEL 6
REMARK VINA RESULT:      -8.6      2.709     10.477
REMARK  8 active torsions:
REMARK  status: ('A' for Active; 'I' for Inactive)
REMARK    1  A    between atoms: N_3  and  C_4 
REMARK    2  A    between atoms: C_7  and  O_8 
REMARK    3  A    between atoms: C_13  and  C_14 
REMARK    4  A    between atoms: N_15  and  N_16 
REMARK       I    between atoms: N_16  and  C_17 
REMARK    5  A    between atoms: C_17  and  C_18 
REMARK    6  A    between atoms: C_18  and  O_19 
REMARK    7  A    between atoms: C_18  and  C_20 
REMARK    8  A    between atoms: C_18  and  C_26 
ROOT
HETATM    1  N   UNL     1      42.421 -15.858   0.775  1.00  0.00    -0.244 N 
HETATM    2  C   UNL     1      42.063 -17.017   1.459  1.00  0.00     0.282 C 
HETATM    3  O   UNL     1      41.056 -17.693   1.222  1.00  0.00    -0.268 OA
HETATM    4  H   UNL     1      43.144 -15.265   1.172  1.00  0.00     0.192 HD
ENDROOT
BRANCH   1   5
HETATM    5  N   UNL     1      41.741 -15.260  -0.254  1.00  0.00    -0.184 NA
HETATM    6  C   UNL     1      41.230 -14.084  -0.084  1.00  0.00     0.152 C 
BRANCH   6   7
HETATM    7  C   UNL     1      40.492 -13.490  -1.186  1.00  0.00     0.008 A 
HETATM    8  C   UNL     1      39.123 -13.599  -1.405  1.00  0.00     0.025 A 
HETATM    9  N   UNL     1      38.814 -12.965  -2.611  1.00  0.00    -0.319 N 
HETATM   10  C   UNL     1      38.097 -14.205  -0.501  1.00  0.00     0.070 C 
HETATM   11  C   UNL     1      39.978 -12.382  -3.102  1.00  0.00     0.014 A 
HETATM   12  C   UNL     1      40.095 -11.662  -4.403  1.00  0.00     0.068 C 
HETATM   13  C   UNL     1      41.007 -12.694  -2.238  1.00  0.00     0.040 A 
BRANCH   9  14
HETATM   14  C   UNL     1      37.539 -12.957  -3.252  1.00  0.00     0.039 A 
HETATM   15  C   UNL     1      37.133 -14.062  -4.014  1.00  0.00     0.033 A 
HETATM   16  C   UNL     1      35.894 -14.052  -4.663  1.00  0.00     0.039 A 
HETATM   17  C   UNL     1      35.068 -12.940  -4.543  1.00  0.00     0.065 A 
HETATM   18  C   UNL     1      35.458 -11.841  -3.786  1.00  0.00     0.039 A 
HETATM   19  C   UNL     1      36.696 -11.845  -3.139  1.00  0.00     0.033 A 
BRANCH  17  20
HETATM   20  O   UNL     1      33.853 -12.886  -5.160  1.00  0.00    -0.361 OA
HETATM   21  H   UNL     1      33.205 -13.359  -4.611  1.00  0.00     0.217 HD
ENDBRANCH  17  20
ENDBRANCH   9  14
ENDBRANCH   6   7
ENDBRANCH   1   5
BRANCH   2  22
HETATM   22  C   UNL     1      43.022 -17.411   2.641  1.00  0.00     0.195 C 
BRANCH  22  23
HETATM   23  O   UNL     1      44.255 -16.685   2.425  1.00  0.00    -0.371 OA
HETATM   24  H   UNL     1      44.550 -16.418   3.319  1.00  0.00     0.212 HD
ENDBRANCH  22  23
BRANCH  22  25
HETATM   25  C   UNL     1      42.432 -16.938   3.983  1.00  0.00    -0.010 A 
HETATM   26  C   UNL     1      43.012 -15.891   4.726  1.00  0.00     0.011 A 
HETATM   27  C   UNL     1      42.495 -15.518   5.969  1.00  0.00     0.001 A 
HETATM   28  C   UNL     1      41.390 -16.184   6.494  1.00  0.00     0.000 A 
HETATM   29  C   UNL     1      40.801 -17.222   5.778  1.00  0.00     0.001 A 
HETATM   30  C   UNL     1      41.321 -17.600   4.538  1.00  0.00     0.011 A 
ENDBRANCH  22  25
BRANCH  22  31
HETATM   31  C   UNL     1      43.450 -18.888   2.623  1.00  0.00    -0.010 A 
HETATM   32  C   UNL     1      43.058 -19.791   1.618  1.00  0.00     0.011 A 
HETATM   33  C   UNL     1      43.471 -21.127   1.654  1.00  0.00     0.001 A 
HETATM   34  C   UNL     1      44.284 -21.585   2.687  1.00  0.00     0.000 A 
HETATM   35  C   UNL     1      44.699 -20.707   3.683  1.00  0.00     0.001 A 
HETATM   36  C   UNL     1      44.291 -19.372   3.647  1.00  0.00     0.011 A 
ENDBRANCH  22  31
ENDBRANCH   2  22
TORSDOF 8
ENDMDL
MODEL 7
REMARK VINA RESULT:      -8.5      5.994      8.593
REMARK  8 active torsions:
REMARK  status: ('A' for Active; 'I' for Inactive)
REMARK    1  A    between atoms: N_3  and  C_4 
REMARK    2  A    between atoms: C_7  and  O_8 
REMARK    3  A    between atoms: C_13  and  C_14 
REMARK    4  A    between atoms: N_15  and  N_16 
REMARK       I    between atoms: N_16  and  C_17 
REMARK    5  A    between atoms: C_17  and  C_18 
REMARK    6  A    between atoms: C_18  and  O_19 
REMARK    7  A    between atoms: C_18  and  C_20 
REMARK    8  A    between atoms: C_18  and  C_26 
ROOT
HETATM    1  N   UNL     1      41.071 -13.348   6.227  1.00  0.00    -0.244 N 
HETATM    2  C   UNL     1      41.057 -11.960   6.113  1.00  0.00     0.282 C 
HETATM    3  O   UNL     1      41.717 -11.313   5.292  1.00  0.00    -0.268 OA
HETATM    4  H   UNL     1      40.662 -13.770   7.056  1.00  0.00     0.192 HD
ENDROOT
BRANCH   1   5
HETATM    5  N   UNL     1      41.804 -14.232   5.480  1.00  0.00    -0.184 NA
HETATM    6  C   UNL     1      41.200 -15.027   4.657  1.00  0.00     0.152 C 
BRANCH   6   7
HETATM    7  C   UNL     1      42.004 -15.973   3.900  1.00  0.00     0.008 A 
HETATM    8  C   UNL     1      42.119 -17.335   4.155  1.00  0.00     0.025 A 
HETATM    9  N   UNL     1      43.049 -17.876   3.265  1.00  0.00    -0.319 N 
HETATM   10  C   UNL     1      41.347 -18.150   5.144  1.00  0.00     0.070 C 
HETATM   11  C   UNL     1      43.449 -16.868   2.393  1.00  0.00     0.014 A 
HETATM   12  C   UNL     1      44.482 -17.014   1.327  1.00  0.00     0.068 C 
HETATM   13  C   UNL     1      42.813 -15.703   2.771  1.00  0.00     0.040 A 
BRANCH   9  14
HETATM   14  C   UNL     1      43.539 -19.217   3.276  1.00  0.00     0.039 A 
HETATM   15  C   UNL     1      43.226 -20.084   2.219  1.00  0.00     0.033 A 
HETATM   16  C   UNL     1      43.684 -21.405   2.234  1.00  0.00     0.039 A 
HETATM   17  C   UNL     1      44.455 -21.850   3.302  1.00  0.00     0.065 A 
HETATM   18  C   UNL     1      44.776 -20.998   4.353  1.00  0.00     0.039 A 
HETATM   19  C   UNL     1      44.318 -19.679   4.344  1.00  0.00     0.033 A 
BRANCH  17  20
HETATM   20  O   UNL     1      44.921 -23.130   3.359  1.00  0.00    -0.361 OA
HETATM   21  H   UNL     1      44.291 -23.709   2.898  1.00  0.00     0.217 HD
ENDBRANCH  17  20
ENDBRANCH   9  14
ENDBRANCH   6   7
ENDBRANCH   1   5
BRANCH   2  22
HETATM   22  C   UNL     1      40.157 -11.218   7.167  1.00  0.00     0.195 C 
BRANCH  22  23
HETATM   23  O   UNL     1      39.075 -12.122   7.488  1.00  0.00    -0.371 OA
HETATM   24  H   UNL     1      39.503 -12.992   7.618  1.00  0.00     0.212 HD
ENDBRANCH  22  23
BRANCH  22  25
HETATM   25  C   UNL     1      40.953 -10.967   8.461  1.00  0.00    -0.010 A 
HETATM   26  C   UNL     1      42.338 -10.705   8.448  1.00  0.00     0.011 A 
HETATM   27  C   UNL     1      43.049 -10.539   9.639  1.00  0.00     0.001 A 
HETATM   28  C   UNL     1      42.393 -10.630  10.864  1.00  0.00     0.000 A 
HETATM   29  C   UNL     1      41.026 -10.888  10.901  1.00  0.00     0.001 A 
HETATM   30  C   UNL     1      40.314 -11.061   9.712  1.00  0.00     0.011 A 
ENDBRANCH  22  25
BRANCH  22  31
HETATM   31  C   UNL     1      39.450  -9.973   6.607  1.00  0.00    -0.010 A 
HETATM   32  C   UNL     1      38.951  -9.895   5.295  1.00  0.00     0.011 A 
HETATM   33  C   UNL     1      38.321  -8.734   4.834  1.00  0.00     0.001 A 
HETATM   34  C   UNL     1      38.172  -7.633   5.674  1.00  0.00     0.000 A 
HETATM   35  C   UNL     1      38.641  -7.692   6.982  1.00  0.00     0.001 A 
HETATM   36  C   UNL     1      39.267  -8.852   7.444  1.00  0.00     0.011 A 
ENDBRANCH  22  31
ENDBRANCH   2  22
TORSDOF 8
ENDMDL
MODEL 8
REMARK VINA RESULT:      -8.4      2.646     10.421
REMARK  8 active torsions:
REMARK  status: ('A' for Active; 'I' for Inactive)
REMARK    1  A    between atoms: N_3  and  C_4 
REMARK    2  A    between atoms: C_7  and  O_8 
REMARK    3  A    between atoms: C_13  and  C_14 
REMARK    4  A    between atoms: N_15  and  N_16 
REMARK       I    between atoms: N_16  and  C_17 
REMARK    5  A    between atoms: C_17  and  C_18 
REMARK    6  A    between atoms: C_18  and  O_19 
REMARK    7  A    between atoms: C_18  and  C_20 
REMARK    8  A    between atoms: C_18  and  C_26 
ROOT
HETATM    1  N   UNL     1      41.115 -16.102   2.048  1.00  0.00    -0.244 N 
HETATM    2  C   UNL     1      42.421 -16.438   2.395  1.00  0.00     0.282 C 
HETATM    3  O   UNL     1      43.409 -16.269   1.671  1.00  0.00    -0.268 OA
HETATM    4  H   UNL     1      40.354 -16.464   2.616  1.00  0.00     0.192 HD
ENDROOT
BRANCH   1   5
HETATM    5  N   UNL     1      40.688 -15.544   0.871  1.00  0.00    -0.184 NA
HETATM    6  C   UNL     1      40.579 -14.259   0.775  1.00  0.00     0.152 C 
BRANCH   6   7
HETATM    7  C   UNL     1      40.097 -13.702  -0.478  1.00  0.00     0.008 A 
HETATM    8  C   UNL     1      38.774 -13.675  -0.904  1.00  0.00     0.025 A 
HETATM    9  N   UNL     1      38.734 -13.139  -2.194  1.00  0.00    -0.319 N 
HETATM   10  C   UNL     1      37.554 -14.061  -0.130  1.00  0.00     0.070 C 
HETATM   11  C   UNL     1      40.024 -12.748  -2.539  1.00  0.00     0.014 A 
HETATM   12  C   UNL     1      40.427 -12.185  -3.860  1.00  0.00     0.068 C 
HETATM   13  C   UNL     1      40.863 -13.084  -1.496  1.00  0.00     0.040 A 
BRANCH   9  14
HETATM   14  C   UNL     1      37.581 -13.051  -3.030  1.00  0.00     0.039 A 
HETATM   15  C   UNL     1      36.798 -11.887  -3.021  1.00  0.00     0.033 A 
HETATM   16  C   UNL     1      35.655 -11.802  -3.821  1.00  0.00     0.039 A 
HETATM   17  C   UNL     1      35.303 -12.878  -4.628  1.00  0.00     0.065 A 
HETATM   18  C   UNL     1      36.073 -14.035  -4.649  1.00  0.00     0.039 A 
HETATM   19  C   UNL     1      37.214 -14.126  -3.849  1.00  0.00     0.033 A 
BRANCH  17  20
HETATM   20  O   UNL     1      34.195 -12.839  -5.422  1.00  0.00    -0.361 OA
HETATM   21  H   UNL     1      33.818 -13.733  -5.472  1.00  0.00     0.217 HD
ENDBRANCH  17  20
ENDBRANCH   9  14
ENDBRANCH   6   7
ENDBRANCH   1   5
BRANCH   2  22
HETATM   22  C   UNL     1      42.577 -17.126   3.800  1.00  0.00     0.195 C 
BRANCH  22  23
HETATM   23  O   UNL     1      41.237 -17.420   4.261  1.00  0.00    -0.371 OA
HETATM   24  H   UNL     1      41.065 -18.337   3.969  1.00  0.00     0.212 HD
ENDBRANCH  22  23
BRANCH  22  25
HETATM   25  C   UNL     1      43.323 -18.466   3.655  1.00  0.00    -0.010 A 
HETATM   26  C   UNL     1      44.263 -18.904   4.608  1.00  0.00     0.011 A 
HETATM   27  C   UNL     1      44.971 -20.095   4.426  1.00  0.00     0.001 A 
HETATM   28  C   UNL     1      44.753 -20.870   3.290  1.00  0.00     0.000 A 
HETATM   29  C   UNL     1      43.830 -20.456   2.334  1.00  0.00     0.001 A 
HETATM   30  C   UNL     1      43.126 -19.263   2.512  1.00  0.00     0.011 A 
ENDBRANCH  22  25
BRANCH  22  31
HETATM   31  C   UNL     1      43.149 -16.197   4.883  1.00  0.00    -0.010 A 
HETATM   32  C   UNL     1      43.497 -14.856   4.642  1.00  0.00     0.011 A 
HETATM   33  C   UNL     1      44.021 -14.056   5.663  1.00  0.00     0.001 A 
HETATM   34  C   UNL     1      44.202 -14.576   6.942  1.00  0.00     0.000 A 
HETATM   35  C   UNL     1      43.850 -15.894   7.209  1.00  0.00     0.001 A 
HETATM   36  C   UNL     1      43.323 -16.693   6.192  1.00  0.00     0.011 A 
ENDBRANCH  22  31
ENDBRANCH   2  22
TORSDOF 8
ENDMDL
MODEL 9
REMARK VINA RESULT:      -8.4      2.605     10.407
REMARK  8 active torsions:
REMARK  status: ('A' for Active; 'I' for Inactive)
REMARK    1  A    between atoms: N_3  and  C_4 
REMARK    2  A    between atoms: C_7  and  O_8 
REMARK    3  A    between atoms: C_13  and  C_14 
REMARK    4  A    between atoms: N_15  and  N_16 
REMARK       I    between atoms: N_16  and  C_17 
REMARK    5  A    between atoms: C_17  and  C_18 
REMARK    6  A    between atoms: C_18  and  O_19 
REMARK    7  A    between atoms: C_18  and  C_20 
REMARK    8  A    between atoms: C_18  and  C_26 
ROOT
HETATM    1  N   UNL     1      41.179 -16.384   1.991  1.00  0.00    -0.244 N 
HETATM    2  C   UNL     1      42.485 -16.636   2.403  1.00  0.00     0.282 C 
HETATM    3  O   UNL     1      43.498 -16.321   1.768  1.00  0.00    -0.268 OA
HETATM    4  H   UNL     1      40.419 -16.858   2.472  1.00  0.00     0.192 HD
ENDROOT
BRANCH   1   5
HETATM    5  N   UNL     1      40.780 -15.765   0.836  1.00  0.00    -0.184 NA
HETATM    6  C   UNL     1      40.626 -14.481   0.819  1.00  0.00     0.152 C 
BRANCH   6   7
HETATM    7  C   UNL     1      40.175 -13.858  -0.415  1.00  0.00     0.008 A 
HETATM    8  C   UNL     1      38.852 -13.701  -0.814  1.00  0.00     0.025 A 
HETATM    9  N   UNL     1      38.838 -13.141  -2.094  1.00  0.00    -0.319 N 
HETATM   10  C   UNL     1      37.616 -13.988  -0.022  1.00  0.00     0.070 C 
HETATM   11  C   UNL     1      40.152 -12.864  -2.458  1.00  0.00     0.014 A 
HETATM   12  C   UNL     1      40.581 -12.317  -3.777  1.00  0.00     0.068 C 
HETATM   13  C   UNL     1      40.976 -13.296  -1.438  1.00  0.00     0.040 A 
BRANCH   9  14
HETATM   14  C   UNL     1      37.683 -12.931  -2.905  1.00  0.00     0.039 A 
HETATM   15  C   UNL     1      37.232 -13.951  -3.755  1.00  0.00     0.033 A 
HETATM   16  C   UNL     1      36.114 -13.745  -4.569  1.00  0.00     0.039 A 
HETATM   17  C   UNL     1      35.452 -12.523  -4.526  1.00  0.00     0.065 A 
HETATM   18  C   UNL     1      35.887 -11.506  -3.684  1.00  0.00     0.039 A 
HETATM   19  C   UNL     1      37.005 -11.706  -2.872  1.00  0.00     0.033 A 
BRANCH  17  20
HETATM   20  O   UNL     1      34.359 -12.278  -5.304  1.00  0.00    -0.361 OA
HETATM   21  H   UNL     1      34.534 -11.489  -5.844  1.00  0.00     0.217 HD
ENDBRANCH  17  20
ENDBRANCH   9  14
ENDBRANCH   6   7
ENDBRANCH   1   5
BRANCH   2  22
HETATM   22  C   UNL     1      42.612 -17.428   3.754  1.00  0.00     0.195 C 
BRANCH  22  23
HETATM   23  O   UNL     1      41.266 -17.784   4.147  1.00  0.00    -0.371 OA
HETATM   24  H   UNL     1      41.071 -17.218   4.920  1.00  0.00     0.212 HD
ENDBRANCH  22  23
BRANCH  22  25
HETATM   25  C   UNL     1      43.393 -18.737   3.531  1.00  0.00    -0.010 A 
HETATM   26  C   UNL     1      43.211 -19.528   2.379  1.00  0.00     0.011 A 
HETATM   27  C   UNL     1      43.887 -20.742   2.226  1.00  0.00     0.001 A 
HETATM   28  C   UNL     1      44.755 -21.188   3.219  1.00  0.00     0.000 A 
HETATM   29  C   UNL     1      44.950 -20.424   4.366  1.00  0.00     0.001 A 
HETATM   30  C   UNL     1      44.271 -19.214   4.523  1.00  0.00     0.011 A 
ENDBRANCH  22  25
BRANCH  22  31
HETATM   31  C   UNL     1      43.129 -16.575   4.924  1.00  0.00    -0.010 A 
HETATM   32  C   UNL     1      43.550 -15.241   4.778  1.00  0.00     0.011 A 
HETATM   33  C   UNL     1      44.019 -14.512   5.875  1.00  0.00     0.001 A 
HETATM   34  C   UNL     1      44.072 -15.096   7.138  1.00  0.00     0.000 A 
HETATM   35  C   UNL     1      43.645 -16.409   7.312  1.00  0.00     0.001 A 
HETATM   36  C   UNL     1      43.174 -17.137   6.218  1.00  0.00     0.011 A 
ENDBRANCH  22  31
ENDBRANCH   2  22
TORSDOF 8
ENDMDL
MODEL 10
REMARK VINA RESULT:      -8.3      1.837      2.832
REMARK  8 active torsions:
REMARK  status: ('A' for Active; 'I' for Inactive)
REMARK    1  A    between atoms: N_3  and  C_4 
REMARK    2  A    between atoms: C_7  and  O_8 
REMARK    3  A    between atoms: C_13  and  C_14 
REMARK    4  A    between atoms: N_15  and  N_16 
REMARK       I    between atoms: N_16  and  C_17 
REMARK    5  A    between atoms: C_17  and  C_18 
REMARK    6  A    between atoms: C_18  and  O_19 
REMARK    7  A    between atoms: C_18  and  C_20 
REMARK    8  A    between atoms: C_18  and  C_26 
ROOT
HETATM    1  N   UNL     1      40.512 -15.321  -0.002  1.00  0.00    -0.244 N 
HETATM    2  C   UNL     1      40.611 -13.933  -0.050  1.00  0.00     0.282 C 
HETATM    3  O   UNL     1      41.236 -13.242   0.762  1.00  0.00    -0.268 OA
HETATM    4  H   UNL     1      39.814 -15.777  -0.583  1.00  0.00     0.192 HD
ENDROOT
BRANCH   1   5
HETATM    5  N   UNL     1      41.065 -16.159   0.930  1.00  0.00    -0.184 NA
HETATM    6  C   UNL     1      42.310 -16.496   0.829  1.00  0.00     0.152 C 
BRANCH   6   7
HETATM    7  C   UNL     1      42.858 -17.408   1.819  1.00  0.00     0.008 A 
HETATM    8  C   UNL     1      42.761 -17.270   3.199  1.00  0.00     0.025 A 
HETATM    9  N   UNL     1      43.490 -18.299   3.801  1.00  0.00    -0.319 N 
HETATM   10  C   UNL     1      41.964 -16.262   3.964  1.00  0.00     0.070 C 
HETATM   11  C   UNL     1      43.968 -19.134   2.795  1.00  0.00     0.014 A 
HETATM   12  C   UNL     1      44.848 -20.319   3.009  1.00  0.00     0.068 C 
HETATM   13  C   UNL     1      43.585 -18.600   1.581  1.00  0.00     0.040 A 
BRANCH   9  14
HETATM   14  C   UNL     1      43.740 -18.444   5.198  1.00  0.00     0.039 A 
HETATM   15  C   UNL     1      43.303 -19.595   5.870  1.00  0.00     0.033 A 
HETATM   16  C   UNL     1      43.525 -19.733   7.243  1.00  0.00     0.039 A 
HETATM   17  C   UNL     1      44.185 -18.724   7.936  1.00  0.00     0.065 A 
HETATM   18  C   UNL     1      44.626 -17.581   7.280  1.00  0.00     0.039 A 
HETATM   19  C   UNL     1      44.404 -17.436   5.908  1.00  0.00     0.033 A 
BRANCH  17  20
HETATM   20  O   UNL     1      44.420 -18.816   9.276  1.00  0.00    -0.361 OA
HETATM   21  H   UNL     1      45.171 -18.241   9.499  1.00  0.00     0.217 HD
ENDBRANCH  17  20
ENDBRANCH   9  14
ENDBRANCH   6   7
ENDBRANCH   1   5
BRANCH   2  22
HETATM   22  C   UNL     1      39.804 -13.251  -1.213  1.00  0.00     0.195 C 
BRANCH  22  23
HETATM   23  O   UNL     1      40.700 -12.294  -1.826  1.00  0.00    -0.371 OA
HETATM   24  H   UNL     1      40.115 -11.628  -2.238  1.00  0.00     0.212 HD
ENDBRANCH  22  23
BRANCH  22  25
HETATM   25  C   UNL     1      39.433 -14.294  -2.285  1.00  0.00    -0.010 A 
HETATM   26  C   UNL     1      38.120 -14.424  -2.778  1.00  0.00     0.011 A 
HETATM   27  C   UNL     1      37.795 -15.417  -3.706  1.00  0.00     0.001 A 
HETATM   28  C   UNL     1      38.775 -16.296  -4.160  1.00  0.00     0.000 A 
HETATM   29  C   UNL     1      40.079 -16.186  -3.687  1.00  0.00     0.001 A 
HETATM   30  C   UNL     1      40.404 -15.199  -2.754  1.00  0.00     0.011 A 
ENDBRANCH  22  25
BRANCH  22  31
HETATM   31  C   UNL     1      38.622 -12.397  -0.727  1.00  0.00    -0.010 A 
HETATM   32  C   UNL     1      38.318 -11.129  -1.255  1.00  0.00     0.011 A 
HETATM   33  C   UNL     1      37.234 -10.391  -0.771  1.00  0.00     0.001 A 
HETATM   34  C   UNL     1      36.430 -10.903   0.244  1.00  0.00     0.000 A 
HETATM   35  C   UNL     1      36.700 -12.161   0.772  1.00  0.00     0.001 A 
HETATM   36  C   UNL     1      37.779 -12.901   0.287  1.00  0.00     0.011 A 
ENDBRANCH  22  31
ENDBRANCH   2  22
TORSDOF 8
ENDMDL
