MODEL 1
REMARK VINA RESULT:      -7.9      0.000      0.000
REMARK  4 active torsions:
REMARK  status: ('A' for Active; 'I' for Inactive)
REMARK    1  A    between atoms: C_2  and  N_3 
REMARK    2  A    between atoms: C_11  and  C_12 
REMARK    3  A    between atoms: C_12  and  N_13 
REMARK    4  A    between atoms: C_16  and  N_17 
ROOT
HETATM    1  N   UNL     1      42.219 -17.318   2.481  1.00  0.00    -0.065 N 
HETATM    2  H   UNL     1      42.926 -16.770   1.964  1.00  0.00     0.280 HD
HETATM    3  C   UNL     1      42.456 -17.182   3.975  1.00  0.00     0.268 C 
HETATM    4  C   UNL     1      43.860 -17.671   4.474  1.00  0.00     0.214 C 
HETATM    5  C   UNL     1      43.972 -19.201   4.435  1.00  0.00     0.035 C 
HETATM    6  C   UNL     1      44.366 -19.787   3.081  1.00  0.00     0.004 C 
HETATM    7  C   UNL     1      43.770 -19.152   1.830  1.00  0.00     0.028 C 
HETATM    8  C   UNL     1      42.310 -18.738   1.934  1.00  0.00     0.235 C 
ENDROOT
BRANCH   1   9
HETATM    9  C   UNL     1      40.881 -16.675   2.054  1.00  0.00     0.276 C 
BRANCH   9  10
HETATM   10  C   UNL     1      40.979 -15.790   0.844  1.00  0.00     0.009 A 
HETATM   11  C   UNL     1      41.021 -14.395   0.947  1.00  0.00     0.136 A 
HETATM   12  N   UNL     1      41.083 -13.517  -0.068  1.00  0.00    -0.216 NA
HETATM   13 CL   UNL     1      40.857 -13.614   2.479  1.00  0.00    -0.062 Cl
HETATM   14  C   UNL     1      41.160 -14.104  -1.277  1.00  0.00     0.159 A 
HETATM   15  N   UNL     1      41.293 -13.488  -2.499  1.00  0.00    -0.248 N 
HETATM   16  C   UNL     1      41.133 -15.467  -1.538  1.00  0.00     0.031 A 
HETATM   17  N   UNL     1      41.257 -14.361  -3.532  1.00  0.00    -0.182 NA
HETATM   18  C   UNL     1      41.211 -15.557  -2.943  1.00  0.00     0.154 A 
HETATM   19  C   UNL     1      41.046 -16.348  -0.446  1.00  0.00     0.029 A 
BRANCH  15  20
HETATM   20  C   UNL     1      41.456 -12.057  -2.742  1.00  0.00     0.104 C 
HETATM   21  C   UNL     1      40.104 -11.352  -2.808  1.00  0.00     0.034 C 
HETATM   22  C   UNL     1      42.291 -11.782  -3.994  1.00  0.00     0.034 C 
ENDBRANCH  15  20
ENDBRANCH   9  10
ENDBRANCH   1   9
BRANCH   4  23
HETATM   23  N   UNL     1      44.159 -17.214   5.912  1.00  0.00    -0.065 N 
HETATM   24  H   UNL     1      44.685 -16.327   5.829  1.00  0.00     0.280 HD
HETATM   25  C   UNL     1      45.043 -18.105   6.782  1.00  0.00     0.235 C 
HETATM   26  C   UNL     1      44.131 -18.538   7.910  1.00  0.00     0.029 C 
HETATM   27  C   UNL     1      43.277 -17.311   8.152  1.00  0.00     0.029 C 
HETATM   28  C   UNL     1      42.938 -16.829   6.755  1.00  0.00     0.235 C 
ENDBRANCH   4  23
TORSDOF 4
ENDMDL
MODEL 2
REMARK VINA RESULT:      -7.8      2.171      4.174
REMARK  4 active torsions:
REMARK  status: ('A' for Active; 'I' for Inactive)
REMARK    1  A    between atoms: C_2  and  N_3 
REMARK    2  A    between atoms: C_11  and  C_12 
REMARK    3  A    between atoms: C_12  and  N_13 
REMARK    4  A    between atoms: C_16  and  N_17 
ROOT
HETATM    1  N   UNL     1      42.983 -16.472   5.244  1.00  0.00    -0.065 N 
HETATM    2  H   UNL     1      42.000 -16.789   5.210  1.00  0.00     0.280 HD
HETATM    3  C   UNL     1      43.823 -17.308   4.294  1.00  0.00     0.268 C 
HETATM    4  C   UNL     1      43.835 -18.846   4.594  1.00  0.00     0.214 C 
HETATM    5  C   UNL     1      44.650 -19.171   5.854  1.00  0.00     0.035 C 
HETATM    6  C   UNL     1      43.890 -19.027   7.171  1.00  0.00     0.004 C 
HETATM    7  C   UNL     1      42.924 -17.855   7.311  1.00  0.00     0.028 C 
HETATM    8  C   UNL     1      43.394 -16.539   6.709  1.00  0.00     0.235 C 
ENDROOT
BRANCH   1   9
HETATM    9  C   UNL     1      42.901 -14.998   4.788  1.00  0.00     0.276 C 
BRANCH   9  10
HETATM   10  C   UNL     1      41.995 -14.763   3.613  1.00  0.00     0.009 A 
HETATM   11  C   UNL     1      40.613 -14.604   3.764  1.00  0.00     0.136 A 
HETATM   12  N   UNL     1      39.716 -14.414   2.782  1.00  0.00    -0.216 NA
HETATM   13 CL   UNL     1      39.864 -14.774   5.310  1.00  0.00    -0.062 Cl
HETATM   14  C   UNL     1      40.274 -14.328   1.559  1.00  0.00     0.159 A 
HETATM   15  N   UNL     1      39.637 -14.082   0.366  1.00  0.00    -0.248 N 
HETATM   16  C   UNL     1      41.621 -14.462   1.253  1.00  0.00     0.031 A 
HETATM   17  N   UNL     1      40.474 -14.143  -0.695  1.00  0.00    -0.182 NA
HETATM   18  C   UNL     1      41.678 -14.323  -0.149  1.00  0.00     0.154 A 
HETATM   19  C   UNL     1      42.520 -14.680   2.310  1.00  0.00     0.029 A 
BRANCH  15  20
HETATM   20  C   UNL     1      38.220 -13.781   0.177  1.00  0.00     0.104 C 
HETATM   21  C   UNL     1      37.830 -13.871  -1.296  1.00  0.00     0.034 C 
HETATM   22  C   UNL     1      37.841 -12.424   0.774  1.00  0.00     0.034 C 
ENDBRANCH  15  20
ENDBRANCH   9  10
ENDBRANCH   1   9
BRANCH   4  23
HETATM   23  N   UNL     1      44.424 -19.662   3.430  1.00  0.00    -0.065 N 
HETATM   24  H   UNL     1      45.355 -19.255   3.234  1.00  0.00     0.280 HD
HETATM   25  C   UNL     1      43.699 -19.627   2.087  1.00  0.00     0.235 C 
HETATM   26  C   UNL     1      43.251 -21.057   1.873  1.00  0.00     0.029 C 
HETATM   27  C   UNL     1      44.392 -21.865   2.454  1.00  0.00     0.029 C 
HETATM   28  C   UNL     1      44.733 -21.132   3.737  1.00  0.00     0.235 C 
ENDBRANCH   4  23
TORSDOF 4
ENDMDL
MODEL 3
REMARK VINA RESULT:      -7.8      1.885      8.619
REMARK  4 active torsions:
REMARK  status: ('A' for Active; 'I' for Inactive)
REMARK    1  A    between atoms: C_2  and  N_3 
REMARK    2  A    between atoms: C_11  and  C_12 
REMARK    3  A    between atoms: C_12  and  N_13 
REMARK    4  A    between atoms: C_16  and  N_17 
ROOT
HETATM    1  N   UNL     1      40.818 -14.642   0.957  1.00  0.00    -0.065 N 
HETATM    2  H   UNL     1      41.786 -15.001   0.918  1.00  0.00     0.280 HD
HETATM    3  C   UNL     1      40.176 -14.751  -0.415  1.00  0.00     0.268 C 
HETATM    4  C   UNL     1      40.905 -13.961  -1.556  1.00  0.00     0.214 C 
HETATM    5  C   UNL     1      40.708 -12.446  -1.410  1.00  0.00     0.035 C 
HETATM    6  C   UNL     1      41.680 -11.756  -0.456  1.00  0.00     0.004 C 
HETATM    7  C   UNL     1      42.053 -12.485   0.830  1.00  0.00     0.028 C 
HETATM    8  C   UNL     1      40.918 -13.229   1.518  1.00  0.00     0.235 C 
ENDROOT
BRANCH   1   9
HETATM    9  C   UNL     1      40.131 -15.568   1.985  1.00  0.00     0.276 C 
BRANCH   9  10
HETATM   10  C   UNL     1      41.065 -16.509   2.691  1.00  0.00     0.009 A 
HETATM   11  C   UNL     1      41.255 -16.465   4.077  1.00  0.00     0.136 A 
HETATM   12  N   UNL     1      42.080 -17.241   4.798  1.00  0.00    -0.216 NA
HETATM   13 CL   UNL     1      40.494 -15.247   5.037  1.00  0.00    -0.062 Cl
HETATM   14  C   UNL     1      42.724 -18.166   4.061  1.00  0.00     0.159 A 
HETATM   15  N   UNL     1      43.586 -19.139   4.507  1.00  0.00    -0.248 N 
HETATM   16  C   UNL     1      42.637 -18.334   2.686  1.00  0.00     0.031 A 
HETATM   17  N   UNL     1      44.130 -19.858   3.499  1.00  0.00    -0.182 NA
HETATM   18  C   UNL     1      43.516 -19.401   2.407  1.00  0.00     0.154 A 
HETATM   19  C   UNL     1      41.777 -17.486   1.969  1.00  0.00     0.029 A 
BRANCH  15  20
HETATM   20  C   UNL     1      43.931 -19.429   5.897  1.00  0.00     0.104 C 
HETATM   21  C   UNL     1      45.045 -18.509   6.390  1.00  0.00     0.034 C 
HETATM   22  C   UNL     1      44.292 -20.902   6.100  1.00  0.00     0.034 C 
ENDBRANCH  15  20
ENDBRANCH   9  10
ENDBRANCH   1   9
BRANCH   4  23
HETATM   23  N   UNL     1      40.408 -14.367  -2.955  1.00  0.00    -0.065 N 
HETATM   24  H   UNL     1      41.121 -14.028  -3.624  1.00  0.00     0.280 HD
HETATM   25  C   UNL     1      39.097 -13.766  -3.456  1.00  0.00     0.235 C 
HETATM   26  C   UNL     1      38.179 -14.961  -3.607  1.00  0.00     0.029 C 
HETATM   27  C   UNL     1      39.112 -16.052  -4.089  1.00  0.00     0.029 C 
HETATM   28  C   UNL     1      40.348 -15.874  -3.228  1.00  0.00     0.235 C 
ENDBRANCH   4  23
TORSDOF 4
ENDMDL
MODEL 4
REMARK VINA RESULT:      -7.7      1.913      4.192
REMARK  4 active torsions:
REMARK  status: ('A' for Active; 'I' for Inactive)
REMARK    1  A    between atoms: C_2  and  N_3 
REMARK    2  A    between atoms: C_11  and  C_12 
REMARK    3  A    between atoms: C_12  and  N_13 
REMARK    4  A    between atoms: C_16  and  N_17 
ROOT
HETATM    1  N   UNL     1      42.634 -16.260   6.042  1.00  0.00    -0.065 N 
HETATM    2  H   UNL     1      41.773 -16.815   6.178  1.00  0.00     0.280 HD
HETATM    3  C   UNL     1      43.438 -16.838   4.890  1.00  0.00     0.268 C 
HETATM    4  C   UNL     1      43.886 -18.330   5.073  1.00  0.00     0.214 C 
HETATM    5  C   UNL     1      44.997 -18.462   6.123  1.00  0.00     0.035 C 
HETATM    6  C   UNL     1      44.514 -18.540   7.570  1.00  0.00     0.004 C 
HETATM    7  C   UNL     1      43.343 -17.654   7.978  1.00  0.00     0.028 C 
HETATM    8  C   UNL     1      43.344 -16.250   7.390  1.00  0.00     0.235 C 
ENDROOT
BRANCH   1   9
HETATM    9  C   UNL     1      42.104 -14.846   5.716  1.00  0.00     0.276 C 
BRANCH   9  10
HETATM   10  C   UNL     1      41.643 -14.671   4.298  1.00  0.00     0.009 A 
HETATM   11  C   UNL     1      42.507 -14.239   3.285  1.00  0.00     0.136 A 
HETATM   12  N   UNL     1      42.191 -14.028   1.997  1.00  0.00    -0.216 NA
HETATM   13 CL   UNL     1      44.135 -13.786   3.641  1.00  0.00    -0.062 Cl
HETATM   14  C   UNL     1      40.910 -14.327   1.706  1.00  0.00     0.159 A 
HETATM   15  N   UNL     1      40.298 -14.274   0.476  1.00  0.00    -0.248 N 
HETATM   16  C   UNL     1      39.940 -14.765   2.596  1.00  0.00     0.031 A 
HETATM   17  N   UNL     1      38.977 -14.558   0.537  1.00  0.00    -0.182 NA
HETATM   18  C   UNL     1      38.778 -14.902   1.810  1.00  0.00     0.154 A 
HETATM   19  C   UNL     1      40.311 -14.952   3.939  1.00  0.00     0.029 A 
BRANCH  15  20
HETATM   20  C   UNL     1      40.930 -13.954  -0.802  1.00  0.00     0.104 C 
HETATM   21  C   UNL     1      40.248 -12.763  -1.470  1.00  0.00     0.034 C 
HETATM   22  C   UNL     1      40.979 -15.166  -1.734  1.00  0.00     0.034 C 
ENDBRANCH  15  20
ENDBRANCH   9  10
ENDBRANCH   1   9
BRANCH   4  23
HETATM   23  N   UNL     1      44.402 -18.948   3.762  1.00  0.00    -0.065 N 
HETATM   24  H   UNL     1      45.372 -18.608   3.645  1.00  0.00     0.280 HD
HETATM   25  C   UNL     1      43.702 -18.564   2.460  1.00  0.00     0.235 C 
HETATM   26  C   UNL     1      43.111 -19.867   1.963  1.00  0.00     0.029 C 
HETATM   27  C   UNL     1      44.155 -20.890   2.357  1.00  0.00     0.029 C 
HETATM   28  C   UNL     1      44.554 -20.473   3.760  1.00  0.00     0.235 C 
ENDBRANCH   4  23
TORSDOF 4
ENDMDL
MODEL 5
REMARK VINA RESULT:      -7.5      2.096      8.581
REMARK  4 active torsions:
REMARK  status: ('A' for Active; 'I' for Inactive)
REMARK    1  A    between atoms: C_2  and  N_3 
REMARK    2  A    between atoms: C_11  and  C_12 
REMARK    3  A    between atoms: C_12  and  N_13 
REMARK    4  A    between atoms: C_16  and  N_17 
ROOT
HETATM    1  N   UNL     1      41.263 -15.090   1.726  1.00  0.00    -0.065 N 
HETATM    2  H   UNL     1      42.266 -15.213   1.940  1.00  0.00     0.280 HD
HETATM    3  C   UNL     1      41.077 -14.916   0.228  1.00  0.00     0.268 C 
HETATM    4  C   UNL     1      41.824 -13.687  -0.397  1.00  0.00     0.214 C 
HETATM    5  C   UNL     1      41.163 -12.360   0.001  1.00  0.00     0.035 C 
HETATM    6  C   UNL     1      41.596 -11.801   1.354  1.00  0.00     0.004 C 
HETATM    7  C   UNL     1      41.802 -12.788   2.499  1.00  0.00     0.028 C 
HETATM    8  C   UNL     1      40.791 -13.921   2.581  1.00  0.00     0.235 C 
ENDROOT
BRANCH   1   9
HETATM    9  C   UNL     1      40.624 -16.403   2.231  1.00  0.00     0.276 C 
BRANCH   9  10
HETATM   10  C   UNL     1      41.613 -17.431   2.702  1.00  0.00     0.009 A 
HETATM   11  C   UNL     1      41.999 -17.529   4.043  1.00  0.00     0.136 A 
HETATM   12  N   UNL     1      42.888 -18.391   4.561  1.00  0.00    -0.216 NA
HETATM   13 CL   UNL     1      41.428 -16.395   5.215  1.00  0.00    -0.062 Cl
HETATM   14  C   UNL     1      43.386 -19.254   3.654  1.00  0.00     0.159 A 
HETATM   15  N   UNL     1      44.266 -20.287   3.876  1.00  0.00    -0.248 N 
HETATM   16  C   UNL     1      43.099 -19.283   2.296  1.00  0.00     0.031 A 
HETATM   17  N   UNL     1      44.634 -20.914   2.737  1.00  0.00    -0.182 NA
HETATM   18  C   UNL     1      43.889 -20.337   1.793  1.00  0.00     0.154 A 
HETATM   19  C   UNL     1      42.178 -18.347   1.795  1.00  0.00     0.029 A 
BRANCH  15  20
HETATM   20  C   UNL     1      44.794 -20.721   5.168  1.00  0.00     0.104 C 
HETATM   21  C   UNL     1      45.133 -22.209   5.150  1.00  0.00     0.034 C 
HETATM   22  C   UNL     1      43.844 -20.378   6.317  1.00  0.00     0.034 C 
ENDBRANCH  15  20
ENDBRANCH   9  10
ENDBRANCH   1   9
BRANCH   4  23
HETATM   23  N   UNL     1      41.866 -13.750  -1.933  1.00  0.00    -0.065 N 
HETATM   24  H   UNL     1      42.119 -14.724  -2.175  1.00  0.00     0.280 HD
HETATM   25  C   UNL     1      42.898 -12.892  -2.662  1.00  0.00     0.235 C 
HETATM   26  C   UNL     1      42.064 -11.924  -3.473  1.00  0.00     0.029 C 
HETATM   27  C   UNL     1      40.877 -12.763  -3.897  1.00  0.00     0.029 C 
HETATM   28  C   UNL     1      40.524 -13.542  -2.644  1.00  0.00     0.235 C 
ENDBRANCH   4  23
TORSDOF 4
ENDMDL
MODEL 6
REMARK VINA RESULT:      -7.2      2.054      8.985
REMARK  4 active torsions:
REMARK  status: ('A' for Active; 'I' for Inactive)
REMARK    1  A    between atoms: C_2  and  N_3 
REMARK    2  A    between atoms: C_11  and  C_12 
REMARK    3  A    between atoms: C_12  and  N_13 
REMARK    4  A    between atoms: C_16  and  N_17 
ROOT
HETATM    1  N   UNL     1      41.414 -15.541   1.413  1.00  0.00    -0.065 N 
HETATM    2  H   UNL     1      41.604 -14.929   2.224  1.00  0.00     0.280 HD
HETATM    3  C   UNL     1      41.587 -14.754   0.125  1.00  0.00     0.268 C 
HETATM    4  C   UNL     1      40.650 -13.505  -0.023  1.00  0.00     0.214 C 
HETATM    5  C   UNL     1      39.195 -13.918  -0.284  1.00  0.00     0.035 C 
HETATM    6  C   UNL     1      38.381 -14.248   0.966  1.00  0.00     0.004 C 
HETATM    7  C   UNL     1      39.077 -15.012   2.087  1.00  0.00     0.028 C 
HETATM    8  C   UNL     1      40.022 -16.118   1.641  1.00  0.00     0.235 C 
ENDROOT
BRANCH   1   9
HETATM    9  C   UNL     1      42.474 -16.656   1.548  1.00  0.00     0.276 C 
BRANCH   9  10
HETATM   10  C   UNL     1      42.716 -17.112   2.958  1.00  0.00     0.009 A 
HETATM   11  C   UNL     1      43.466 -18.258   3.248  1.00  0.00     0.136 A 
HETATM   12  N   UNL     1      43.719 -18.763   4.466  1.00  0.00    -0.216 NA
HETATM   13 CL   UNL     1      44.067 -19.268   1.983  1.00  0.00    -0.062 Cl
HETATM   14  C   UNL     1      43.215 -18.018   5.469  1.00  0.00     0.159 A 
HETATM   15  N   UNL     1      43.351 -18.232   6.820  1.00  0.00    -0.248 N 
HETATM   16  C   UNL     1      42.458 -16.862   5.340  1.00  0.00     0.031 A 
HETATM   17  N   UNL     1      42.651 -17.345   7.563  1.00  0.00    -0.182 NA
HETATM   18  C   UNL     1      42.156 -16.491   6.666  1.00  0.00     0.154 A 
HETATM   19  C   UNL     1      42.200 -16.382   4.044  1.00  0.00     0.029 A 
BRANCH  15  20
HETATM   20  C   UNL     1      44.141 -19.280   7.463  1.00  0.00     0.104 C 
HETATM   21  C   UNL     1      43.455 -20.638   7.342  1.00  0.00     0.034 C 
HETATM   22  C   UNL     1      44.458 -18.941   8.921  1.00  0.00     0.034 C 
ENDBRANCH  15  20
ENDBRANCH   9  10
ENDBRANCH   1   9
BRANCH   4  23
HETATM   23  N   UNL     1      41.089 -12.580  -1.171  1.00  0.00    -0.065 N 
HETATM   24  H   UNL     1      41.049 -11.617  -0.796  1.00  0.00     0.280 HD
HETATM   25  C   UNL     1      40.228 -12.537  -2.431  1.00  0.00     0.235 C 
HETATM   26  C   UNL     1      41.138 -13.072  -3.517  1.00  0.00     0.029 C 
HETATM   27  C   UNL     1      42.495 -12.525  -3.127  1.00  0.00     0.029 C 
HETATM   28  C   UNL     1      42.546 -12.729  -1.625  1.00  0.00     0.235 C 
ENDBRANCH   4  23
TORSDOF 4
ENDMDL
MODEL 7
REMARK VINA RESULT:      -7.2      1.911      3.802
REMARK  4 active torsions:
REMARK  status: ('A' for Active; 'I' for Inactive)
REMARK    1  A    between atoms: C_2  and  N_3 
REMARK    2  A    between atoms: C_11  and  C_12 
REMARK    3  A    between atoms: C_12  and  N_13 
REMARK    4  A    between atoms: C_16  and  N_17 
ROOT
HETATM    1  N   UNL     1      40.985 -14.656   3.984  1.00  0.00    -0.065 N 
HETATM    2  H   UNL     1      40.163 -15.233   3.740  1.00  0.00     0.280 HD
HETATM    3  C   UNL     1      42.253 -15.343   3.507  1.00  0.00     0.268 C 
HETATM    4  C   UNL     1      42.507 -16.767   4.112  1.00  0.00     0.214 C 
HETATM    5  C   UNL     1      42.916 -16.689   5.589  1.00  0.00     0.035 C 
HETATM    6  C   UNL     1      41.755 -16.592   6.577  1.00  0.00     0.004 C 
HETATM    7  C   UNL     1      40.562 -15.724   6.191  1.00  0.00     0.028 C 
HETATM    8  C   UNL     1      40.899 -14.418   5.486  1.00  0.00     0.235 C 
ENDROOT
BRANCH   1   9
HETATM    9  C   UNL     1      40.733 -13.333   3.227  1.00  0.00     0.276 C 
BRANCH   9  10
HETATM   10  C   UNL     1      40.840 -13.445   1.733  1.00  0.00     0.009 A 
HETATM   11  C   UNL     1      39.943 -14.212   0.981  1.00  0.00     0.136 A 
HETATM   12  N   UNL     1      39.965 -14.397  -0.349  1.00  0.00    -0.216 NA
HETATM   13 CL   UNL     1      38.721 -15.158   1.752  1.00  0.00    -0.062 Cl
HETATM   14  C   UNL     1      40.944 -13.708  -0.968  1.00  0.00     0.159 A 
HETATM   15  N   UNL     1      41.194 -13.640  -2.318  1.00  0.00    -0.248 N 
HETATM   16  C   UNL     1      41.902 -12.908  -0.362  1.00  0.00     0.031 A 
HETATM   17  N   UNL     1      42.306 -12.927  -2.609  1.00  0.00    -0.182 NA
HETATM   18  C   UNL     1      42.700 -12.446  -1.428  1.00  0.00     0.154 A 
HETATM   19  C   UNL     1      41.852 -12.760   1.035  1.00  0.00     0.029 A 
BRANCH  15  20
HETATM   20  C   UNL     1      40.399 -14.244  -3.385  1.00  0.00     0.104 C 
HETATM   21  C   UNL     1      38.988 -13.662  -3.417  1.00  0.00     0.034 C 
HETATM   22  C   UNL     1      40.371 -15.770  -3.281  1.00  0.00     0.034 C 
ENDBRANCH  15  20
ENDBRANCH   9  10
ENDBRANCH   1   9
BRANCH   4  23
HETATM   23  N   UNL     1      43.610 -17.532   3.359  1.00  0.00    -0.065 N 
HETATM   24  H   UNL     1      44.477 -17.400   3.906  1.00  0.00     0.280 HD
HETATM   25  C   UNL     1      43.972 -17.070   1.949  1.00  0.00     0.235 C 
HETATM   26  C   UNL     1      43.601 -18.246   1.071  1.00  0.00     0.029 C 
HETATM   27  C   UNL     1      43.952 -19.442   1.931  1.00  0.00     0.029 C 
HETATM   28  C   UNL     1      43.446 -19.055   3.307  1.00  0.00     0.235 C 
ENDBRANCH   4  23
TORSDOF 4
ENDMDL
MODEL 8
REMARK VINA RESULT:      -7.2      2.107      3.089
REMARK  4 active torsions:
REMARK  status: ('A' for Active; 'I' for Inactive)
REMARK    1  A    between atoms: C_2  and  N_3 
REMARK    2  A    between atoms: C_11  and  C_12 
REMARK    3  A    between atoms: C_12  and  N_13 
REMARK    4  A    between atoms: C_16  and  N_17 
ROOT
HETATM    1  N   UNL     1      41.892 -17.473   2.574  1.00  0.00    -0.065 N 
HETATM    2  H   UNL     1      42.465 -16.804   2.033  1.00  0.00     0.280 HD
HETATM    3  C   UNL     1      42.222 -17.350   4.052  1.00  0.00     0.268 C 
HETATM    4  C   UNL     1      43.719 -17.631   4.426  1.00  0.00     0.214 C 
HETATM    5  C   UNL     1      44.059 -19.123   4.311  1.00  0.00     0.035 C 
HETATM    6  C   UNL     1      44.431 -19.596   2.907  1.00  0.00     0.004 C 
HETATM    7  C   UNL     1      43.649 -19.020   1.732  1.00  0.00     0.028 C 
HETATM    8  C   UNL     1      42.155 -18.842   1.960  1.00  0.00     0.235 C 
ENDROOT
BRANCH   1   9
HETATM    9  C   UNL     1      40.443 -17.031   2.274  1.00  0.00     0.276 C 
BRANCH   9  10
HETATM   10  C   UNL     1      40.290 -15.566   1.981  1.00  0.00     0.009 A 
HETATM   11  C   UNL     1      40.627 -15.020   0.737  1.00  0.00     0.136 A 
HETATM   12  N   UNL     1      40.552 -13.727   0.382  1.00  0.00    -0.216 NA
HETATM   13 CL   UNL     1      41.337 -15.997  -0.498  1.00  0.00    -0.062 Cl
HETATM   14  C   UNL     1      40.048 -12.936   1.349  1.00  0.00     0.159 A 
HETATM   15  N   UNL     1      39.792 -11.587   1.278  1.00  0.00    -0.248 N 
HETATM   16  C   UNL     1      39.668 -13.330   2.625  1.00  0.00     0.031 A 
HETATM   17  N   UNL     1      39.364 -11.074   2.454  1.00  0.00    -0.182 NA
HETATM   18  C   UNL     1      39.243 -12.139   3.248  1.00  0.00     0.154 A 
HETATM   19  C   UNL     1      39.784 -14.690   2.959  1.00  0.00     0.029 A 
BRANCH  15  20
HETATM   20  C   UNL     1      39.942 -10.731   0.104  1.00  0.00     0.104 C 
HETATM   21  C   UNL     1      41.073  -9.724   0.299  1.00  0.00     0.034 C 
HETATM   22  C   UNL     1      38.632 -10.034  -0.265  1.00  0.00     0.034 C 
ENDBRANCH  15  20
ENDBRANCH   9  10
ENDBRANCH   1   9
BRANCH   4  23
HETATM   23  N   UNL     1      44.056 -17.181   5.858  1.00  0.00    -0.065 N 
HETATM   24  H   UNL     1      44.586 -16.297   5.765  1.00  0.00     0.280 HD
HETATM   25  C   UNL     1      44.955 -18.080   6.702  1.00  0.00     0.235 C 
HETATM   26  C   UNL     1      44.068 -18.512   7.851  1.00  0.00     0.029 C 
HETATM   27  C   UNL     1      43.229 -17.280   8.119  1.00  0.00     0.029 C 
HETATM   28  C   UNL     1      42.859 -16.791   6.732  1.00  0.00     0.235 C 
ENDBRANCH   4  23
TORSDOF 4
ENDMDL
MODEL 9
REMARK VINA RESULT:      -7.2      1.995      3.273
REMARK  4 active torsions:
REMARK  status: ('A' for Active; 'I' for Inactive)
REMARK    1  A    between atoms: C_2  and  N_3 
REMARK    2  A    between atoms: C_11  and  C_12 
REMARK    3  A    between atoms: C_12  and  N_13 
REMARK    4  A    between atoms: C_16  and  N_17 
ROOT
HETATM    1  N   UNL     1      41.591 -15.184   3.286  1.00  0.00    -0.065 N 
HETATM    2  H   UNL     1      40.652 -15.460   2.955  1.00  0.00     0.280 HD
HETATM    3  C   UNL     1      42.444 -16.423   3.499  1.00  0.00     0.268 C 
HETATM    4  C   UNL     1      41.880 -17.447   4.544  1.00  0.00     0.214 C 
HETATM    5  C   UNL     1      42.007 -16.919   5.979  1.00  0.00     0.035 C 
HETATM    6  C   UNL     1      40.878 -15.997   6.432  1.00  0.00     0.004 C 
HETATM    7  C   UNL     1      40.329 -14.995   5.422  1.00  0.00     0.028 C 
HETATM    8  C   UNL     1      41.364 -14.329   4.527  1.00  0.00     0.235 C 
ENDROOT
BRANCH   1   9
HETATM    9  C   UNL     1      42.135 -14.307   2.136  1.00  0.00     0.276 C 
BRANCH   9  10
HETATM   10  C   UNL     1      41.297 -14.331   0.891  1.00  0.00     0.009 A 
HETATM   11  C   UNL     1      40.115 -13.589   0.778  1.00  0.00     0.136 A 
HETATM   12  N   UNL     1      39.285 -13.558  -0.277  1.00  0.00    -0.216 NA
HETATM   13 CL   UNL     1      39.507 -12.682   2.116  1.00  0.00    -0.062 Cl
HETATM   14  C   UNL     1      39.715 -14.300  -1.316  1.00  0.00     0.159 A 
HETATM   15  N   UNL     1      39.125 -14.430  -2.551  1.00  0.00    -0.248 N 
HETATM   16  C   UNL     1      40.860 -15.083  -1.355  1.00  0.00     0.031 A 
HETATM   17  N   UNL     1      39.765 -15.319  -3.345  1.00  0.00    -0.182 NA
HETATM   18  C   UNL     1      40.839 -15.671  -2.637  1.00  0.00     0.154 A 
HETATM   19  C   UNL     1      41.689 -15.101  -0.220  1.00  0.00     0.029 A 
BRANCH  15  20
HETATM   20  C   UNL     1      37.938 -13.726  -3.030  1.00  0.00     0.104 C 
HETATM   21  C   UNL     1      37.151 -14.584  -4.018  1.00  0.00     0.034 C 
HETATM   22  C   UNL     1      38.287 -12.363  -3.629  1.00  0.00     0.034 C 
ENDBRANCH  15  20
ENDBRANCH   9  10
ENDBRANCH   1   9
BRANCH   4  23
HETATM   23  N   UNL     1      42.601 -18.805   4.476  1.00  0.00    -0.065 N 
HETATM   24  H   UNL     1      41.858 -19.524   4.437  1.00  0.00     0.280 HD
HETATM   25  C   UNL     1      43.471 -19.217   5.662  1.00  0.00     0.235 C 
HETATM   26  C   UNL     1      44.868 -19.295   5.082  1.00  0.00     0.029 C 
HETATM   27  C   UNL     1      44.632 -19.834   3.687  1.00  0.00     0.029 C 
HETATM   28  C   UNL     1      43.418 -19.062   3.205  1.00  0.00     0.235 C 
ENDBRANCH   4  23
TORSDOF 4
ENDMDL
MODEL 10
REMARK VINA RESULT:      -7.1      3.286      5.050
REMARK  4 active torsions:
REMARK  status: ('A' for Active; 'I' for Inactive)
REMARK    1  A    between atoms: C_2  and  N_3 
REMARK    2  A    between atoms: C_11  and  C_12 
REMARK    3  A    between atoms: C_12  and  N_13 
REMARK    4  A    between atoms: C_16  and  N_17 
ROOT
HETATM    1  N   UNL     1      43.128 -16.153   5.281  1.00  0.00    -0.065 N 
HETATM    2  H   UNL     1      42.133 -16.356   5.093  1.00  0.00     0.280 HD
HETATM    3  C   UNL     1      44.005 -17.072   4.447  1.00  0.00     0.268 C 
HETATM    4  C   UNL     1      43.799 -18.604   4.707  1.00  0.00     0.214 C 
HETATM    5  C   UNL     1      44.373 -19.029   6.065  1.00  0.00     0.035 C 
HETATM    6  C   UNL     1      43.444 -18.810   7.257  1.00  0.00     0.004 C 
HETATM    7  C   UNL     1      42.604 -17.538   7.281  1.00  0.00     0.028 C 
HETATM    8  C   UNL     1      43.303 -16.279   6.789  1.00  0.00     0.235 C 
ENDROOT
BRANCH   1   9
HETATM    9  C   UNL     1      43.282 -14.676   4.855  1.00  0.00     0.276 C 
BRANCH   9  10
HETATM   10  C   UNL     1      42.087 -14.111   4.142  1.00  0.00     0.009 A 
HETATM   11  C   UNL     1      41.757 -14.486   2.835  1.00  0.00     0.136 A 
HETATM   12  N   UNL     1      40.730 -14.025   2.103  1.00  0.00    -0.216 NA
HETATM   13 CL   UNL     1      42.776 -15.550   1.934  1.00  0.00    -0.062 Cl
HETATM   14  C   UNL     1      39.949 -13.153   2.769  1.00  0.00     0.159 A 
HETATM   15  N   UNL     1      38.797 -12.551   2.322  1.00  0.00    -0.248 N 
HETATM   16  C   UNL     1      40.144 -12.688   4.063  1.00  0.00     0.031 A 
HETATM   17  N   UNL     1      38.294 -11.660   3.206  1.00  0.00    -0.182 NA
HETATM   18  C   UNL     1      39.083 -11.784   4.275  1.00  0.00     0.154 A 
HETATM   19  C   UNL     1      41.245 -13.183   4.784  1.00  0.00     0.029 A 
BRANCH  15  20
HETATM   20  C   UNL     1      38.126 -12.789   1.045  1.00  0.00     0.104 C 
HETATM   21  C   UNL     1      37.046 -11.742   0.789  1.00  0.00     0.034 C 
HETATM   22  C   UNL     1      37.563 -14.208   0.953  1.00  0.00     0.034 C 
ENDBRANCH  15  20
ENDBRANCH   9  10
ENDBRANCH   1   9
BRANCH   4  23
HETATM   23  N   UNL     1      44.463 -19.473   3.624  1.00  0.00    -0.065 N 
HETATM   24  H   UNL     1      45.433 -19.125   3.530  1.00  0.00     0.280 HD
HETATM   25  C   UNL     1      43.896 -19.415   2.207  1.00  0.00     0.235 C 
HETATM   26  C   UNL     1      43.387 -20.819   1.957  1.00  0.00     0.029 C 
HETATM   27  C   UNL     1      44.404 -21.685   2.671  1.00  0.00     0.029 C 
HETATM   28  C   UNL     1      44.645 -20.953   3.977  1.00  0.00     0.235 C 
ENDBRANCH   4  23
TORSDOF 4
ENDMDL
