MODEL 1
REMARK VINA RESULT:      -9.5      0.000      0.000
REMARK  2 active torsions:
REMARK  status: ('A' for Active; 'I' for Inactive)
REMARK    1  A    between atoms: O_2  and  C_3 
REMARK    2  A    between atoms: C_5  and  N_6 
ROOT
HETATM    1  N   UNL     1      40.028 -15.613   2.101  1.00  0.00    -0.252 N 
HETATM    2  C   UNL     1      40.309 -15.191   3.382  1.00  0.00     0.239 C 
HETATM    3  O   UNL     1      39.985 -14.181   3.985  1.00  0.00    -0.272 OA
HETATM    4  C   UNL     1      41.222 -16.179   4.026  1.00  0.00     0.145 C 
HETATM    5  C   UNL     1      41.041 -17.433   3.194  1.00  0.00     0.126 C 
HETATM    6  C   UNL     1      40.562 -16.867   1.878  1.00  0.00     0.238 C 
HETATM    7  O   UNL     1      40.709 -17.473   0.829  1.00  0.00    -0.272 OA
HETATM    8  C   UNL     1      42.700 -15.767   3.925  1.00  0.00     0.250 A 
HETATM    9  C   UNL     1      42.988 -14.403   3.189  1.00  0.00     0.264 A 
HETATM   10  O   UNL     1      42.753 -14.161   2.018  1.00  0.00    -0.270 OA
HETATM   11  N   UNL     1      43.616 -13.560   4.085  1.00  0.00    -0.324 N 
HETATM   12  C   UNL     1      43.806 -14.175   5.310  1.00  0.00     0.044 A 
HETATM   13  C   UNL     1      43.305 -15.480   5.288  1.00  0.00     0.015 A 
HETATM   14  C   UNL     1      44.409 -13.625   6.420  1.00  0.00     0.030 A 
HETATM   15  C   UNL     1      44.515 -14.430   7.554  1.00  0.00     0.002 A 
HETATM   16  C   UNL     1      44.022 -15.748   7.550  1.00  0.00     0.001 A 
HETATM   17  C   UNL     1      43.410 -16.285   6.412  1.00  0.00     0.012 A 
HETATM   18  N   UNL     1      43.397 -16.979   3.267  1.00  0.00    -0.043 N 
HETATM   19  H   UNL     1      44.210 -17.237   3.847  1.00  0.00     0.282 HD
HETATM   20  C   UNL     1      42.401 -18.114   3.229  1.00  0.00     0.204 C 
HETATM   21  C   UNL     1      43.904 -16.854   1.846  1.00  0.00     0.237 C 
HETATM   22  C   UNL     1      44.031 -18.304   1.426  1.00  0.00     0.030 C 
HETATM   23  C   UNL     1      42.862 -19.020   2.095  1.00  0.00     0.036 C 
HETATM   24  H   UNL     1      43.890 -12.610   3.858  1.00  0.00     0.169 HD
ENDROOT
BRANCH   1  25
HETATM   25  C   UNL     1      39.406 -14.801   1.096  1.00  0.00     0.048 A 
HETATM   26  C   UNL     1      40.107 -14.377  -0.045  1.00  0.00     0.066 A 
HETATM   27  C   UNL     1      39.494 -13.644  -1.070  1.00  0.00     0.070 A 
HETATM   28  C   UNL     1      38.156 -13.287  -0.954  1.00  0.00     0.037 A 
HETATM   29  C   UNL     1      37.442 -13.670   0.178  1.00  0.00     0.005 A 
HETATM   30  C   UNL     1      38.060 -14.418   1.189  1.00  0.00     0.030 A 
BRANCH  27  31
HETATM   31  O   UNL     1      40.316 -13.341  -2.121  1.00  0.00    -0.356 OA
HETATM   32  C   UNL     1      40.752 -14.429  -2.926  1.00  0.00     0.210 C 
ENDBRANCH  27  31
ENDBRANCH   1  25
TORSDOF 2
ENDMDL
MODEL 2
REMARK VINA RESULT:      -9.2      3.248      6.467
REMARK  2 active torsions:
REMARK  status: ('A' for Active; 'I' for Inactive)
REMARK    1  A    between atoms: O_2  and  C_3 
REMARK    2  A    between atoms: C_5  and  N_6 
ROOT
HETATM    1  N   UNL     1      43.743 -17.815   4.741  1.00  0.00    -0.252 N 
HETATM    2  C   UNL     1      43.547 -16.600   5.358  1.00  0.00     0.239 C 
HETATM    3  O   UNL     1      43.580 -16.280   6.535  1.00  0.00    -0.272 OA
HETATM    4  C   UNL     1      43.176 -15.589   4.325  1.00  0.00     0.145 C 
HETATM    5  C   UNL     1      43.656 -16.208   3.027  1.00  0.00     0.126 C 
HETATM    6  C   UNL     1      43.670 -17.679   3.369  1.00  0.00     0.238 C 
HETATM    7  O   UNL     1      43.578 -18.537   2.507  1.00  0.00    -0.272 OA
HETATM    8  C   UNL     1      41.655 -15.398   4.210  1.00  0.00     0.250 A 
HETATM    9  C   UNL     1      40.773 -16.268   5.185  1.00  0.00     0.264 A 
HETATM   10  O   UNL     1      40.704 -17.485   5.189  1.00  0.00    -0.270 OA
HETATM   11  N   UNL     1      40.043 -15.408   5.981  1.00  0.00    -0.324 N 
HETATM   12  C   UNL     1      40.296 -14.086   5.663  1.00  0.00     0.044 A 
HETATM   13  C   UNL     1      41.225 -14.000   4.620  1.00  0.00     0.015 A 
HETATM   14  C   UNL     1      39.731 -12.976   6.252  1.00  0.00     0.030 A 
HETATM   15  C   UNL     1      40.116 -11.728   5.763  1.00  0.00     0.002 A 
HETATM   16  C   UNL     1      41.044 -11.621   4.711  1.00  0.00     0.001 A 
HETATM   17  C   UNL     1      41.609 -12.761   4.130  1.00  0.00     0.012 A 
HETATM   18  N   UNL     1      41.344 -15.643   2.716  1.00  0.00    -0.043 N 
HETATM   19  H   UNL     1      40.789 -14.847   2.368  1.00  0.00     0.282 HD
HETATM   20  C   UNL     1      42.662 -15.723   1.983  1.00  0.00     0.204 C 
HETATM   21  C   UNL     1      40.595 -16.897   2.317  1.00  0.00     0.237 C 
HETATM   22  C   UNL     1      40.933 -17.013   0.844  1.00  0.00     0.030 C 
HETATM   23  C   UNL     1      42.377 -16.533   0.725  1.00  0.00     0.036 C 
HETATM   24  H   UNL     1      39.409 -15.725   6.707  1.00  0.00     0.169 HD
ENDROOT
BRANCH   1  25
HETATM   25  C   UNL     1      43.851 -19.068   5.431  1.00  0.00     0.048 A 
HETATM   26  C   UNL     1      44.402 -20.203   4.814  1.00  0.00     0.066 A 
HETATM   27  C   UNL     1      44.580 -21.414   5.498  1.00  0.00     0.070 A 
HETATM   28  C   UNL     1      44.170 -21.522   6.821  1.00  0.00     0.037 A 
HETATM   29  C   UNL     1      43.595 -20.422   7.451  1.00  0.00     0.005 A 
HETATM   30  C   UNL     1      43.438 -19.212   6.764  1.00  0.00     0.030 A 
BRANCH  27  31
HETATM   31  O   UNL     1      45.159 -22.406   4.755  1.00  0.00    -0.356 OA
HETATM   32  C   UNL     1      44.633 -22.619   3.450  1.00  0.00     0.210 C 
ENDBRANCH  27  31
ENDBRANCH   1  25
TORSDOF 2
ENDMDL
MODEL 3
REMARK VINA RESULT:      -9.2      2.154      6.962
REMARK  2 active torsions:
REMARK  status: ('A' for Active; 'I' for Inactive)
REMARK    1  A    between atoms: O_2  and  C_3 
REMARK    2  A    between atoms: C_5  and  N_6 
ROOT
HETATM    1  N   UNL     1      41.622 -17.241   3.312  1.00  0.00    -0.252 N 
HETATM    2  C   UNL     1      40.784 -17.176   2.220  1.00  0.00     0.239 C 
HETATM    3  O   UNL     1      40.620 -17.942   1.285  1.00  0.00    -0.272 OA
HETATM    4  C   UNL     1      40.046 -15.879   2.256  1.00  0.00     0.145 C 
HETATM    5  C   UNL     1      40.164 -15.437   3.701  1.00  0.00     0.126 C 
HETATM    6  C   UNL     1      41.410 -16.164   4.149  1.00  0.00     0.238 C 
HETATM    7  O   UNL     1      42.085 -15.761   5.082  1.00  0.00    -0.272 OA
HETATM    8  C   UNL     1      40.712 -14.799   1.388  1.00  0.00     0.250 A 
HETATM    9  C   UNL     1      42.017 -15.238   0.620  1.00  0.00     0.264 A 
HETATM   10  O   UNL     1      43.065 -15.589   1.136  1.00  0.00    -0.270 OA
HETATM   11  N   UNL     1      41.787 -15.088  -0.734  1.00  0.00    -0.324 N 
HETATM   12  C   UNL     1      40.519 -14.591  -0.978  1.00  0.00     0.044 A 
HETATM   13  C   UNL     1      39.832 -14.384   0.223  1.00  0.00     0.015 A 
HETATM   14  C   UNL     1      39.969 -14.313  -2.210  1.00  0.00     0.030 A 
HETATM   15  C   UNL     1      38.673 -13.798  -2.230  1.00  0.00     0.002 A 
HETATM   16  C   UNL     1      37.968 -13.576  -1.033  1.00  0.00     0.001 A 
HETATM   17  C   UNL     1      38.544 -13.870   0.208  1.00  0.00     0.012 A 
HETATM   18  N   UNL     1      40.935 -13.611   2.349  1.00  0.00    -0.043 N 
HETATM   19  H   UNL     1      40.545 -12.763   1.910  1.00  0.00     0.282 HD
HETATM   20  C   UNL     1      40.204 -13.919   3.634  1.00  0.00     0.204 C 
HETATM   21  C   UNL     1      42.347 -13.264   2.774  1.00  0.00     0.237 C 
HETATM   22  C   UNL     1      42.108 -12.448   4.029  1.00  0.00     0.030 C 
HETATM   23  C   UNL     1      40.905 -13.096   4.707  1.00  0.00     0.036 C 
HETATM   24  H   UNL     1      42.471 -15.323  -1.444  1.00  0.00     0.169 HD
ENDROOT
BRANCH   1  25
HETATM   25  C   UNL     1      42.671 -18.205   3.473  1.00  0.00     0.048 A 
HETATM   26  C   UNL     1      43.050 -18.676   4.741  1.00  0.00     0.066 A 
HETATM   27  C   UNL     1      44.023 -19.670   4.911  1.00  0.00     0.070 A 
HETATM   28  C   UNL     1      44.670 -20.194   3.798  1.00  0.00     0.037 A 
HETATM   29  C   UNL     1      44.336 -19.728   2.530  1.00  0.00     0.005 A 
HETATM   30  C   UNL     1      43.349 -18.747   2.371  1.00  0.00     0.030 A 
BRANCH  27  31
HETATM   31  O   UNL     1      44.245 -20.032   6.211  1.00  0.00    -0.356 OA
HETATM   32  C   UNL     1      43.863 -19.094   7.210  1.00  0.00     0.210 C 
ENDBRANCH  27  31
ENDBRANCH   1  25
TORSDOF 2
ENDMDL
MODEL 4
REMARK VINA RESULT:      -9.0      2.337      3.241
REMARK  2 active torsions:
REMARK  status: ('A' for Active; 'I' for Inactive)
REMARK    1  A    between atoms: O_2  and  C_3 
REMARK    2  A    between atoms: C_5  and  N_6 
ROOT
HETATM    1  N   UNL     1      40.572 -14.789   0.460  1.00  0.00    -0.252 N 
HETATM    2  C   UNL     1      39.906 -13.947   1.324  1.00  0.00     0.239 C 
HETATM    3  O   UNL     1      39.394 -12.854   1.147  1.00  0.00    -0.272 OA
HETATM    4  C   UNL     1      39.931 -14.542   2.692  1.00  0.00     0.145 C 
HETATM    5  C   UNL     1      40.228 -16.007   2.442  1.00  0.00     0.126 C 
HETATM    6  C   UNL     1      40.921 -15.961   1.101  1.00  0.00     0.238 C 
HETATM    7  O   UNL     1      41.689 -16.841   0.747  1.00  0.00    -0.272 OA
HETATM    8  C   UNL     1      41.072 -13.981   3.557  1.00  0.00     0.250 A 
HETATM    9  C   UNL     1      41.986 -12.894   2.873  1.00  0.00     0.264 A 
HETATM   10  O   UNL     1      42.698 -13.071   1.899  1.00  0.00    -0.270 OA
HETATM   11  N   UNL     1      41.892 -11.731   3.612  1.00  0.00    -0.324 N 
HETATM   12  C   UNL     1      41.059 -11.893   4.705  1.00  0.00     0.044 A 
HETATM   13  C   UNL     1      40.549 -13.195   4.746  1.00  0.00     0.015 A 
HETATM   14  C   UNL     1      40.753 -10.941   5.652  1.00  0.00     0.030 A 
HETATM   15  C   UNL     1      39.901 -11.322   6.688  1.00  0.00     0.002 A 
HETATM   16  C   UNL     1      39.383 -12.628   6.751  1.00  0.00     0.001 A 
HETATM   17  C   UNL     1      39.703 -13.578   5.776  1.00  0.00     0.012 A 
HETATM   18  N   UNL     1      41.850 -15.228   4.031  1.00  0.00    -0.043 N 
HETATM   19  H   UNL     1      41.954 -15.172   5.055  1.00  0.00     0.282 HD
HETATM   20  C   UNL     1      41.037 -16.444   3.654  1.00  0.00     0.204 C 
HETATM   21  C   UNL     1      43.232 -15.490   3.471  1.00  0.00     0.237 C 
HETATM   22  C   UNL     1      43.416 -16.966   3.760  1.00  0.00     0.030 C 
HETATM   23  C   UNL     1      42.037 -17.589   3.567  1.00  0.00     0.036 C 
HETATM   24  H   UNL     1      42.375 -10.874   3.366  1.00  0.00     0.169 HD
ENDROOT
BRANCH   1  25
HETATM   25  C   UNL     1      40.980 -14.433  -0.868  1.00  0.00     0.048 A 
HETATM   26  C   UNL     1      40.441 -15.068  -1.999  1.00  0.00     0.066 A 
HETATM   27  C   UNL     1      40.777 -14.683  -3.304  1.00  0.00     0.070 A 
HETATM   28  C   UNL     1      41.698 -13.662  -3.503  1.00  0.00     0.037 A 
HETATM   29  C   UNL     1      42.270 -13.032  -2.402  1.00  0.00     0.005 A 
HETATM   30  C   UNL     1      41.914 -13.413  -1.101  1.00  0.00     0.030 A 
BRANCH  27  31
HETATM   31  O   UNL     1      40.135 -15.386  -4.286  1.00  0.00    -0.356 OA
HETATM   32  C   UNL     1      38.936 -16.055  -3.915  1.00  0.00     0.210 C 
ENDBRANCH  27  31
ENDBRANCH   1  25
TORSDOF 2
ENDMDL
MODEL 5
REMARK VINA RESULT:      -8.9      2.343      6.836
REMARK  2 active torsions:
REMARK  status: ('A' for Active; 'I' for Inactive)
REMARK    1  A    between atoms: O_2  and  C_3 
REMARK    2  A    between atoms: C_5  and  N_6 
ROOT
HETATM    1  N   UNL     1      40.947 -16.596   3.361  1.00  0.00    -0.252 N 
HETATM    2  C   UNL     1      40.296 -16.736   2.156  1.00  0.00     0.239 C 
HETATM    3  O   UNL     1      40.245 -17.670   1.372  1.00  0.00    -0.272 OA
HETATM    4  C   UNL     1      39.623 -15.447   1.819  1.00  0.00     0.145 C 
HETATM    5  C   UNL     1      39.532 -14.729   3.151  1.00  0.00     0.126 C 
HETATM    6  C   UNL     1      40.657 -15.371   3.928  1.00  0.00     0.238 C 
HETATM    7  O   UNL     1      41.195 -14.801   4.863  1.00  0.00    -0.272 OA
HETATM    8  C   UNL     1      40.467 -14.571   0.879  1.00  0.00     0.250 A 
HETATM    9  C   UNL     1      41.855 -15.173   0.434  1.00  0.00     0.264 A 
HETATM   10  O   UNL     1      42.790 -15.430   1.173  1.00  0.00    -0.270 OA
HETATM   11  N   UNL     1      41.847 -15.290  -0.942  1.00  0.00    -0.324 N 
HETATM   12  C   UNL     1      40.658 -14.833  -1.481  1.00  0.00     0.044 A 
HETATM   13  C   UNL     1      39.801 -14.382  -0.472  1.00  0.00     0.015 A 
HETATM   14  C   UNL     1      40.323 -14.796  -2.817  1.00  0.00     0.030 A 
HETATM   15  C   UNL     1      39.072 -14.276  -3.148  1.00  0.00     0.002 A 
HETATM   16  C   UNL     1      38.198 -13.811  -2.148  1.00  0.00     0.001 A 
HETATM   17  C   UNL     1      38.557 -13.862  -0.797  1.00  0.00     0.012 A 
HETATM   18  N   UNL     1      40.592 -13.219   1.616  1.00  0.00    -0.043 N 
HETATM   19  H   UNL     1      40.316 -12.470   0.963  1.00  0.00     0.282 HD
HETATM   20  C   UNL     1      39.653 -13.255   2.798  1.00  0.00     0.204 C 
HETATM   21  C   UNL     1      41.933 -12.816   2.191  1.00  0.00     0.237 C 
HETATM   22  C   UNL     1      41.539 -11.764   3.208  1.00  0.00     0.030 C 
HETATM   23  C   UNL     1      40.214 -12.247   3.792  1.00  0.00     0.036 C 
HETATM   24  H   UNL     1      42.623 -15.672  -1.472  1.00  0.00     0.169 HD
ENDROOT
BRANCH   1  25
HETATM   25  C   UNL     1      41.912 -17.525   3.875  1.00  0.00     0.048 A 
HETATM   26  C   UNL     1      42.781 -18.229   3.026  1.00  0.00     0.066 A 
HETATM   27  C   UNL     1      43.776 -19.085   3.517  1.00  0.00     0.070 A 
HETATM   28  C   UNL     1      43.899 -19.281   4.888  1.00  0.00     0.037 A 
HETATM   29  C   UNL     1      43.034 -18.617   5.754  1.00  0.00     0.005 A 
HETATM   30  C   UNL     1      42.054 -17.750   5.252  1.00  0.00     0.030 A 
BRANCH  27  31
HETATM   31  O   UNL     1      44.553 -19.666   2.553  1.00  0.00    -0.356 OA
HETATM   32  C   UNL     1      44.422 -21.073   2.388  1.00  0.00     0.210 C 
ENDBRANCH  27  31
ENDBRANCH   1  25
TORSDOF 2
ENDMDL
MODEL 6
REMARK VINA RESULT:      -8.8      3.162      6.565
REMARK  2 active torsions:
REMARK  status: ('A' for Active; 'I' for Inactive)
REMARK    1  A    between atoms: O_2  and  C_3 
REMARK    2  A    between atoms: C_5  and  N_6 
ROOT
HETATM    1  N   UNL     1      43.913 -17.855   3.997  1.00  0.00    -0.252 N 
HETATM    2  C   UNL     1      43.724 -16.696   4.716  1.00  0.00     0.239 C 
HETATM    3  O   UNL     1      43.868 -16.454   5.904  1.00  0.00    -0.272 OA
HETATM    4  C   UNL     1      43.194 -15.642   3.803  1.00  0.00     0.145 C 
HETATM    5  C   UNL     1      43.561 -16.144   2.421  1.00  0.00     0.126 C 
HETATM    6  C   UNL     1      43.685 -17.632   2.653  1.00  0.00     0.238 C 
HETATM    7  O   UNL     1      43.543 -18.435   1.745  1.00  0.00    -0.272 OA
HETATM    8  C   UNL     1      41.662 -15.530   3.861  1.00  0.00     0.250 A 
HETATM    9  C   UNL     1      40.935 -16.511   4.858  1.00  0.00     0.264 A 
HETATM   10  O   UNL     1      40.927 -17.728   4.781  1.00  0.00    -0.270 OA
HETATM   11  N   UNL     1      40.253 -15.749   5.786  1.00  0.00    -0.324 N 
HETATM   12  C   UNL     1      40.405 -14.397   5.539  1.00  0.00     0.044 A 
HETATM   13  C   UNL     1      41.210 -14.189   4.414  1.00  0.00     0.015 A 
HETATM   14  C   UNL     1      39.853 -13.363   6.262  1.00  0.00     0.030 A 
HETATM   15  C   UNL     1      40.120 -12.065   5.828  1.00  0.00     0.002 A 
HETATM   16  C   UNL     1      40.923 -11.835   4.695  1.00  0.00     0.001 A 
HETATM   17  C   UNL     1      41.477 -12.901   3.977  1.00  0.00     0.012 A 
HETATM   18  N   UNL     1      41.204 -15.692   2.395  1.00  0.00    -0.043 N 
HETATM   19  H   UNL     1      40.576 -14.907   2.164  1.00  0.00     0.282 HD
HETATM   20  C   UNL     1      42.437 -15.649   1.524  1.00  0.00     0.204 C 
HETATM   21  C   UNL     1      40.479 -16.957   1.987  1.00  0.00     0.237 C 
HETATM   22  C   UNL     1      40.662 -16.956   0.482  1.00  0.00     0.030 C 
HETATM   23  C   UNL     1      42.059 -16.388   0.248  1.00  0.00     0.036 C 
HETATM   24  H   UNL     1      39.718 -16.149   6.550  1.00  0.00     0.169 HD
ENDROOT
BRANCH   1  25
HETATM   25  C   UNL     1      44.155 -19.143   4.579  1.00  0.00     0.048 A 
HETATM   26  C   UNL     1      43.852 -19.411   5.924  1.00  0.00     0.066 A 
HETATM   27  C   UNL     1      44.016 -20.684   6.489  1.00  0.00     0.070 A 
HETATM   28  C   UNL     1      44.528 -21.717   5.714  1.00  0.00     0.037 A 
HETATM   29  C   UNL     1      44.864 -21.475   4.385  1.00  0.00     0.005 A 
HETATM   30  C   UNL     1      44.679 -20.204   3.826  1.00  0.00     0.030 A 
BRANCH  27  31
HETATM   31  O   UNL     1      43.642 -20.775   7.801  1.00  0.00    -0.356 OA
HETATM   32  C   UNL     1      43.982 -19.678   8.641  1.00  0.00     0.210 C 
ENDBRANCH  27  31
ENDBRANCH   1  25
TORSDOF 2
ENDMDL
MODEL 7
REMARK VINA RESULT:      -8.7      2.120      2.294
REMARK  2 active torsions:
REMARK  status: ('A' for Active; 'I' for Inactive)
REMARK    1  A    between atoms: O_2  and  C_3 
REMARK    2  A    between atoms: C_5  and  N_6 
ROOT
HETATM    1  N   UNL     1      40.767 -14.047   2.063  1.00  0.00    -0.252 N 
HETATM    2  C   UNL     1      40.761 -14.210   3.430  1.00  0.00     0.239 C 
HETATM    3  O   UNL     1      40.608 -13.406   4.336  1.00  0.00    -0.272 OA
HETATM    4  C   UNL     1      41.067 -15.636   3.747  1.00  0.00     0.145 C 
HETATM    5  C   UNL     1      40.759 -16.366   2.455  1.00  0.00     0.126 C 
HETATM    6  C   UNL     1      40.914 -15.266   1.431  1.00  0.00     0.238 C 
HETATM    7  O   UNL     1      41.175 -15.510   0.264  1.00  0.00    -0.272 OA
HETATM    8  C   UNL     1      42.554 -15.863   4.063  1.00  0.00     0.250 A 
HETATM    9  C   UNL     1      43.474 -14.584   4.012  1.00  0.00     0.264 A 
HETATM   10  O   UNL     1      43.700 -13.907   3.023  1.00  0.00    -0.270 OA
HETATM   11  N   UNL     1      44.031 -14.409   5.263  1.00  0.00    -0.324 N 
HETATM   12  C   UNL     1      43.629 -15.402   6.139  1.00  0.00     0.044 A 
HETATM   13  C   UNL     1      42.769 -16.301   5.500  1.00  0.00     0.015 A 
HETATM   14  C   UNL     1      44.004 -15.535   7.457  1.00  0.00     0.030 A 
HETATM   15  C   UNL     1      43.494 -16.627   8.159  1.00  0.00     0.002 A 
HETATM   16  C   UNL     1      42.632 -17.546   7.534  1.00  0.00     0.001 A 
HETATM   17  C   UNL     1      42.261 -17.390   6.194  1.00  0.00     0.012 A 
HETATM   18  N   UNL     1      42.993 -16.975   3.085  1.00  0.00    -0.043 N 
HETATM   19  H   UNL     1      43.462 -17.716   3.629  1.00  0.00     0.282 HD
HETATM   20  C   UNL     1      41.750 -17.519   2.424  1.00  0.00     0.204 C 
HETATM   21  C   UNL     1      43.925 -16.625   1.944  1.00  0.00     0.237 C 
HETATM   22  C   UNL     1      43.704 -17.782   0.989  1.00  0.00     0.030 C 
HETATM   23  C   UNL     1      42.222 -18.123   1.107  1.00  0.00     0.036 C 
HETATM   24  H   UNL     1      44.650 -13.639   5.495  1.00  0.00     0.169 HD
ENDROOT
BRANCH   1  25
HETATM   25  C   UNL     1      40.778 -12.777   1.396  1.00  0.00     0.048 A 
HETATM   26  C   UNL     1      41.965 -12.220   0.894  1.00  0.00     0.066 A 
HETATM   27  C   UNL     1      41.982 -11.015   0.177  1.00  0.00     0.070 A 
HETATM   28  C   UNL     1      40.796 -10.318  -0.022  1.00  0.00     0.037 A 
HETATM   29  C   UNL     1      39.607 -10.832   0.487  1.00  0.00     0.005 A 
HETATM   30  C   UNL     1      39.599 -12.046   1.187  1.00  0.00     0.030 A 
BRANCH  27  31
HETATM   31  O   UNL     1      43.219 -10.634  -0.265  1.00  0.00    -0.356 OA
HETATM   32  C   UNL     1      43.344 -10.356  -1.655  1.00  0.00     0.210 C 
ENDBRANCH  27  31
ENDBRANCH   1  25
TORSDOF 2
ENDMDL
MODEL 8
REMARK VINA RESULT:      -8.5      2.012      4.204
REMARK  2 active torsions:
REMARK  status: ('A' for Active; 'I' for Inactive)
REMARK    1  A    between atoms: O_2  and  C_3 
REMARK    2  A    between atoms: C_5  and  N_6 
ROOT
HETATM    1  N   UNL     1      42.098 -13.787   2.053  1.00  0.00    -0.252 N 
HETATM    2  C   UNL     1      42.953 -14.785   2.464  1.00  0.00     0.239 C 
HETATM    3  O   UNL     1      43.440 -15.727   1.860  1.00  0.00    -0.272 OA
HETATM    4  C   UNL     1      43.212 -14.627   3.925  1.00  0.00     0.145 C 
HETATM    5  C   UNL     1      42.835 -13.185   4.204  1.00  0.00     0.126 C 
HETATM    6  C   UNL     1      41.868 -12.893   3.081  1.00  0.00     0.238 C 
HETATM    7  O   UNL     1      41.022 -12.019   3.176  1.00  0.00    -0.272 OA
HETATM    8  C   UNL     1      42.299 -15.518   4.784  1.00  0.00     0.250 A 
HETATM    9  C   UNL     1      41.283 -16.429   3.995  1.00  0.00     0.264 A 
HETATM   10  O   UNL     1      40.373 -16.034   3.286  1.00  0.00    -0.270 OA
HETATM   11  N   UNL     1      41.562 -17.746   4.305  1.00  0.00    -0.324 N 
HETATM   12  C   UNL     1      42.608 -17.842   5.205  1.00  0.00     0.044 A 
HETATM   13  C   UNL     1      43.085 -16.572   5.544  1.00  0.00     0.015 A 
HETATM   14  C   UNL     1      43.134 -19.001   5.732  1.00  0.00     0.030 A 
HETATM   15  C   UNL     1      44.181 -18.871   6.643  1.00  0.00     0.002 A 
HETATM   16  C   UNL     1      44.671 -17.602   7.001  1.00  0.00     0.001 A 
HETATM   17  C   UNL     1      44.125 -16.437   6.451  1.00  0.00     0.012 A 
HETATM   18  N   UNL     1      41.614 -14.540   5.765  1.00  0.00    -0.043 N 
HETATM   19  H   UNL     1      41.735 -14.906   6.721  1.00  0.00     0.282 HD
HETATM   20  C   UNL     1      42.297 -13.201   5.627  1.00  0.00     0.204 C 
HETATM   21  C   UNL     1      40.138 -14.247   5.600  1.00  0.00     0.237 C 
HETATM   22  C   UNL     1      39.986 -12.946   6.361  1.00  0.00     0.030 C 
HETATM   23  C   UNL     1      41.276 -12.174   6.099  1.00  0.00     0.036 C 
HETATM   24  H   UNL     1      41.057 -18.530   3.907  1.00  0.00     0.169 HD
ENDROOT
BRANCH   1  25
HETATM   25  C   UNL     1      41.419 -13.767   0.790  1.00  0.00     0.048 A 
HETATM   26  C   UNL     1      40.036 -13.994   0.693  1.00  0.00     0.066 A 
HETATM   27  C   UNL     1      39.347 -13.907  -0.524  1.00  0.00     0.070 A 
HETATM   28  C   UNL     1      40.047 -13.623  -1.691  1.00  0.00     0.037 A 
HETATM   29  C   UNL     1      41.423 -13.420  -1.631  1.00  0.00     0.005 A 
HETATM   30  C   UNL     1      42.099 -13.492  -0.406  1.00  0.00     0.030 A 
BRANCH  27  31
HETATM   31  O   UNL     1      38.000 -14.126  -0.431  1.00  0.00    -0.356 OA
HETATM   32  C   UNL     1      37.440 -14.121   0.877  1.00  0.00     0.210 C 
ENDBRANCH  27  31
ENDBRANCH   1  25
TORSDOF 2
ENDMDL
MODEL 9
REMARK VINA RESULT:      -8.5      2.670      6.319
REMARK  2 active torsions:
REMARK  status: ('A' for Active; 'I' for Inactive)
REMARK    1  A    between atoms: O_2  and  C_3 
REMARK    2  A    between atoms: C_5  and  N_6 
ROOT
HETATM    1  N   UNL     1      42.699 -17.660   4.614  1.00  0.00    -0.252 N 
HETATM    2  C   UNL     1      41.547 -16.992   4.263  1.00  0.00     0.239 C 
HETATM    3  O   UNL     1      40.722 -17.213   3.391  1.00  0.00    -0.272 OA
HETATM    4  C   UNL     1      41.418 -15.774   5.115  1.00  0.00     0.145 C 
HETATM    5  C   UNL     1      42.317 -16.066   6.300  1.00  0.00     0.126 C 
HETATM    6  C   UNL     1      43.282 -17.071   5.718  1.00  0.00     0.238 C 
HETATM    7  O   UNL     1      44.397 -17.234   6.188  1.00  0.00    -0.272 OA
HETATM    8  C   UNL     1      41.960 -14.512   4.423  1.00  0.00     0.250 A 
HETATM    9  C   UNL     1      42.532 -14.714   2.968  1.00  0.00     0.264 A 
HETATM   10  O   UNL     1      43.499 -15.396   2.670  1.00  0.00    -0.270 OA
HETATM   11  N   UNL     1      41.792 -13.930   2.106  1.00  0.00    -0.324 N 
HETATM   12  C   UNL     1      40.819 -13.216   2.782  1.00  0.00     0.044 A 
HETATM   13  C   UNL     1      40.865 -13.497   4.151  1.00  0.00     0.015 A 
HETATM   14  C   UNL     1      39.916 -12.334   2.231  1.00  0.00     0.030 A 
HETATM   15  C   UNL     1      39.026 -11.704   3.101  1.00  0.00     0.002 A 
HETATM   16  C   UNL     1      39.060 -11.968   4.482  1.00  0.00     0.001 A 
HETATM   17  C   UNL     1      39.983 -12.871   5.020  1.00  0.00     0.012 A 
HETATM   18  N   UNL     1      42.995 -13.939   5.417  1.00  0.00    -0.043 N 
HETATM   19  H   UNL     1      42.780 -12.942   5.567  1.00  0.00     0.282 HD
HETATM   20  C   UNL     1      42.859 -14.706   6.711  1.00  0.00     0.204 C 
HETATM   21  C   UNL     1      44.467 -14.014   5.069  1.00  0.00     0.237 C 
HETATM   22  C   UNL     1      45.122 -13.843   6.426  1.00  0.00     0.030 C 
HETATM   23  C   UNL     1      44.206 -14.568   7.407  1.00  0.00     0.036 C 
HETATM   24  H   UNL     1      41.952 -13.898   1.105  1.00  0.00     0.169 HD
ENDROOT
BRANCH   1  25
HETATM   25  C   UNL     1      43.290 -18.718   3.846  1.00  0.00     0.048 A 
HETATM   26  C   UNL     1      44.145 -19.664   4.434  1.00  0.00     0.066 A 
HETATM   27  C   UNL     1      44.673 -20.745   3.714  1.00  0.00     0.070 A 
HETATM   28  C   UNL     1      44.378 -20.879   2.363  1.00  0.00     0.037 A 
HETATM   29  C   UNL     1      43.555 -19.941   1.746  1.00  0.00     0.005 A 
HETATM   30  C   UNL     1      43.019 -18.875   2.479  1.00  0.00     0.030 A 
BRANCH  27  31
HETATM   31  O   UNL     1      45.462 -21.587   4.450  1.00  0.00    -0.356 OA
HETATM   32  C   UNL     1      44.811 -22.361   5.451  1.00  0.00     0.210 C 
ENDBRANCH  27  31
ENDBRANCH   1  25
TORSDOF 2
ENDMDL
MODEL 10
REMARK VINA RESULT:      -8.4      2.928      6.039
REMARK  2 active torsions:
REMARK  status: ('A' for Active; 'I' for Inactive)
REMARK    1  A    between atoms: O_2  and  C_3 
REMARK    2  A    between atoms: C_5  and  N_6 
ROOT
HETATM    1  N   UNL     1      43.207 -15.844   3.232  1.00  0.00    -0.252 N 
HETATM    2  C   UNL     1      43.176 -14.874   4.209  1.00  0.00     0.239 C 
HETATM    3  O   UNL     1      43.591 -14.875   5.357  1.00  0.00    -0.272 OA
HETATM    4  C   UNL     1      42.431 -13.690   3.691  1.00  0.00     0.145 C 
HETATM    5  C   UNL     1      42.471 -13.870   2.186  1.00  0.00     0.126 C 
HETATM    6  C   UNL     1      42.667 -15.362   2.056  1.00  0.00     0.238 C 
HETATM    7  O   UNL     1      42.327 -15.967   1.052  1.00  0.00    -0.272 OA
HETATM    8  C   UNL     1      40.954 -13.691   4.117  1.00  0.00     0.250 A 
HETATM    9  C   UNL     1      40.496 -14.903   5.015  1.00  0.00     0.264 A 
HETATM   10  O   UNL     1      40.487 -16.075   4.680  1.00  0.00    -0.270 OA
HETATM   11  N   UNL     1      40.040 -14.396   6.216  1.00  0.00    -0.324 N 
HETATM   12  C   UNL     1      40.111 -13.014   6.240  1.00  0.00     0.044 A 
HETATM   13  C   UNL     1      40.626 -12.527   5.035  1.00  0.00     0.015 A 
HETATM   14  C   UNL     1      39.729 -12.190   7.276  1.00  0.00     0.030 A 
HETATM   15  C   UNL     1      39.869 -10.816   7.084  1.00  0.00     0.002 A 
HETATM   16  C   UNL     1      40.379 -10.306   5.877  1.00  0.00     0.001 A 
HETATM   17  C   UNL     1      40.765 -11.161   4.839  1.00  0.00     0.012 A 
HETATM   18  N   UNL     1      40.167 -13.575   2.792  1.00  0.00    -0.043 N 
HETATM   19  H   UNL     1      39.492 -12.802   2.886  1.00  0.00     0.282 HD
HETATM   20  C   UNL     1      41.161 -13.273   1.696  1.00  0.00     0.204 C 
HETATM   21  C   UNL     1      39.385 -14.772   2.295  1.00  0.00     0.237 C 
HETATM   22  C   UNL     1      39.209 -14.447   0.825  1.00  0.00     0.030 C 
HETATM   23  C   UNL     1      40.504 -13.754   0.409  1.00  0.00     0.036 C 
HETATM   24  H   UNL     1      39.705 -14.978   6.975  1.00  0.00     0.169 HD
ENDROOT
BRANCH   1  25
HETATM   25  C   UNL     1      43.598 -17.206   3.451  1.00  0.00     0.048 A 
HETATM   26  C   UNL     1      43.596 -17.775   4.736  1.00  0.00     0.066 A 
HETATM   27  C   UNL     1      43.906 -19.124   4.957  1.00  0.00     0.070 A 
HETATM   28  C   UNL     1      44.263 -19.932   3.884  1.00  0.00     0.037 A 
HETATM   29  C   UNL     1      44.300 -19.390   2.602  1.00  0.00     0.005 A 
HETATM   30  C   UNL     1      43.971 -18.044   2.390  1.00  0.00     0.030 A 
BRANCH  27  31
HETATM   31  O   UNL     1      43.825 -19.518   6.264  1.00  0.00    -0.356 OA
HETATM   32  C   UNL     1      43.599 -18.496   7.228  1.00  0.00     0.210 C 
ENDBRANCH  27  31
ENDBRANCH   1  25
TORSDOF 2
ENDMDL
