MODEL 1
REMARK VINA RESULT:      -8.5      0.000      0.000
REMARK  7 active torsions:
REMARK  status: ('A' for Active; 'I' for Inactive)
REMARK    1  A    between atoms: C_2  and  S_3 
REMARK    2  A    between atoms: C_2  and  C_20 
REMARK    3  A    between atoms: S_3  and  C_4 
REMARK    4  A    between atoms: C_4  and  C_5 
REMARK       I    between atoms: C_5  and  N_6 
REMARK    5  A    between atoms: N_6  and  C_7 
REMARK    6  A    between atoms: C_10  and  C_11 
REMARK       I    between atoms: C_11  and  N_12 
REMARK    7  A    between atoms: N_12  and  C_13 
ROOT
HETATM    1  C   UNL     1      43.371 -14.210   4.135  1.00  0.00     0.231 C 
HETATM    2  N   UNL     1      42.291 -14.863   3.562  1.00  0.00    -0.327 N 
HETATM    3  O   UNL     1      44.224 -13.559   3.536  1.00  0.00    -0.272 OA
HETATM    4  H   UNL     1      41.675 -15.365   4.190  1.00  0.00     0.169 HD
ENDROOT
BRANCH   1   5
HETATM    5  C   UNL     1      43.442 -14.375   5.648  1.00  0.00     0.177 C 
BRANCH   5   6
HETATM    6  S   UNL     1      42.401 -15.783   6.156  1.00  0.00    -0.147 SA
BRANCH   6   7
HETATM    7  C   UNL     1      43.735 -16.992   6.489  1.00  0.00     0.113 C 
HETATM    8  C   UNL     1      43.532 -17.611   7.870  1.00  0.00     0.029 C 
BRANCH   7   9
HETATM    9  C   UNL     1      43.784 -18.029   5.411  1.00  0.00     0.118 A 
HETATM   10  N   UNL     1      43.226 -17.942   4.218  1.00  0.00    -0.232 NA
HETATM   11  C   UNL     1      43.560 -19.104   3.565  1.00  0.00     0.085 A 
HETATM   12  C   UNL     1      44.314 -19.935   4.385  1.00  0.00     0.062 A 
HETATM   13  C   UNL     1      43.254 -19.523   2.262  1.00  0.00     0.034 A 
HETATM   14  N   UNL     1      44.430 -19.235   5.558  1.00  0.00    -0.342 N 
HETATM   15  C   UNL     1      44.791 -21.184   3.983  1.00  0.00     0.032 A 
HETATM   16  H   UNL     1      44.911 -19.546   6.390  1.00  0.00     0.167 HD
HETATM   17  C   UNL     1      44.479 -21.584   2.678  1.00  0.00     0.002 A 
HETATM   18  C   UNL     1      43.724 -20.770   1.829  1.00  0.00     0.002 A 
ENDBRANCH   7   9
ENDBRANCH   6   7
ENDBRANCH   5   6
ENDBRANCH   1   5
BRANCH   2  19
HETATM   19  C   UNL     1      41.967 -14.941   2.190  1.00  0.00     0.034 A 
HETATM   20  C   UNL     1      41.971 -16.126   1.452  1.00  0.00     0.030 A 
HETATM   21  C   UNL     1      41.607 -16.131   0.099  1.00  0.00     0.019 A 
HETATM   22  C   UNL     1      41.218 -14.946  -0.532  1.00  0.00     0.032 A 
HETATM   23  C   UNL     1      41.245 -13.750   0.195  1.00  0.00     0.019 A 
HETATM   24  C   UNL     1      41.619 -13.749   1.544  1.00  0.00     0.030 A 
BRANCH  22  25
HETATM   25  C   UNL     1      40.783 -14.897  -1.960  1.00  0.00     0.251 C 
HETATM   26  N   UNL     1      39.442 -15.124  -2.200  1.00  0.00    -0.353 N 
HETATM   27  H   UNL     1      38.811 -15.137  -1.411  1.00  0.00     0.163 HD
HETATM   28  O   UNL     1      41.599 -14.625  -2.832  1.00  0.00    -0.268 OA
BRANCH  26  29
HETATM   29  C   UNL     1      38.818 -15.003  -3.514  1.00  0.00     0.076 C 
HETATM   30  C   UNL     1      38.981 -16.278  -4.338  1.00  0.00     0.032 C 
HETATM   31  C   UNL     1      37.359 -14.559  -3.444  1.00  0.00     0.032 C 
ENDBRANCH  26  29
ENDBRANCH  22  25
ENDBRANCH   2  19
TORSDOF 7
ENDMDL
MODEL 2
REMARK VINA RESULT:      -8.3      1.204      1.204
REMARK  7 active torsions:
REMARK  status: ('A' for Active; 'I' for Inactive)
REMARK    1  A    between atoms: C_2  and  S_3 
REMARK    2  A    between atoms: C_2  and  C_20 
REMARK    3  A    between atoms: S_3  and  C_4 
REMARK    4  A    between atoms: C_4  and  C_5 
REMARK       I    between atoms: C_5  and  N_6 
REMARK    5  A    between atoms: N_6  and  C_7 
REMARK    6  A    between atoms: C_10  and  C_11 
REMARK       I    between atoms: C_11  and  N_12 
REMARK    7  A    between atoms: N_12  and  C_13 
ROOT
HETATM    1  C   UNL     1      41.444 -15.547   4.872  1.00  0.00     0.231 C 
HETATM    2  N   UNL     1      42.319 -15.678   3.803  1.00  0.00    -0.327 N 
HETATM    3  O   UNL     1      40.247 -15.281   4.799  1.00  0.00    -0.272 OA
HETATM    4  H   UNL     1      43.283 -15.896   4.026  1.00  0.00     0.169 HD
ENDROOT
BRANCH   1   5
HETATM    5  C   UNL     1      42.112 -15.754   6.225  1.00  0.00     0.177 C 
BRANCH   5   6
HETATM    6  S   UNL     1      43.924 -15.722   6.023  1.00  0.00    -0.147 SA
BRANCH   6   7
HETATM    7  C   UNL     1      44.290 -17.403   6.651  1.00  0.00     0.113 C 
HETATM    8  C   UNL     1      43.327 -17.747   7.785  1.00  0.00     0.029 C 
BRANCH   7   9
HETATM    9  C   UNL     1      44.227 -18.403   5.538  1.00  0.00     0.118 A 
HETATM   10  N   UNL     1      43.796 -18.181   4.311  1.00  0.00    -0.232 NA
HETATM   11  C   UNL     1      43.953 -19.369   3.640  1.00  0.00     0.085 A 
HETATM   12  C   UNL     1      44.464 -20.350   4.480  1.00  0.00     0.062 A 
HETATM   13  C   UNL     1      43.680 -19.688   2.302  1.00  0.00     0.034 A 
HETATM   14  N   UNL     1      44.616 -19.715   5.685  1.00  0.00    -0.342 N 
HETATM   15  C   UNL     1      44.725 -21.657   4.066  1.00  0.00     0.032 A 
HETATM   16  H   UNL     1      44.959 -20.134   6.538  1.00  0.00     0.167 HD
HETATM   17  C   UNL     1      44.450 -21.957   2.726  1.00  0.00     0.002 A 
HETATM   18  C   UNL     1      43.937 -20.991   1.856  1.00  0.00     0.002 A 
ENDBRANCH   7   9
ENDBRANCH   6   7
ENDBRANCH   5   6
ENDBRANCH   1   5
BRANCH   2  19
HETATM   19  C   UNL     1      42.027 -15.505   2.433  1.00  0.00     0.034 A 
HETATM   20  C   UNL     1      41.691 -16.549   1.569  1.00  0.00     0.030 A 
HETATM   21  C   UNL     1      41.383 -16.297   0.225  1.00  0.00     0.019 A 
HETATM   22  C   UNL     1      41.392 -14.990  -0.269  1.00  0.00     0.032 A 
HETATM   23  C   UNL     1      41.760 -13.945   0.586  1.00  0.00     0.019 A 
HETATM   24  C   UNL     1      42.078 -14.202   1.925  1.00  0.00     0.030 A 
BRANCH  22  25
HETATM   25  C   UNL     1      41.033 -14.658  -1.680  1.00  0.00     0.251 C 
HETATM   26  N   UNL     1      39.892 -15.254  -2.180  1.00  0.00    -0.353 N 
HETATM   27  H   UNL     1      39.281 -15.730  -1.533  1.00  0.00     0.163 HD
HETATM   28  O   UNL     1      41.722 -13.861  -2.307  1.00  0.00    -0.268 OA
BRANCH  26  29
HETATM   29  C   UNL     1      39.328 -14.959  -3.493  1.00  0.00     0.076 C 
HETATM   30  C   UNL     1      38.963 -16.232  -4.252  1.00  0.00     0.032 C 
HETATM   31  C   UNL     1      38.156 -13.982  -3.434  1.00  0.00     0.032 C 
ENDBRANCH  26  29
ENDBRANCH  22  25
ENDBRANCH   2  19
TORSDOF 7
ENDMDL
MODEL 3
REMARK VINA RESULT:      -8.0      0.805      1.609
REMARK  7 active torsions:
REMARK  status: ('A' for Active; 'I' for Inactive)
REMARK    1  A    between atoms: C_2  and  S_3 
REMARK    2  A    between atoms: C_2  and  C_20 
REMARK    3  A    between atoms: S_3  and  C_4 
REMARK    4  A    between atoms: C_4  and  C_5 
REMARK       I    between atoms: C_5  and  N_6 
REMARK    5  A    between atoms: N_6  and  C_7 
REMARK    6  A    between atoms: C_10  and  C_11 
REMARK       I    between atoms: C_11  and  N_12 
REMARK    7  A    between atoms: N_12  and  C_13 
ROOT
HETATM    1  C   UNL     1      43.393 -14.513   5.028  1.00  0.00     0.231 C 
HETATM    2  N   UNL     1      42.327 -15.123   4.385  1.00  0.00    -0.327 N 
HETATM    3  O   UNL     1      44.148 -13.673   4.542  1.00  0.00    -0.272 OA
HETATM    4  H   UNL     1      41.799 -15.802   4.921  1.00  0.00     0.169 HD
ENDROOT
BRANCH   1   5
HETATM    5  C   UNL     1      43.587 -14.992   6.461  1.00  0.00     0.177 C 
BRANCH   5   6
HETATM    6  S   UNL     1      42.690 -16.560   6.707  1.00  0.00    -0.147 SA
BRANCH   6   7
HETATM    7  C   UNL     1      44.137 -17.675   6.838  1.00  0.00     0.113 C 
HETATM    8  C   UNL     1      44.100 -18.406   8.178  1.00  0.00     0.029 C 
BRANCH   7   9
HETATM    9  C   UNL     1      44.174 -18.624   5.680  1.00  0.00     0.118 A 
HETATM   10  N   UNL     1      44.604 -19.871   5.706  1.00  0.00    -0.232 NA
HETATM   11  C   UNL     1      44.420 -20.355   4.433  1.00  0.00     0.085 A 
HETATM   12  C   UNL     1      43.892 -19.375   3.601  1.00  0.00     0.062 A 
HETATM   13  C   UNL     1      44.679 -21.630   3.910  1.00  0.00     0.034 A 
HETATM   14  N   UNL     1      43.759 -18.279   4.414  1.00  0.00    -0.342 N 
HETATM   15  C   UNL     1      43.602 -19.587   2.252  1.00  0.00     0.032 A 
HETATM   16  H   UNL     1      43.412 -17.372   4.136  1.00  0.00     0.167 HD
HETATM   17  C   UNL     1      43.865 -20.866   1.748  1.00  0.00     0.002 A 
HETATM   18  C   UNL     1      44.394 -21.873   2.560  1.00  0.00     0.002 A 
ENDBRANCH   7   9
ENDBRANCH   6   7
ENDBRANCH   5   6
ENDBRANCH   1   5
BRANCH   2  19
HETATM   19  C   UNL     1      41.912 -14.934   3.050  1.00  0.00     0.034 A 
HETATM   20  C   UNL     1      41.018 -13.941   2.644  1.00  0.00     0.030 A 
HETATM   21  C   UNL     1      40.675 -13.793   1.292  1.00  0.00     0.019 A 
HETATM   22  C   UNL     1      41.237 -14.631   0.325  1.00  0.00     0.032 A 
HETATM   23  C   UNL     1      42.108 -15.648   0.733  1.00  0.00     0.019 A 
HETATM   24  C   UNL     1      42.439 -15.799   2.085  1.00  0.00     0.030 A 
BRANCH  22  25
HETATM   25  C   UNL     1      40.940 -14.494  -1.132  1.00  0.00     0.251 C 
HETATM   26  N   UNL     1      39.691 -14.915  -1.546  1.00  0.00    -0.353 N 
HETATM   27  H   UNL     1      39.000 -15.124  -0.839  1.00  0.00     0.163 HD
HETATM   28  O   UNL     1      41.775 -13.990  -1.874  1.00  0.00    -0.268 OA
BRANCH  26  29
HETATM   29  C   UNL     1      39.186 -14.752  -2.905  1.00  0.00     0.076 C 
HETATM   30  C   UNL     1      39.507 -15.962  -3.778  1.00  0.00     0.032 C 
HETATM   31  C   UNL     1      37.701 -14.400  -2.952  1.00  0.00     0.032 C 
ENDBRANCH  26  29
ENDBRANCH  22  25
ENDBRANCH   2  19
TORSDOF 7
ENDMDL
MODEL 4
REMARK VINA RESULT:      -7.9      4.976      8.622
REMARK  7 active torsions:
REMARK  status: ('A' for Active; 'I' for Inactive)
REMARK    1  A    between atoms: C_2  and  S_3 
REMARK    2  A    between atoms: C_2  and  C_20 
REMARK    3  A    between atoms: S_3  and  C_4 
REMARK    4  A    between atoms: C_4  and  C_5 
REMARK       I    between atoms: C_5  and  N_6 
REMARK    5  A    between atoms: N_6  and  C_7 
REMARK    6  A    between atoms: C_10  and  C_11 
REMARK       I    between atoms: C_11  and  N_12 
REMARK    7  A    between atoms: N_12  and  C_13 
ROOT
HETATM    1  C   UNL     1      40.661 -13.348   5.899  1.00  0.00     0.231 C 
HETATM    2  N   UNL     1      40.480 -14.683   6.229  1.00  0.00    -0.327 N 
HETATM    3  O   UNL     1      41.613 -12.877   5.282  1.00  0.00    -0.272 OA
HETATM    4  H   UNL     1      39.642 -14.916   6.747  1.00  0.00     0.169 HD
ENDROOT
BRANCH   1   5
HETATM    5  C   UNL     1      39.537 -12.447   6.396  1.00  0.00     0.177 C 
BRANCH   5   6
HETATM    6  S   UNL     1      40.077 -10.707   6.334  1.00  0.00    -0.147 SA
BRANCH   6   7
HETATM    7  C   UNL     1      40.150 -10.389   8.137  1.00  0.00     0.113 C 
HETATM    8  C   UNL     1      39.104 -11.244   8.850  1.00  0.00     0.029 C 
BRANCH   7   9
HETATM    9  C   UNL     1      41.530 -10.640   8.658  1.00  0.00     0.118 A 
HETATM   10  N   UNL     1      42.062 -10.116   9.746  1.00  0.00    -0.232 NA
HETATM   11  C   UNL     1      43.323 -10.653   9.840  1.00  0.00     0.085 A 
HETATM   12  C   UNL     1      43.582 -11.503   8.772  1.00  0.00     0.062 A 
HETATM   13  C   UNL     1      44.310 -10.463  10.818  1.00  0.00     0.034 A 
HETATM   14  N   UNL     1      42.432 -11.466   8.027  1.00  0.00    -0.342 N 
HETATM   15  C   UNL     1      44.787 -12.188   8.610  1.00  0.00     0.032 A 
HETATM   16  H   UNL     1      42.268 -11.962   7.162  1.00  0.00     0.167 HD
HETATM   17  C   UNL     1      45.760 -11.988   9.597  1.00  0.00     0.002 A 
HETATM   18  C   UNL     1      45.528 -11.141  10.684  1.00  0.00     0.002 A 
ENDBRANCH   7   9
ENDBRANCH   6   7
ENDBRANCH   5   6
ENDBRANCH   1   5
BRANCH   2  19
HETATM   19  C   UNL     1      41.353 -15.757   5.956  1.00  0.00     0.034 A 
HETATM   20  C   UNL     1      41.028 -16.839   5.135  1.00  0.00     0.030 A 
HETATM   21  C   UNL     1      41.959 -17.856   4.884  1.00  0.00     0.019 A 
HETATM   22  C   UNL     1      43.240 -17.793   5.440  1.00  0.00     0.032 A 
HETATM   23  C   UNL     1      43.559 -16.727   6.290  1.00  0.00     0.019 A 
HETATM   24  C   UNL     1      42.622 -15.720   6.546  1.00  0.00     0.030 A 
BRANCH  22  25
HETATM   25  C   UNL     1      44.286 -18.826   5.176  1.00  0.00     0.251 C 
HETATM   26  N   UNL     1      43.909 -19.892   4.383  1.00  0.00    -0.353 N 
HETATM   27  H   UNL     1      43.027 -19.834   3.894  1.00  0.00     0.163 HD
HETATM   28  O   UNL     1      45.416 -18.671   5.624  1.00  0.00    -0.268 OA
BRANCH  26  29
HETATM   29  C   UNL     1      44.825 -20.932   3.926  1.00  0.00     0.076 C 
HETATM   30  C   UNL     1      44.948 -22.065   4.942  1.00  0.00     0.032 C 
HETATM   31  C   UNL     1      44.487 -21.457   2.533  1.00  0.00     0.032 C 
ENDBRANCH  26  29
ENDBRANCH  22  25
ENDBRANCH   2  19
TORSDOF 7
ENDMDL
MODEL 5
REMARK VINA RESULT:      -7.8      5.229      9.357
REMARK  7 active torsions:
REMARK  status: ('A' for Active; 'I' for Inactive)
REMARK    1  A    between atoms: C_2  and  S_3 
REMARK    2  A    between atoms: C_2  and  C_20 
REMARK    3  A    between atoms: S_3  and  C_4 
REMARK    4  A    between atoms: C_4  and  C_5 
REMARK       I    between atoms: C_5  and  N_6 
REMARK    5  A    between atoms: N_6  and  C_7 
REMARK    6  A    between atoms: C_10  and  C_11 
REMARK       I    between atoms: C_11  and  N_12 
REMARK    7  A    between atoms: N_12  and  C_13 
ROOT
HETATM    1  C   UNL     1      41.129 -13.486   5.488  1.00  0.00     0.231 C 
HETATM    2  N   UNL     1      41.063 -14.740   6.077  1.00  0.00    -0.327 N 
HETATM    3  O   UNL     1      41.816 -13.177   4.518  1.00  0.00    -0.272 OA
HETATM    4  H   UNL     1      40.451 -14.837   6.878  1.00  0.00     0.169 HD
ENDROOT
BRANCH   1   5
HETATM    5  C   UNL     1      40.249 -12.451   6.178  1.00  0.00     0.177 C 
BRANCH   5   6
HETATM    6  S   UNL     1      41.298 -11.241   7.048  1.00  0.00    -0.147 SA
BRANCH   6   7
HETATM    7  C   UNL     1      40.145 -10.822   8.409  1.00  0.00     0.113 C 
HETATM    8  C   UNL     1      39.072 -11.903   8.521  1.00  0.00     0.029 C 
BRANCH   7   9
HETATM    9  C   UNL     1      40.894 -10.640   9.693  1.00  0.00     0.118 A 
HETATM   10  N   UNL     1      42.076 -10.071   9.833  1.00  0.00    -0.232 NA
HETATM   11  C   UNL     1      42.346 -10.100  11.180  1.00  0.00     0.085 A 
HETATM   12  C   UNL     1      41.321 -10.727  11.878  1.00  0.00     0.062 A 
HETATM   13  C   UNL     1      43.453  -9.607  11.886  1.00  0.00     0.034 A 
HETATM   14  N   UNL     1      40.417 -11.074  10.908  1.00  0.00    -0.342 N 
HETATM   15  C   UNL     1      41.328 -10.899  13.263  1.00  0.00     0.032 A 
HETATM   16  H   UNL     1      39.544 -11.562  11.056  1.00  0.00     0.167 HD
HETATM   17  C   UNL     1      42.439 -10.398  13.952  1.00  0.00     0.002 A 
HETATM   18  C   UNL     1      43.485  -9.761  13.278  1.00  0.00     0.002 A 
ENDBRANCH   7   9
ENDBRANCH   6   7
ENDBRANCH   5   6
ENDBRANCH   1   5
BRANCH   2  19
HETATM   19  C   UNL     1      41.783 -15.897   5.708  1.00  0.00     0.034 A 
HETATM   20  C   UNL     1      41.265 -16.917   4.907  1.00  0.00     0.030 A 
HETATM   21  C   UNL     1      42.051 -18.023   4.556  1.00  0.00     0.019 A 
HETATM   22  C   UNL     1      43.377 -18.114   4.990  1.00  0.00     0.032 A 
HETATM   23  C   UNL     1      43.889 -17.109   5.819  1.00  0.00     0.019 A 
HETATM   24  C   UNL     1      43.097 -16.012   6.177  1.00  0.00     0.030 A 
BRANCH  22  25
HETATM   25  C   UNL     1      44.273 -19.247   4.614  1.00  0.00     0.251 C 
HETATM   26  N   UNL     1      43.784 -20.129   3.670  1.00  0.00    -0.353 N 
HETATM   27  H   UNL     1      42.945 -19.874   3.168  1.00  0.00     0.163 HD
HETATM   28  O   UNL     1      45.390 -19.326   5.111  1.00  0.00    -0.268 OA
BRANCH  26  29
HETATM   29  C   UNL     1      44.560 -21.225   3.099  1.00  0.00     0.076 C 
HETATM   30  C   UNL     1      44.638 -22.419   4.047  1.00  0.00     0.032 C 
HETATM   31  C   UNL     1      44.080 -21.638   1.710  1.00  0.00     0.032 C 
ENDBRANCH  26  29
ENDBRANCH  22  25
ENDBRANCH   2  19
TORSDOF 7
ENDMDL
MODEL 6
REMARK VINA RESULT:      -7.4      2.857      7.640
REMARK  7 active torsions:
REMARK  status: ('A' for Active; 'I' for Inactive)
REMARK    1  A    between atoms: C_2  and  S_3 
REMARK    2  A    between atoms: C_2  and  C_20 
REMARK    3  A    between atoms: S_3  and  C_4 
REMARK    4  A    between atoms: C_4  and  C_5 
REMARK       I    between atoms: C_5  and  N_6 
REMARK    5  A    between atoms: N_6  and  C_7 
REMARK    6  A    between atoms: C_10  and  C_11 
REMARK       I    between atoms: C_11  and  N_12 
REMARK    7  A    between atoms: N_12  and  C_13 
ROOT
HETATM    1  C   UNL     1      40.596 -14.571  -0.687  1.00  0.00     0.231 C 
HETATM    2  N   UNL     1      40.325 -15.678   0.103  1.00  0.00    -0.327 N 
HETATM    3  O   UNL     1      41.708 -14.102  -0.918  1.00  0.00    -0.272 OA
HETATM    4  H   UNL     1      39.351 -15.941   0.203  1.00  0.00     0.169 HD
ENDROOT
BRANCH   1   5
HETATM    5  C   UNL     1      39.345 -13.929  -1.273  1.00  0.00     0.177 C 
BRANCH   5   6
HETATM    6  S   UNL     1      39.390 -12.130  -0.982  1.00  0.00    -0.147 SA
BRANCH   6   7
HETATM    7  C   UNL     1      38.605 -12.111   0.673  1.00  0.00     0.113 C 
HETATM    8  C   UNL     1      37.288 -12.882   0.624  1.00  0.00     0.029 C 
BRANCH   7   9
HETATM    9  C   UNL     1      39.541 -12.661   1.704  1.00  0.00     0.118 A 
HETATM   10  N   UNL     1      39.203 -13.340   2.783  1.00  0.00    -0.232 NA
HETATM   11  C   UNL     1      40.384 -13.663   3.405  1.00  0.00     0.085 A 
HETATM   12  C   UNL     1      41.470 -13.146   2.709  1.00  0.00     0.062 A 
HETATM   13  C   UNL     1      40.611 -14.402   4.576  1.00  0.00     0.034 A 
HETATM   14  N   UNL     1      40.906 -12.501   1.639  1.00  0.00    -0.342 N 
HETATM   15  C   UNL     1      42.795 -13.320   3.112  1.00  0.00     0.032 A 
HETATM   16  H   UNL     1      41.405 -11.996   0.920  1.00  0.00     0.167 HD
HETATM   17  C   UNL     1      43.002 -14.062   4.281  1.00  0.00     0.002 A 
HETATM   18  C   UNL     1      41.931 -14.596   5.002  1.00  0.00     0.002 A 
ENDBRANCH   7   9
ENDBRANCH   6   7
ENDBRANCH   5   6
ENDBRANCH   1   5
BRANCH   2  19
HETATM   19  C   UNL     1      41.251 -16.466   0.820  1.00  0.00     0.034 A 
HETATM   20  C   UNL     1      42.530 -16.783   0.356  1.00  0.00     0.030 A 
HETATM   21  C   UNL     1      43.409 -17.545   1.139  1.00  0.00     0.019 A 
HETATM   22  C   UNL     1      43.022 -17.988   2.407  1.00  0.00     0.032 A 
HETATM   23  C   UNL     1      41.729 -17.700   2.861  1.00  0.00     0.019 A 
HETATM   24  C   UNL     1      40.852 -16.947   2.072  1.00  0.00     0.030 A 
BRANCH  22  25
HETATM   25  C   UNL     1      43.929 -18.768   3.300  1.00  0.00     0.251 C 
HETATM   26  N   UNL     1      44.030 -18.332   4.606  1.00  0.00    -0.353 N 
HETATM   27  H   UNL     1      43.372 -17.636   4.928  1.00  0.00     0.163 HD
HETATM   28  O   UNL     1      44.501 -19.761   2.862  1.00  0.00    -0.268 OA
BRANCH  26  29
HETATM   29  C   UNL     1      44.775 -19.035   5.645  1.00  0.00     0.076 C 
HETATM   30  C   UNL     1      45.341 -18.073   6.686  1.00  0.00     0.032 C 
HETATM   31  C   UNL     1      43.977 -20.163   6.293  1.00  0.00     0.032 C 
ENDBRANCH  26  29
ENDBRANCH  22  25
ENDBRANCH   2  19
TORSDOF 7
ENDMDL
MODEL 7
REMARK VINA RESULT:      -7.4      2.928      6.830
REMARK  7 active torsions:
REMARK  status: ('A' for Active; 'I' for Inactive)
REMARK    1  A    between atoms: C_2  and  S_3 
REMARK    2  A    between atoms: C_2  and  C_20 
REMARK    3  A    between atoms: S_3  and  C_4 
REMARK    4  A    between atoms: C_4  and  C_5 
REMARK       I    between atoms: C_5  and  N_6 
REMARK    5  A    between atoms: N_6  and  C_7 
REMARK    6  A    between atoms: C_10  and  C_11 
REMARK       I    between atoms: C_11  and  N_12 
REMARK    7  A    between atoms: N_12  and  C_13 
ROOT
HETATM    1  C   UNL     1      42.364 -13.321   5.140  1.00  0.00     0.231 C 
HETATM    2  N   UNL     1      41.961 -14.575   5.574  1.00  0.00    -0.327 N 
HETATM    3  O   UNL     1      43.273 -13.087   4.347  1.00  0.00    -0.272 OA
HETATM    4  H   UNL     1      41.196 -14.605   6.237  1.00  0.00     0.169 HD
ENDROOT
BRANCH   1   5
HETATM    5  C   UNL     1      41.564 -12.183   5.762  1.00  0.00     0.177 C 
BRANCH   5   6
HETATM    6  S   UNL     1      39.786 -12.578   5.691  1.00  0.00    -0.147 SA
BRANCH   6   7
HETATM    7  C   UNL     1      39.520 -12.281   3.903  1.00  0.00     0.113 C 
HETATM    8  C   UNL     1      40.246 -11.005   3.483  1.00  0.00     0.029 C 
BRANCH   7   9
HETATM    9  C   UNL     1      39.961 -13.467   3.104  1.00  0.00     0.118 A 
HETATM   10  N   UNL     1      39.612 -14.723   3.311  1.00  0.00    -0.232 NA
HETATM   11  C   UNL     1      40.228 -15.449   2.321  1.00  0.00     0.085 A 
HETATM   12  C   UNL     1      40.995 -14.626   1.506  1.00  0.00     0.062 A 
HETATM   13  C   UNL     1      40.177 -16.825   2.051  1.00  0.00     0.034 A 
HETATM   14  N   UNL     1      40.820 -13.373   2.033  1.00  0.00    -0.342 N 
HETATM   15  C   UNL     1      41.733 -15.095   0.417  1.00  0.00     0.032 A 
HETATM   16  H   UNL     1      41.245 -12.521   1.694  1.00  0.00     0.167 HD
HETATM   17  C   UNL     1      41.669 -16.470   0.162  1.00  0.00     0.002 A 
HETATM   18  C   UNL     1      40.904 -17.323   0.962  1.00  0.00     0.002 A 
ENDBRANCH   7   9
ENDBRANCH   6   7
ENDBRANCH   5   6
ENDBRANCH   1   5
BRANCH   2  19
HETATM   19  C   UNL     1      42.522 -15.822   5.224  1.00  0.00     0.034 A 
HETATM   20  C   UNL     1      43.132 -16.088   3.996  1.00  0.00     0.030 A 
HETATM   21  C   UNL     1      43.696 -17.343   3.732  1.00  0.00     0.019 A 
HETATM   22  C   UNL     1      43.671 -18.348   4.703  1.00  0.00     0.032 A 
HETATM   23  C   UNL     1      43.031 -18.096   5.923  1.00  0.00     0.019 A 
HETATM   24  C   UNL     1      42.460 -16.844   6.179  1.00  0.00     0.030 A 
BRANCH  22  25
HETATM   25  C   UNL     1      44.290 -19.690   4.491  1.00  0.00     0.251 C 
HETATM   26  N   UNL     1      44.060 -20.287   3.267  1.00  0.00    -0.353 N 
HETATM   27  H   UNL     1      43.644 -19.728   2.536  1.00  0.00     0.163 HD
HETATM   28  O   UNL     1      44.993 -20.177   5.370  1.00  0.00    -0.268 OA
BRANCH  26  29
HETATM   29  C   UNL     1      44.676 -21.539   2.842  1.00  0.00     0.076 C 
HETATM   30  C   UNL     1      44.528 -22.631   3.898  1.00  0.00     0.032 C 
HETATM   31  C   UNL     1      44.192 -22.009   1.473  1.00  0.00     0.032 C 
ENDBRANCH  26  29
ENDBRANCH  22  25
ENDBRANCH   2  19
TORSDOF 7
ENDMDL
MODEL 8
REMARK VINA RESULT:      -7.3      3.706      7.499
REMARK  7 active torsions:
REMARK  status: ('A' for Active; 'I' for Inactive)
REMARK    1  A    between atoms: C_2  and  S_3 
REMARK    2  A    between atoms: C_2  and  C_20 
REMARK    3  A    between atoms: S_3  and  C_4 
REMARK    4  A    between atoms: C_4  and  C_5 
REMARK       I    between atoms: C_5  and  N_6 
REMARK    5  A    between atoms: N_6  and  C_7 
REMARK    6  A    between atoms: C_10  and  C_11 
REMARK       I    between atoms: C_11  and  N_12 
REMARK    7  A    between atoms: N_12  and  C_13 
ROOT
HETATM    1  C   UNL     1      42.077 -14.157   2.117  1.00  0.00     0.231 C 
HETATM    2  N   UNL     1      41.141 -14.354   3.121  1.00  0.00    -0.327 N 
HETATM    3  O   UNL     1      42.917 -13.261   2.077  1.00  0.00    -0.272 OA
HETATM    4  H   UNL     1      40.509 -15.138   3.009  1.00  0.00     0.169 HD
ENDROOT
BRANCH   1   5
HETATM    5  C   UNL     1      41.979 -15.180   0.993  1.00  0.00     0.177 C 
BRANCH   5   6
HETATM    6  S   UNL     1      40.952 -16.585   1.534  1.00  0.00    -0.147 SA
BRANCH   6   7
HETATM    7  C   UNL     1      42.299 -17.761   1.931  1.00  0.00     0.113 C 
HETATM    8  C   UNL     1      43.518 -17.454   1.065  1.00  0.00     0.029 C 
BRANCH   7   9
HETATM    9  C   UNL     1      42.621 -17.715   3.392  1.00  0.00     0.118 A 
HETATM   10  N   UNL     1      41.874 -17.184   4.341  1.00  0.00    -0.232 NA
HETATM   11  C   UNL     1      42.552 -17.402   5.515  1.00  0.00     0.085 A 
HETATM   12  C   UNL     1      43.756 -18.055   5.280  1.00  0.00     0.062 A 
HETATM   13  C   UNL     1      42.200 -17.071   6.832  1.00  0.00     0.034 A 
HETATM   14  N   UNL     1      43.783 -18.230   3.920  1.00  0.00    -0.342 N 
HETATM   15  C   UNL     1      44.651 -18.405   6.292  1.00  0.00     0.032 A 
HETATM   16  H   UNL     1      44.526 -18.665   3.392  1.00  0.00     0.167 HD
HETATM   17  C   UNL     1      44.281 -18.069   7.600  1.00  0.00     0.002 A 
HETATM   18  C   UNL     1      43.077 -17.414   7.869  1.00  0.00     0.002 A 
ENDBRANCH   7   9
ENDBRANCH   6   7
ENDBRANCH   5   6
ENDBRANCH   1   5
BRANCH   2  19
HETATM   19  C   UNL     1      40.940 -13.562   4.271  1.00  0.00     0.034 A 
HETATM   20  C   UNL     1      41.726 -12.457   4.605  1.00  0.00     0.030 A 
HETATM   21  C   UNL     1      41.446 -11.697   5.750  1.00  0.00     0.019 A 
HETATM   22  C   UNL     1      40.363 -12.026   6.569  1.00  0.00     0.032 A 
HETATM   23  C   UNL     1      39.593 -13.153   6.255  1.00  0.00     0.019 A 
HETATM   24  C   UNL     1      39.882 -13.914   5.117  1.00  0.00     0.030 A 
BRANCH  22  25
HETATM   25  C   UNL     1      39.994 -11.230   7.777  1.00  0.00     0.251 C 
HETATM   26  N   UNL     1      40.938 -11.168   8.783  1.00  0.00    -0.353 N 
HETATM   27  H   UNL     1      41.869 -11.506   8.585  1.00  0.00     0.163 HD
HETATM   28  O   UNL     1      38.917 -10.646   7.811  1.00  0.00    -0.268 OA
BRANCH  26  29
HETATM   29  C   UNL     1      40.800 -10.347   9.982  1.00  0.00     0.076 C 
HETATM   30  C   UNL     1      40.256 -11.151  11.160  1.00  0.00     0.032 C 
HETATM   31  C   UNL     1      42.082  -9.604  10.348  1.00  0.00     0.032 C 
ENDBRANCH  26  29
ENDBRANCH  22  25
ENDBRANCH   2  19
TORSDOF 7
ENDMDL
MODEL 9
REMARK VINA RESULT:      -7.2      2.940      8.165
REMARK  7 active torsions:
REMARK  status: ('A' for Active; 'I' for Inactive)
REMARK    1  A    between atoms: C_2  and  S_3 
REMARK    2  A    between atoms: C_2  and  C_20 
REMARK    3  A    between atoms: S_3  and  C_4 
REMARK    4  A    between atoms: C_4  and  C_5 
REMARK       I    between atoms: C_5  and  N_6 
REMARK    5  A    between atoms: N_6  and  C_7 
REMARK    6  A    between atoms: C_10  and  C_11 
REMARK       I    between atoms: C_11  and  N_12 
REMARK    7  A    between atoms: N_12  and  C_13 
ROOT
HETATM    1  C   UNL     1      41.121 -15.367   0.271  1.00  0.00     0.231 C 
HETATM    2  N   UNL     1      42.449 -15.683   0.513  1.00  0.00    -0.327 N 
HETATM    3  O   UNL     1      40.165 -15.662   0.985  1.00  0.00    -0.272 OA
HETATM    4  H   UNL     1      43.125 -15.373  -0.176  1.00  0.00     0.169 HD
ENDROOT
BRANCH   1   5
HETATM    5  C   UNL     1      40.912 -14.596  -1.026  1.00  0.00     0.177 C 
BRANCH   5   6
HETATM    6  S   UNL     1      42.009 -13.141  -1.054  1.00  0.00    -0.147 SA
BRANCH   6   7
HETATM    7  C   UNL     1      40.907 -11.961  -0.189  1.00  0.00     0.113 C 
HETATM    8  C   UNL     1      39.505 -12.037  -0.788  1.00  0.00     0.029 C 
BRANCH   7   9
HETATM    9  C   UNL     1      40.904 -12.231   1.284  1.00  0.00     0.118 A 
HETATM   10  N   UNL     1      39.841 -12.418   2.042  1.00  0.00    -0.232 NA
HETATM   11  C   UNL     1      40.321 -12.661   3.305  1.00  0.00     0.085 A 
HETATM   12  C   UNL     1      41.709 -12.592   3.330  1.00  0.00     0.062 A 
HETATM   13  C   UNL     1      39.629 -12.951   4.490  1.00  0.00     0.034 A 
HETATM   14  N   UNL     1      42.054 -12.304   2.035  1.00  0.00    -0.342 N 
HETATM   15  C   UNL     1      42.468 -12.797   4.484  1.00  0.00     0.032 A 
HETATM   16  H   UNL     1      42.994 -12.170   1.687  1.00  0.00     0.167 HD
HETATM   17  C   UNL     1      41.760 -13.088   5.656  1.00  0.00     0.002 A 
HETATM   18  C   UNL     1      40.365 -13.165   5.663  1.00  0.00     0.002 A 
ENDBRANCH   7   9
ENDBRANCH   6   7
ENDBRANCH   5   6
ENDBRANCH   1   5
BRANCH   2  19
HETATM   19  C   UNL     1      42.969 -16.423   1.596  1.00  0.00     0.034 A 
HETATM   20  C   UNL     1      42.987 -15.967   2.916  1.00  0.00     0.030 A 
HETATM   21  C   UNL     1      43.491 -16.772   3.947  1.00  0.00     0.019 A 
HETATM   22  C   UNL     1      43.973 -18.055   3.670  1.00  0.00     0.032 A 
HETATM   23  C   UNL     1      43.987 -18.502   2.343  1.00  0.00     0.019 A 
HETATM   24  C   UNL     1      43.492 -17.691   1.316  1.00  0.00     0.030 A 
BRANCH  22  25
HETATM   25  C   UNL     1      44.485 -18.971   4.732  1.00  0.00     0.251 C 
HETATM   26  N   UNL     1      44.151 -20.305   4.606  1.00  0.00    -0.353 N 
HETATM   27  H   UNL     1      43.739 -20.613   3.737  1.00  0.00     0.163 HD
HETATM   28  O   UNL     1      45.195 -18.524   5.626  1.00  0.00    -0.268 OA
BRANCH  26  29
HETATM   29  C   UNL     1      44.655 -21.358   5.482  1.00  0.00     0.076 C 
HETATM   30  C   UNL     1      43.821 -21.486   6.753  1.00  0.00     0.032 C 
HETATM   31  C   UNL     1      44.813 -22.700   4.772  1.00  0.00     0.032 C 
ENDBRANCH  26  29
ENDBRANCH  22  25
ENDBRANCH   2  19
TORSDOF 7
ENDMDL
MODEL 10
REMARK VINA RESULT:      -7.2      5.495      9.118
REMARK  7 active torsions:
REMARK  status: ('A' for Active; 'I' for Inactive)
REMARK    1  A    between atoms: C_2  and  S_3 
REMARK    2  A    between atoms: C_2  and  C_20 
REMARK    3  A    between atoms: S_3  and  C_4 
REMARK    4  A    between atoms: C_4  and  C_5 
REMARK       I    between atoms: C_5  and  N_6 
REMARK    5  A    between atoms: N_6  and  C_7 
REMARK    6  A    between atoms: C_10  and  C_11 
REMARK       I    between atoms: C_11  and  N_12 
REMARK    7  A    between atoms: N_12  and  C_13 
ROOT
HETATM    1  C   UNL     1      40.482 -12.498   5.448  1.00  0.00     0.231 C 
HETATM    2  N   UNL     1      41.816 -12.790   5.203  1.00  0.00    -0.327 N 
HETATM    3  O   UNL     1      39.529 -13.249   5.252  1.00  0.00    -0.272 OA
HETATM    4  H   UNL     1      42.488 -12.062   5.413  1.00  0.00     0.169 HD
ENDROOT
BRANCH   1   5
HETATM    5  C   UNL     1      40.264 -11.094   5.997  1.00  0.00     0.177 C 
BRANCH   5   6
HETATM    6  S   UNL     1      41.380 -10.810   7.410  1.00  0.00    -0.147 SA
BRANCH   6   7
HETATM    7  C   UNL     1      40.109 -10.570   8.707  1.00  0.00     0.113 C 
HETATM    8  C   UNL     1      39.123 -11.736   8.680  1.00  0.00     0.029 C 
BRANCH   7   9
HETATM    9  C   UNL     1      40.752 -10.409  10.049  1.00  0.00     0.118 A 
HETATM   10  N   UNL     1      40.300 -10.882  11.194  1.00  0.00    -0.232 NA
HETATM   11  C   UNL     1      41.228 -10.518  12.140  1.00  0.00     0.085 A 
HETATM   12  C   UNL     1      42.257  -9.780  11.568  1.00  0.00     0.062 A 
HETATM   13  C   UNL     1      41.260 -10.785  13.517  1.00  0.00     0.034 A 
HETATM   14  N   UNL     1      41.924  -9.712  10.240  1.00  0.00    -0.342 N 
HETATM   15  C   UNL     1      43.338  -9.279  12.294  1.00  0.00     0.032 A 
HETATM   16  H   UNL     1      42.449  -9.236   9.520  1.00  0.00     0.167 HD
HETATM   17  C   UNL     1      43.356  -9.557  13.666  1.00  0.00     0.002 A 
HETATM   18  C   UNL     1      42.336 -10.297  14.270  1.00  0.00     0.002 A 
ENDBRANCH   7   9
ENDBRANCH   6   7
ENDBRANCH   5   6
ENDBRANCH   1   5
BRANCH   2  19
HETATM   19  C   UNL     1      42.345 -13.979   4.658  1.00  0.00     0.034 A 
HETATM   20  C   UNL     1      42.208 -15.237   5.248  1.00  0.00     0.030 A 
HETATM   21  C   UNL     1      42.735 -16.380   4.631  1.00  0.00     0.019 A 
HETATM   22  C   UNL     1      43.394 -16.280   3.403  1.00  0.00     0.032 A 
HETATM   23  C   UNL     1      43.562 -15.016   2.825  1.00  0.00     0.019 A 
HETATM   24  C   UNL     1      43.044 -13.876   3.450  1.00  0.00     0.030 A 
BRANCH  22  25
HETATM   25  C   UNL     1      43.940 -17.468   2.681  1.00  0.00     0.251 C 
HETATM   26  N   UNL     1      43.985 -18.651   3.391  1.00  0.00    -0.353 N 
HETATM   27  H   UNL     1      43.499 -18.694   4.276  1.00  0.00     0.163 HD
HETATM   28  O   UNL     1      44.279 -17.359   1.508  1.00  0.00    -0.268 OA
BRANCH  26  29
HETATM   29  C   UNL     1      44.378 -19.933   2.816  1.00  0.00     0.076 C 
HETATM   30  C   UNL     1      44.869 -20.907   3.883  1.00  0.00     0.032 C 
HETATM   31  C   UNL     1      43.290 -20.554   1.942  1.00  0.00     0.032 C 
ENDBRANCH  26  29
ENDBRANCH  22  25
ENDBRANCH   2  19
TORSDOF 7
ENDMDL
