MODEL 1
REMARK VINA RESULT:      -8.5      0.000      0.000
REMARK  8 active torsions:
REMARK  status: ('A' for Active; 'I' for Inactive)
REMARK    1  A    between atoms: C_2  and  C_3 
REMARK    2  A    between atoms: C_3  and  N_4 
REMARK    3  A    between atoms: C_12  and  C_13 
REMARK    4  A    between atoms: C_13  and  N_14 
REMARK    5  A    between atoms: C_22  and  C_23 
REMARK    6  A    between atoms: C_23  and  C_24 
REMARK    7  A    between atoms: C_24  and  N_25 
REMARK       I    between atoms: N_25  and  C_26 
REMARK    8  A    between atoms: C_26  and  C_27 
ROOT
HETATM    1  N   UNL     1      40.249 -13.259   3.761  1.00  0.00    -0.065 N 
HETATM    2  H   UNL     1      39.506 -13.931   3.521  1.00  0.00     0.280 HD
HETATM    3  C   UNL     1      40.336 -13.271   5.285  1.00  0.00     0.255 C 
HETATM    4  C   UNL     1      40.929 -11.991   5.862  1.00  0.00     0.159 C 
HETATM    5  N   UNL     1      39.941 -10.947   6.018  1.00  0.00    -0.319 N 
HETATM    6  C   UNL     1      38.946 -10.624   5.123  1.00  0.00     0.131 A 
HETATM    7  C   UNL     1      38.620 -11.320   3.848  1.00  0.00     0.108 C 
HETATM    8  C   UNL     1      39.821 -11.928   3.140  1.00  0.00     0.243 C 
HETATM    9  C   UNL     1      39.788 -10.092   7.083  1.00  0.00     0.131 A 
HETATM   10  N   UNL     1      38.797  -9.269   6.813  1.00  0.00    -0.135 NA
HETATM   11  N   UNL     1      38.267  -9.608   5.601  1.00  0.00    -0.135 NA
ENDROOT
BRANCH   1  12
HETATM   12  C   UNL     1      41.492 -13.797   3.070  1.00  0.00     0.280 C 
BRANCH  12  13
HETATM   13  C   UNL     1      41.833 -15.219   3.420  1.00  0.00     0.009 A 
HETATM   14  S   UNL     1      43.464 -15.721   3.601  1.00  0.00    -0.096 SA
HETATM   15  C   UNL     1      43.013 -17.314   4.060  1.00  0.00     0.009 A 
HETATM   16  C   UNL     1      41.640 -17.459   4.058  1.00  0.00     0.017 A 
HETATM   17  C   UNL     1      40.963 -16.259   3.680  1.00  0.00     0.017 A 
BRANCH  15  18
HETATM   18  C   UNL     1      44.069 -18.315   4.449  1.00  0.00     0.280 C 
BRANCH  18  19
HETATM   19  N   UNL     1      43.881 -19.683   3.821  1.00  0.00    -0.067 N 
HETATM   20  H   UNL     1      42.978 -20.040   4.154  1.00  0.00     0.280 HD
HETATM   21  C   UNL     1      43.831 -19.635   2.311  1.00  0.00     0.235 C 
HETATM   22  C   UNL     1      43.518 -21.022   1.768  1.00  0.00     0.028 C 
HETATM   23  C   UNL     1      44.525 -22.057   2.254  1.00  0.00     0.003 C 
HETATM   24  C   UNL     1      44.634 -22.047   3.774  1.00  0.00     0.028 C 
HETATM   25  C   UNL     1      44.938 -20.655   4.310  1.00  0.00     0.235 C 
ENDBRANCH  18  19
ENDBRANCH  15  18
ENDBRANCH  12  13
ENDBRANCH   1  12
BRANCH   9  26
HETATM   26  C   UNL     1      40.590 -10.092   8.340  1.00  0.00     0.100 C 
BRANCH  26  27
HETATM   27  C   UNL     1      40.042 -11.054   9.396  1.00  0.00     0.130 C 
BRANCH  27  28
HETATM   28  N   UNL     1      40.842 -11.281  10.596  1.00  0.00    -0.360 N 
HETATM   29  C   UNL     1      40.639 -10.718  11.833  1.00  0.00     0.222 C 
HETATM   30  O   UNL     1      39.845  -9.806  12.052  1.00  0.00    -0.273 OA
HETATM   31  H   UNL     1      41.476 -12.071  10.539  1.00  0.00     0.162 HD
BRANCH  29  32
HETATM   32  C   UNL     1      41.554 -11.301  12.917  1.00  0.00     0.082 C 
HETATM   33  C   UNL     1      42.982 -11.495  12.395  1.00  0.00     0.040 C 
HETATM   34  C   UNL     1      43.690 -10.157  12.235  1.00  0.00     0.168 C 
HETATM   35  O   UNL     1      43.695  -9.415  13.456  1.00  0.00    -0.391 OA
HETATM   36  C   UNL     1      42.394  -9.158  13.973  1.00  0.00     0.168 C 
HETATM   37  C   UNL     1      41.583 -10.430  14.176  1.00  0.00     0.040 C 
ENDBRANCH  29  32
ENDBRANCH  27  28
ENDBRANCH  26  27
ENDBRANCH   9  26
TORSDOF 8
ENDMDL
MODEL 2
REMARK VINA RESULT:      -8.5      1.612      2.117
REMARK  8 active torsions:
REMARK  status: ('A' for Active; 'I' for Inactive)
REMARK    1  A    between atoms: C_2  and  C_3 
REMARK    2  A    between atoms: C_3  and  N_4 
REMARK    3  A    between atoms: C_12  and  C_13 
REMARK    4  A    between atoms: C_13  and  N_14 
REMARK    5  A    between atoms: C_22  and  C_23 
REMARK    6  A    between atoms: C_23  and  C_24 
REMARK    7  A    between atoms: C_24  and  N_25 
REMARK       I    between atoms: N_25  and  C_26 
REMARK    8  A    between atoms: C_26  and  C_27 
ROOT
HETATM    1  N   UNL     1      40.271 -13.518   5.291  1.00  0.00    -0.065 N 
HETATM    2  H   UNL     1      40.042 -13.548   4.287  1.00  0.00     0.280 HD
HETATM    3  C   UNL     1      39.173 -12.676   5.937  1.00  0.00     0.255 C 
HETATM    4  C   UNL     1      39.601 -12.040   7.254  1.00  0.00     0.159 C 
HETATM    5  N   UNL     1      40.313 -10.796   7.060  1.00  0.00    -0.319 N 
HETATM    6  C   UNL     1      41.268 -10.543   6.101  1.00  0.00     0.131 A 
HETATM    7  C   UNL     1      41.718 -11.456   5.014  1.00  0.00     0.108 C 
HETATM    8  C   UNL     1      41.682 -12.933   5.378  1.00  0.00     0.243 C 
HETATM    9  C   UNL     1      40.169  -9.630   7.771  1.00  0.00     0.131 A 
HETATM   10  N   UNL     1      41.029  -8.751   7.302  1.00  0.00    -0.135 NA
HETATM   11  N   UNL     1      41.703  -9.315   6.257  1.00  0.00    -0.135 NA
ENDROOT
BRANCH   1  12
HETATM   12  C   UNL     1      40.268 -14.974   5.730  1.00  0.00     0.280 C 
BRANCH  12  13
HETATM   13  C   UNL     1      41.227 -15.854   4.976  1.00  0.00     0.009 A 
HETATM   14  S   UNL     1      42.592 -16.547   5.750  1.00  0.00    -0.096 SA
HETATM   15  C   UNL     1      43.062 -17.411   4.342  1.00  0.00     0.009 A 
HETATM   16  C   UNL     1      42.196 -17.157   3.295  1.00  0.00     0.017 A 
HETATM   17  C   UNL     1      41.149 -16.256   3.657  1.00  0.00     0.017 A 
BRANCH  15  18
HETATM   18  C   UNL     1      44.247 -18.338   4.384  1.00  0.00     0.280 C 
BRANCH  18  19
HETATM   19  N   UNL     1      43.969 -19.719   3.824  1.00  0.00    -0.067 N 
HETATM   20  H   UNL     1      43.020 -19.974   4.122  1.00  0.00     0.280 HD
HETATM   21  C   UNL     1      44.007 -19.760   2.313  1.00  0.00     0.235 C 
HETATM   22  C   UNL     1      43.597 -21.145   1.832  1.00  0.00     0.028 C 
HETATM   23  C   UNL     1      44.478 -22.233   2.435  1.00  0.00     0.003 C 
HETATM   24  C   UNL     1      44.504 -22.139   3.956  1.00  0.00     0.028 C 
HETATM   25  C   UNL     1      44.904 -20.749   4.429  1.00  0.00     0.235 C 
ENDBRANCH  18  19
ENDBRANCH  15  18
ENDBRANCH  12  13
ENDBRANCH   1  12
BRANCH   9  26
HETATM   26  C   UNL     1      39.202  -9.382   8.879  1.00  0.00     0.100 C 
BRANCH  26  27
HETATM   27  C   UNL     1      39.710  -8.358   9.895  1.00  0.00     0.130 C 
BRANCH  27  28
HETATM   28  N   UNL     1      41.063  -8.523  10.416  1.00  0.00    -0.360 N 
HETATM   29  C   UNL     1      41.447  -8.454  11.733  1.00  0.00     0.222 C 
HETATM   30  O   UNL     1      40.715  -8.071  12.644  1.00  0.00    -0.273 OA
HETATM   31  H   UNL     1      41.726  -8.913   9.755  1.00  0.00     0.162 HD
BRANCH  29  32
HETATM   32  C   UNL     1      42.913  -8.845  11.955  1.00  0.00     0.082 C 
HETATM   33  C   UNL     1      43.166  -9.260  13.408  1.00  0.00     0.040 C 
HETATM   34  C   UNL     1      42.550 -10.623  13.699  1.00  0.00     0.168 C 
HETATM   35  O   UNL     1      43.031 -11.621  12.798  1.00  0.00    -0.391 OA
HETATM   36  C   UNL     1      42.786 -11.319  11.429  1.00  0.00     0.168 C 
HETATM   37  C   UNL     1      43.357  -9.970  11.016  1.00  0.00     0.040 C 
ENDBRANCH  29  32
ENDBRANCH  27  28
ENDBRANCH  26  27
ENDBRANCH   9  26
TORSDOF 8
ENDMDL
MODEL 3
REMARK VINA RESULT:      -8.5      4.854     11.185
REMARK  8 active torsions:
REMARK  status: ('A' for Active; 'I' for Inactive)
REMARK    1  A    between atoms: C_2  and  C_3 
REMARK    2  A    between atoms: C_3  and  N_4 
REMARK    3  A    between atoms: C_12  and  C_13 
REMARK    4  A    between atoms: C_13  and  N_14 
REMARK    5  A    between atoms: C_22  and  C_23 
REMARK    6  A    between atoms: C_23  and  C_24 
REMARK    7  A    between atoms: C_24  and  N_25 
REMARK       I    between atoms: N_25  and  C_26 
REMARK    8  A    between atoms: C_26  and  C_27 
ROOT
HETATM    1  N   UNL     1      43.782 -14.369   7.129  1.00  0.00    -0.065 N 
HETATM    2  H   UNL     1      43.203 -13.980   7.888  1.00  0.00     0.280 HD
HETATM    3  C   UNL     1      43.005 -14.101   5.843  1.00  0.00     0.255 C 
HETATM    4  C   UNL     1      43.367 -15.055   4.712  1.00  0.00     0.159 C 
HETATM    5  N   UNL     1      42.636 -16.301   4.786  1.00  0.00    -0.319 N 
HETATM    6  C   UNL     1      42.371 -17.026   5.926  1.00  0.00     0.131 A 
HETATM    7  C   UNL     1      42.704 -16.654   7.328  1.00  0.00     0.108 C 
HETATM    8  C   UNL     1      43.984 -15.845   7.476  1.00  0.00     0.243 C 
HETATM    9  C   UNL     1      42.053 -16.991   3.751  1.00  0.00     0.131 A 
HETATM   10  N   UNL     1      41.521 -18.093   4.237  1.00  0.00    -0.135 NA
HETATM   11  N   UNL     1      41.709 -18.108   5.590  1.00  0.00    -0.135 NA
ENDROOT
BRANCH   1  12
HETATM   12  C   UNL     1      45.097 -13.612   7.222  1.00  0.00     0.280 C 
BRANCH  12  13
HETATM   13  C   UNL     1      45.128 -12.543   8.280  1.00  0.00     0.009 A 
HETATM   14  S   UNL     1      43.678 -11.909   8.942  1.00  0.00    -0.096 SA
HETATM   15  C   UNL     1      44.521 -10.904  10.051  1.00  0.00     0.009 A 
HETATM   16  C   UNL     1      45.888 -11.042   9.901  1.00  0.00     0.017 A 
HETATM   17  C   UNL     1      46.235 -11.975   8.878  1.00  0.00     0.017 A 
BRANCH  15  18
HETATM   18  C   UNL     1      43.758 -10.070  11.046  1.00  0.00     0.280 C 
BRANCH  18  19
HETATM   19  N   UNL     1      42.304 -10.471  11.199  1.00  0.00    -0.067 N 
HETATM   20  H   UNL     1      42.126 -11.209  10.507  1.00  0.00     0.280 HD
HETATM   21  C   UNL     1      41.989 -11.033  12.566  1.00  0.00     0.235 C 
HETATM   22  C   UNL     1      40.549 -11.523  12.595  1.00  0.00     0.028 C 
HETATM   23  C   UNL     1      39.571 -10.418  12.215  1.00  0.00     0.003 C 
HETATM   24  C   UNL     1      39.938  -9.796  10.873  1.00  0.00     0.028 C 
HETATM   25  C   UNL     1      41.383  -9.318  10.849  1.00  0.00     0.235 C 
ENDBRANCH  18  19
ENDBRANCH  15  18
ENDBRANCH  12  13
ENDBRANCH   1  12
BRANCH   9  26
HETATM   26  C   UNL     1      42.010 -16.572   2.321  1.00  0.00     0.100 C 
BRANCH  26  27
HETATM   27  C   UNL     1      42.621 -17.611   1.377  1.00  0.00     0.130 C 
BRANCH  27  28
HETATM   28  N   UNL     1      43.696 -18.454   1.892  1.00  0.00    -0.360 N 
HETATM   29  C   UNL     1      43.676 -19.823   2.011  1.00  0.00     0.222 C 
HETATM   30  O   UNL     1      42.671 -20.513   1.854  1.00  0.00    -0.273 OA
HETATM   31  H   UNL     1      44.593 -17.989   1.980  1.00  0.00     0.162 HD
BRANCH  29  32
HETATM   32  C   UNL     1      45.031 -20.410   2.426  1.00  0.00     0.082 C 
HETATM   33  C   UNL     1      45.409 -19.985   3.848  1.00  0.00     0.040 C 
HETATM   34  C   UNL     1      44.554 -20.710   4.879  1.00  0.00     0.168 C 
HETATM   35  O   UNL     1      44.645 -22.128   4.734  1.00  0.00    -0.391 OA
HETATM   36  C   UNL     1      44.260 -22.596   3.447  1.00  0.00     0.168 C 
HETATM   37  C   UNL     1      45.051 -21.938   2.325  1.00  0.00     0.040 C 
ENDBRANCH  29  32
ENDBRANCH  27  28
ENDBRANCH  26  27
ENDBRANCH   9  26
TORSDOF 8
ENDMDL
MODEL 4
REMARK VINA RESULT:      -8.4      5.200     11.912
REMARK  8 active torsions:
REMARK  status: ('A' for Active; 'I' for Inactive)
REMARK    1  A    between atoms: C_2  and  C_3 
REMARK    2  A    between atoms: C_3  and  N_4 
REMARK    3  A    between atoms: C_12  and  C_13 
REMARK    4  A    between atoms: C_13  and  N_14 
REMARK    5  A    between atoms: C_22  and  C_23 
REMARK    6  A    between atoms: C_23  and  C_24 
REMARK    7  A    between atoms: C_24  and  N_25 
REMARK       I    between atoms: N_25  and  C_26 
REMARK    8  A    between atoms: C_26  and  C_27 
ROOT
HETATM    1  N   UNL     1      43.727 -14.400   7.047  1.00  0.00    -0.065 N 
HETATM    2  H   UNL     1      43.025 -14.072   7.726  1.00  0.00     0.280 HD
HETATM    3  C   UNL     1      43.164 -14.044   5.673  1.00  0.00     0.255 C 
HETATM    4  C   UNL     1      43.726 -14.910   4.552  1.00  0.00     0.159 C 
HETATM    5  N   UNL     1      43.019 -16.164   4.416  1.00  0.00    -0.319 N 
HETATM    6  C   UNL     1      42.587 -16.973   5.443  1.00  0.00     0.131 A 
HETATM    7  C   UNL     1      42.680 -16.702   6.904  1.00  0.00     0.108 C 
HETATM    8  C   UNL     1      43.901 -15.895   7.317  1.00  0.00     0.243 C 
HETATM    9  C   UNL     1      42.626 -16.782   3.254  1.00  0.00     0.131 A 
HETATM   10  N   UNL     1      42.046 -17.921   3.566  1.00  0.00    -0.135 NA
HETATM   11  N   UNL     1      42.011 -18.033   4.927  1.00  0.00    -0.135 NA
ENDROOT
BRANCH   1  12
HETATM   12  C   UNL     1      44.994 -13.640   7.408  1.00  0.00     0.280 C 
BRANCH  12  13
HETATM   13  C   UNL     1      44.808 -12.582   8.461  1.00  0.00     0.009 A 
HETATM   14  S   UNL     1      43.385 -11.625   8.515  1.00  0.00    -0.096 SA
HETATM   15  C   UNL     1      43.882 -10.811   9.944  1.00  0.00     0.009 A 
HETATM   16  C   UNL     1      45.123 -11.256  10.358  1.00  0.00     0.017 A 
HETATM   17  C   UNL     1      45.658 -12.265   9.502  1.00  0.00     0.017 A 
BRANCH  15  18
HETATM   18  C   UNL     1      42.971  -9.806  10.597  1.00  0.00     0.280 C 
BRANCH  18  19
HETATM   19  N   UNL     1      42.685 -10.093  12.058  1.00  0.00    -0.067 N 
HETATM   20  H   UNL     1      43.193 -10.953  12.296  1.00  0.00     0.280 HD
HETATM   21  C   UNL     1      43.173  -8.998  12.979  1.00  0.00     0.235 C 
HETATM   22  C   UNL     1      42.961  -9.418  14.426  1.00  0.00     0.028 C 
HETATM   23  C   UNL     1      41.502  -9.762  14.703  1.00  0.00     0.003 C 
HETATM   24  C   UNL     1      40.987 -10.807  13.721  1.00  0.00     0.028 C 
HETATM   25  C   UNL     1      41.213 -10.384  12.277  1.00  0.00     0.235 C 
ENDBRANCH  18  19
ENDBRANCH  15  18
ENDBRANCH  12  13
ENDBRANCH   1  12
BRANCH   9  26
HETATM   26  C   UNL     1      42.808 -16.259   1.869  1.00  0.00     0.100 C 
BRANCH  26  27
HETATM   27  C   UNL     1      41.617 -16.563   0.956  1.00  0.00     0.130 C 
BRANCH  27  28
HETATM   28  N   UNL     1      41.584 -15.932  -0.359  1.00  0.00    -0.360 N 
HETATM   29  C   UNL     1      40.805 -14.865  -0.735  1.00  0.00     0.222 C 
HETATM   30  O   UNL     1      39.897 -14.401  -0.050  1.00  0.00    -0.273 OA
HETATM   31  H   UNL     1      42.348 -16.194  -0.973  1.00  0.00     0.162 HD
BRANCH  29  32
HETATM   32  C   UNL     1      41.139 -14.340  -2.137  1.00  0.00     0.082 C 
HETATM   33  C   UNL     1      41.253 -15.485  -3.148  1.00  0.00     0.040 C 
HETATM   34  C   UNL     1      39.882 -16.063  -3.473  1.00  0.00     0.168 C 
HETATM   35  O   UNL     1      38.986 -15.056  -3.949  1.00  0.00    -0.391 OA
HETATM   36  C   UNL     1      38.798 -13.982  -3.035  1.00  0.00     0.168 C 
HETATM   37  C   UNL     1      40.109 -13.321  -2.631  1.00  0.00     0.040 C 
ENDBRANCH  29  32
ENDBRANCH  27  28
ENDBRANCH  26  27
ENDBRANCH   9  26
TORSDOF 8
ENDMDL
MODEL 5
REMARK VINA RESULT:      -8.3      3.716     10.002
REMARK  8 active torsions:
REMARK  status: ('A' for Active; 'I' for Inactive)
REMARK    1  A    between atoms: C_2  and  C_3 
REMARK    2  A    between atoms: C_3  and  N_4 
REMARK    3  A    between atoms: C_12  and  C_13 
REMARK    4  A    between atoms: C_13  and  N_14 
REMARK    5  A    between atoms: C_22  and  C_23 
REMARK    6  A    between atoms: C_23  and  C_24 
REMARK    7  A    between atoms: C_24  and  N_25 
REMARK       I    between atoms: N_25  and  C_26 
REMARK    8  A    between atoms: C_26  and  C_27 
ROOT
HETATM    1  N   UNL     1      40.506 -12.991   6.680  1.00  0.00    -0.065 N 
HETATM    2  H   UNL     1      40.774 -13.360   7.604  1.00  0.00     0.280 HD
HETATM    3  C   UNL     1      40.276 -14.219   5.801  1.00  0.00     0.255 C 
HETATM    4  C   UNL     1      40.432 -13.929   4.313  1.00  0.00     0.159 C 
HETATM    5  N   UNL     1      41.811 -13.991   3.881  1.00  0.00    -0.319 N 
HETATM    6  C   UNL     1      42.902 -13.495   4.558  1.00  0.00     0.131 A 
HETATM    7  C   UNL     1      42.915 -12.862   5.906  1.00  0.00     0.108 C 
HETATM    8  C   UNL     1      41.655 -12.081   6.245  1.00  0.00     0.243 C 
HETATM    9  C   UNL     1      42.303 -14.565   2.734  1.00  0.00     0.131 A 
HETATM   10  N   UNL     1      43.605 -14.371   2.700  1.00  0.00    -0.135 NA
HETATM   11  N   UNL     1      43.977 -13.717   3.840  1.00  0.00    -0.135 NA
ENDROOT
BRANCH   1  12
HETATM   12  C   UNL     1      39.248 -12.178   6.942  1.00  0.00     0.280 C 
BRANCH  12  13
HETATM   13  C   UNL     1      39.482 -10.887   7.676  1.00  0.00     0.009 A 
HETATM   14  S   UNL     1      39.855 -10.874   9.351  1.00  0.00    -0.096 SA
HETATM   15  C   UNL     1      40.053  -9.168   9.382  1.00  0.00     0.009 A 
HETATM   16  C   UNL     1      39.821  -8.621   8.135  1.00  0.00     0.017 A 
HETATM   17  C   UNL     1      39.483  -9.607   7.159  1.00  0.00     0.017 A 
BRANCH  15  18
HETATM   18  C   UNL     1      40.483  -8.480  10.651  1.00  0.00     0.280 C 
BRANCH  18  19
HETATM   19  N   UNL     1      41.288  -9.362  11.586  1.00  0.00    -0.067 N 
HETATM   20  H   UNL     1      41.336 -10.290  11.150  1.00  0.00     0.280 HD
HETATM   21  C   UNL     1      42.703  -8.870  11.786  1.00  0.00     0.235 C 
HETATM   22  C   UNL     1      43.475  -9.871  12.632  1.00  0.00     0.028 C 
HETATM   23  C   UNL     1      42.787 -10.127  13.968  1.00  0.00     0.003 C 
HETATM   24  C   UNL     1      41.335 -10.544  13.768  1.00  0.00     0.028 C 
HETATM   25  C   UNL     1      40.573  -9.543  12.912  1.00  0.00     0.235 C 
ENDBRANCH  18  19
ENDBRANCH  15  18
ENDBRANCH  12  13
ENDBRANCH   1  12
BRANCH   9  26
HETATM   26  C   UNL     1      41.514 -15.296   1.701  1.00  0.00     0.100 C 
BRANCH  26  27
HETATM   27  C   UNL     1      41.639 -16.816   1.821  1.00  0.00     0.130 C 
BRANCH  27  28
HETATM   28  N   UNL     1      41.715 -17.393   3.160  1.00  0.00    -0.360 N 
HETATM   29  C   UNL     1      42.756 -18.125   3.677  1.00  0.00     0.222 C 
HETATM   30  O   UNL     1      43.703 -18.539   3.012  1.00  0.00    -0.273 OA
HETATM   31  H   UNL     1      41.017 -17.047   3.810  1.00  0.00     0.162 HD
BRANCH  29  32
HETATM   32  C   UNL     1      42.591 -18.435   5.170  1.00  0.00     0.082 C 
HETATM   33  C   UNL     1      43.713 -19.346   5.677  1.00  0.00     0.040 C 
HETATM   34  C   UNL     1      45.029 -18.585   5.776  1.00  0.00     0.168 C 
HETATM   35  O   UNL     1      44.906 -17.426   6.603  1.00  0.00    -0.391 OA
HETATM   36  C   UNL     1      43.909 -16.512   6.160  1.00  0.00     0.168 C 
HETATM   37  C   UNL     1      42.540 -17.162   6.020  1.00  0.00     0.040 C 
ENDBRANCH  29  32
ENDBRANCH  27  28
ENDBRANCH  26  27
ENDBRANCH   9  26
TORSDOF 8
ENDMDL
MODEL 6
REMARK VINA RESULT:      -8.3      2.044      2.994
REMARK  8 active torsions:
REMARK  status: ('A' for Active; 'I' for Inactive)
REMARK    1  A    between atoms: C_2  and  C_3 
REMARK    2  A    between atoms: C_3  and  N_4 
REMARK    3  A    between atoms: C_12  and  C_13 
REMARK    4  A    between atoms: C_13  and  N_14 
REMARK    5  A    between atoms: C_22  and  C_23 
REMARK    6  A    between atoms: C_23  and  C_24 
REMARK    7  A    between atoms: C_24  and  N_25 
REMARK       I    between atoms: N_25  and  C_26 
REMARK    8  A    between atoms: C_26  and  C_27 
ROOT
HETATM    1  N   UNL     1      39.963 -13.803   1.862  1.00  0.00    -0.065 N 
HETATM    2  H   UNL     1      39.182 -14.345   1.463  1.00  0.00     0.280 HD
HETATM    3  C   UNL     1      40.005 -14.173   3.343  1.00  0.00     0.255 C 
HETATM    4  C   UNL     1      40.668 -13.109   4.208  1.00  0.00     0.159 C 
HETATM    5  N   UNL     1      39.751 -12.058   4.590  1.00  0.00    -0.319 N 
HETATM    6  C   UNL     1      38.807 -11.464   3.783  1.00  0.00     0.131 A 
HETATM    7  C   UNL     1      38.471 -11.821   2.377  1.00  0.00     0.108 C 
HETATM    8  C   UNL     1      39.647 -12.337   1.561  1.00  0.00     0.243 C 
HETATM    9  C   UNL     1      39.627 -11.463   5.822  1.00  0.00     0.131 A 
HETATM   10  N   UNL     1      38.704 -10.528   5.739  1.00  0.00    -0.135 NA
HETATM   11  N   UNL     1      38.187 -10.538   4.475  1.00  0.00    -0.135 NA
ENDROOT
BRANCH   1  12
HETATM   12  C   UNL     1      41.185 -14.258   1.080  1.00  0.00     0.280 C 
BRANCH  12  13
HETATM   13  C   UNL     1      41.687 -15.627   1.449  1.00  0.00     0.009 A 
HETATM   14  S   UNL     1      43.033 -15.826   2.494  1.00  0.00    -0.096 SA
HETATM   15  C   UNL     1      42.899 -17.538   2.484  1.00  0.00     0.009 A 
HETATM   16  C   UNL     1      41.852 -17.946   1.680  1.00  0.00     0.017 A 
HETATM   17  C   UNL     1      41.163 -16.850   1.079  1.00  0.00     0.017 A 
BRANCH  15  18
HETATM   18  C   UNL     1      43.825 -18.374   3.327  1.00  0.00     0.280 C 
BRANCH  18  19
HETATM   19  N   UNL     1      43.871 -17.960   4.785  1.00  0.00    -0.067 N 
HETATM   20  H   UNL     1      44.129 -16.966   4.803  1.00  0.00     0.280 HD
HETATM   21  C   UNL     1      42.536 -18.103   5.481  1.00  0.00     0.235 C 
HETATM   22  C   UNL     1      42.638 -17.554   6.896  1.00  0.00     0.028 C 
HETATM   23  C   UNL     1      43.748 -18.237   7.686  1.00  0.00     0.003 C 
HETATM   24  C   UNL     1      45.077 -18.162   6.945  1.00  0.00     0.028 C 
HETATM   25  C   UNL     1      44.964 -18.705   5.527  1.00  0.00     0.235 C 
ENDBRANCH  18  19
ENDBRANCH  15  18
ENDBRANCH  12  13
ENDBRANCH   1  12
BRANCH   9  26
HETATM   26  C   UNL     1      40.390 -11.812   7.055  1.00  0.00     0.100 C 
BRANCH  26  27
HETATM   27  C   UNL     1      40.332 -10.716   8.122  1.00  0.00     0.130 C 
BRANCH  27  28
HETATM   28  N   UNL     1      41.564 -10.385   8.831  1.00  0.00    -0.360 N 
HETATM   29  C   UNL     1      41.832 -10.620  10.158  1.00  0.00     0.222 C 
HETATM   30  O   UNL     1      40.993 -10.994  10.974  1.00  0.00    -0.273 OA
HETATM   31  H   UNL     1      42.345 -10.140   8.232  1.00  0.00     0.162 HD
BRANCH  29  32
HETATM   32  C   UNL     1      43.284 -10.307  10.543  1.00  0.00     0.082 C 
HETATM   33  C   UNL     1      43.595 -10.778  11.967  1.00  0.00     0.040 C 
HETATM   34  C   UNL     1      43.697 -12.296  12.029  1.00  0.00     0.168 C 
HETATM   35  O   UNL     1      44.666 -12.796  11.107  1.00  0.00    -0.391 OA
HETATM   36  C   UNL     1      44.409 -12.434   9.755  1.00  0.00     0.168 C 
HETATM   37  C   UNL     1      44.286 -10.928   9.566  1.00  0.00     0.040 C 
ENDBRANCH  29  32
ENDBRANCH  27  28
ENDBRANCH  26  27
ENDBRANCH   9  26
TORSDOF 8
ENDMDL
MODEL 7
REMARK VINA RESULT:      -8.3      6.227      9.877
REMARK  8 active torsions:
REMARK  status: ('A' for Active; 'I' for Inactive)
REMARK    1  A    between atoms: C_2  and  C_3 
REMARK    2  A    between atoms: C_3  and  N_4 
REMARK    3  A    between atoms: C_12  and  C_13 
REMARK    4  A    between atoms: C_13  and  N_14 
REMARK    5  A    between atoms: C_22  and  C_23 
REMARK    6  A    between atoms: C_23  and  C_24 
REMARK    7  A    between atoms: C_24  and  N_25 
REMARK       I    between atoms: N_25  and  C_26 
REMARK    8  A    between atoms: C_26  and  C_27 
ROOT
HETATM    1  N   UNL     1      40.532 -14.704   1.349  1.00  0.00    -0.065 N 
HETATM    2  H   UNL     1      40.477 -15.589   1.874  1.00  0.00     0.280 HD
HETATM    3  C   UNL     1      39.188 -14.566   0.637  1.00  0.00     0.255 C 
HETATM    4  C   UNL     1      39.252 -13.677  -0.598  1.00  0.00     0.159 C 
HETATM    5  N   UNL     1      39.696 -14.395  -1.773  1.00  0.00    -0.319 N 
HETATM    6  C   UNL     1      40.712 -15.322  -1.827  1.00  0.00     0.131 A 
HETATM    7  C   UNL     1      41.517 -15.845  -0.688  1.00  0.00     0.108 C 
HETATM    8  C   UNL     1      41.748 -14.841   0.431  1.00  0.00     0.243 C 
HETATM    9  C   UNL     1      39.190 -14.310  -3.047  1.00  0.00     0.131 A 
HETATM   10  N   UNL     1      39.900 -15.097  -3.827  1.00  0.00    -0.135 NA
HETATM   11  N   UNL     1      40.838 -15.734  -3.066  1.00  0.00    -0.135 NA
ENDROOT
BRANCH   1  12
HETATM   12  C   UNL     1      40.778 -13.643   2.409  1.00  0.00     0.280 C 
BRANCH  12  13
HETATM   13  C   UNL     1      41.615 -14.104   3.571  1.00  0.00     0.009 A 
HETATM   14  S   UNL     1      41.143 -15.450   4.525  1.00  0.00    -0.096 SA
HETATM   15  C   UNL     1      42.566 -15.379   5.485  1.00  0.00     0.009 A 
HETATM   16  C   UNL     1      43.376 -14.332   5.089  1.00  0.00     0.017 A 
HETATM   17  C   UNL     1      42.825 -13.595   3.997  1.00  0.00     0.017 A 
BRANCH  15  18
HETATM   18  C   UNL     1      42.811 -16.414   6.550  1.00  0.00     0.280 C 
BRANCH  18  19
HETATM   19  N   UNL     1      43.069 -17.806   6.008  1.00  0.00    -0.067 N 
HETATM   20  H   UNL     1      42.155 -18.198   5.751  1.00  0.00     0.280 HD
HETATM   21  C   UNL     1      43.935 -17.805   4.769  1.00  0.00     0.235 C 
HETATM   22  C   UNL     1      44.042 -19.220   4.221  1.00  0.00     0.028 C 
HETATM   23  C   UNL     1      44.578 -20.190   5.267  1.00  0.00     0.003 C 
HETATM   24  C   UNL     1      43.751 -20.131   6.546  1.00  0.00     0.028 C 
HETATM   25  C   UNL     1      43.641 -18.711   7.082  1.00  0.00     0.235 C 
ENDBRANCH  18  19
ENDBRANCH  15  18
ENDBRANCH  12  13
ENDBRANCH   1  12
BRANCH   9  26
HETATM   26  C   UNL     1      38.028 -13.483  -3.484  1.00  0.00     0.100 C 
BRANCH  26  27
HETATM   27  C   UNL     1      38.428 -12.063  -3.893  1.00  0.00     0.130 C 
BRANCH  27  28
HETATM   28  N   UNL     1      39.848 -11.778  -4.076  1.00  0.00    -0.360 N 
HETATM   29  C   UNL     1      40.548 -10.728  -3.534  1.00  0.00     0.222 C 
HETATM   30  O   UNL     1      40.025  -9.781  -2.950  1.00  0.00    -0.273 OA
HETATM   31  H   UNL     1      40.383 -12.539  -4.481  1.00  0.00     0.162 HD
BRANCH  29  32
HETATM   32  C   UNL     1      42.058 -10.817  -3.785  1.00  0.00     0.082 C 
HETATM   33  C   UNL     1      42.807  -9.680  -3.083  1.00  0.00     0.040 C 
HETATM   34  C   UNL     1      42.842  -9.900  -1.576  1.00  0.00     0.168 C 
HETATM   35  O   UNL     1      43.415 -11.165  -1.242  1.00  0.00    -0.391 OA
HETATM   36  C   UNL     1      42.736 -12.271  -1.825  1.00  0.00     0.168 C 
HETATM   37  C   UNL     1      42.636 -12.164  -3.340  1.00  0.00     0.040 C 
ENDBRANCH  29  32
ENDBRANCH  27  28
ENDBRANCH  26  27
ENDBRANCH   9  26
TORSDOF 8
ENDMDL
MODEL 8
REMARK VINA RESULT:      -8.2      5.114      8.304
REMARK  8 active torsions:
REMARK  status: ('A' for Active; 'I' for Inactive)
REMARK    1  A    between atoms: C_2  and  C_3 
REMARK    2  A    between atoms: C_3  and  N_4 
REMARK    3  A    between atoms: C_12  and  C_13 
REMARK    4  A    between atoms: C_13  and  N_14 
REMARK    5  A    between atoms: C_22  and  C_23 
REMARK    6  A    between atoms: C_23  and  C_24 
REMARK    7  A    between atoms: C_24  and  N_25 
REMARK       I    between atoms: N_25  and  C_26 
REMARK    8  A    between atoms: C_26  and  C_27 
ROOT
HETATM    1  N   UNL     1      40.754 -14.201   5.363  1.00  0.00    -0.065 N 
HETATM    2  H   UNL     1      41.653 -13.908   5.773  1.00  0.00     0.280 HD
HETATM    3  C   UNL     1      40.832 -13.811   3.888  1.00  0.00     0.255 C 
HETATM    4  C   UNL     1      39.464 -13.625   3.244  1.00  0.00     0.159 C 
HETATM    5  N   UNL     1      38.922 -12.304   3.471  1.00  0.00    -0.319 N 
HETATM    6  C   UNL     1      38.971 -11.592   4.648  1.00  0.00     0.131 A 
HETATM    7  C   UNL     1      39.653 -11.986   5.912  1.00  0.00     0.108 C 
HETATM    8  C   UNL     1      39.674 -13.484   6.173  1.00  0.00     0.243 C 
HETATM    9  C   UNL     1      38.276 -11.498   2.565  1.00  0.00     0.131 A 
HETATM   10  N   UNL     1      37.909 -10.394   3.181  1.00  0.00    -0.135 NA
HETATM   11  N   UNL     1      38.352 -10.449   4.472  1.00  0.00    -0.135 NA
ENDROOT
BRANCH   1  12
HETATM   12  C   UNL     1      40.695 -15.701   5.600  1.00  0.00     0.280 C 
BRANCH  12  13
HETATM   13  C   UNL     1      42.037 -16.358   5.774  1.00  0.00     0.009 A 
HETATM   14  S   UNL     1      42.328 -17.948   5.199  1.00  0.00    -0.096 SA
HETATM   15  C   UNL     1      43.981 -17.908   5.665  1.00  0.00     0.009 A 
HETATM   16  C   UNL     1      44.296 -16.704   6.264  1.00  0.00     0.017 A 
HETATM   17  C   UNL     1      43.177 -15.819   6.335  1.00  0.00     0.017 A 
BRANCH  15  18
HETATM   18  C   UNL     1      44.882 -19.073   5.353  1.00  0.00     0.280 C 
BRANCH  18  19
HETATM   19  N   UNL     1      44.321 -20.026   4.316  1.00  0.00    -0.067 N 
HETATM   20  H   UNL     1      43.339 -20.193   4.567  1.00  0.00     0.280 HD
HETATM   21  C   UNL     1      44.348 -19.455   2.916  1.00  0.00     0.235 C 
HETATM   22  C   UNL     1      43.658 -20.417   1.961  1.00  0.00     0.028 C 
HETATM   23  C   UNL     1      44.290 -21.803   2.003  1.00  0.00     0.003 C 
HETATM   24  C   UNL     1      44.336 -22.343   3.427  1.00  0.00     0.028 C 
HETATM   25  C   UNL     1      45.018 -21.371   4.379  1.00  0.00     0.235 C 
ENDBRANCH  18  19
ENDBRANCH  15  18
ENDBRANCH  12  13
ENDBRANCH   1  12
BRANCH   9  26
HETATM   26  C   UNL     1      38.034 -11.801   1.125  1.00  0.00     0.100 C 
BRANCH  26  27
HETATM   27  C   UNL     1      39.162 -11.308   0.215  1.00  0.00     0.130 C 
BRANCH  27  28
HETATM   28  N   UNL     1      40.230 -12.245  -0.120  1.00  0.00    -0.360 N 
HETATM   29  C   UNL     1      40.079 -13.562  -0.481  1.00  0.00     0.222 C 
HETATM   30  O   UNL     1      39.019 -14.179  -0.405  1.00  0.00    -0.273 OA
HETATM   31  H   UNL     1      41.134 -11.815  -0.283  1.00  0.00     0.162 HD
BRANCH  29  32
HETATM   32  C   UNL     1      41.391 -14.215  -0.934  1.00  0.00     0.082 C 
HETATM   33  C   UNL     1      41.140 -15.590  -1.562  1.00  0.00     0.040 C 
HETATM   34  C   UNL     1      40.500 -15.452  -2.938  1.00  0.00     0.168 C 
HETATM   35  O   UNL     1      41.290 -14.636  -3.805  1.00  0.00    -0.391 OA
HETATM   36  C   UNL     1      41.522 -13.326  -3.302  1.00  0.00     0.168 C 
HETATM   37  C   UNL     1      42.162 -13.334  -1.921  1.00  0.00     0.040 C 
ENDBRANCH  29  32
ENDBRANCH  27  28
ENDBRANCH  26  27
ENDBRANCH   9  26
TORSDOF 8
ENDMDL
MODEL 9
REMARK VINA RESULT:      -8.2      4.704     11.520
REMARK  8 active torsions:
REMARK  status: ('A' for Active; 'I' for Inactive)
REMARK    1  A    between atoms: C_2  and  C_3 
REMARK    2  A    between atoms: C_3  and  N_4 
REMARK    3  A    between atoms: C_12  and  C_13 
REMARK    4  A    between atoms: C_13  and  N_14 
REMARK    5  A    between atoms: C_22  and  C_23 
REMARK    6  A    between atoms: C_23  and  C_24 
REMARK    7  A    between atoms: C_24  and  N_25 
REMARK       I    between atoms: N_25  and  C_26 
REMARK    8  A    between atoms: C_26  and  C_27 
ROOT
HETATM    1  N   UNL     1      41.098 -13.553   6.157  1.00  0.00    -0.065 N 
HETATM    2  H   UNL     1      40.983 -13.750   7.162  1.00  0.00     0.280 HD
HETATM    3  C   UNL     1      40.213 -14.568   5.436  1.00  0.00     0.255 C 
HETATM    4  C   UNL     1      40.653 -14.835   4.002  1.00  0.00     0.159 C 
HETATM    5  N   UNL     1      41.701 -15.829   3.922  1.00  0.00    -0.319 N 
HETATM    6  C   UNL     1      42.788 -15.937   4.758  1.00  0.00     0.131 A 
HETATM    7  C   UNL     1      43.084 -15.116   5.964  1.00  0.00     0.108 C 
HETATM    8  C   UNL     1      42.597 -13.677   5.879  1.00  0.00     0.243 C 
HETATM    9  C   UNL     1      41.809 -16.859   3.020  1.00  0.00     0.131 A 
HETATM   10  N   UNL     1      42.927 -17.509   3.267  1.00  0.00    -0.135 NA
HETATM   11  N   UNL     1      43.528 -16.943   4.355  1.00  0.00    -0.135 NA
ENDROOT
BRANCH   1  12
HETATM   12  C   UNL     1      40.640 -12.112   5.993  1.00  0.00     0.280 C 
BRANCH  12  13
HETATM   13  C   UNL     1      40.487 -11.356   7.284  1.00  0.00     0.009 A 
HETATM   14  S   UNL     1      41.624 -10.159   7.751  1.00  0.00    -0.096 SA
HETATM   15  C   UNL     1      40.740  -9.748   9.166  1.00  0.00     0.009 A 
HETATM   16  C   UNL     1      39.605 -10.527   9.283  1.00  0.00     0.017 A 
HETATM   17  C   UNL     1      39.466 -11.457   8.208  1.00  0.00     0.017 A 
BRANCH  15  18
HETATM   18  C   UNL     1      41.213  -8.627  10.052  1.00  0.00     0.280 C 
BRANCH  18  19
HETATM   19  N   UNL     1      41.681  -9.080  11.422  1.00  0.00    -0.067 N 
HETATM   20  H   UNL     1      40.971  -9.732  11.777  1.00  0.00     0.280 HD
HETATM   21  C   UNL     1      43.002  -9.814  11.379  1.00  0.00     0.235 C 
HETATM   22  C   UNL     1      43.337 -10.339  12.767  1.00  0.00     0.028 C 
HETATM   23  C   UNL     1      43.361  -9.221  13.801  1.00  0.00     0.003 C 
HETATM   24  C   UNL     1      42.058  -8.430  13.787  1.00  0.00     0.028 C 
HETATM   25  C   UNL     1      41.725  -7.916  12.394  1.00  0.00     0.235 C 
ENDBRANCH  18  19
ENDBRANCH  15  18
ENDBRANCH  12  13
ENDBRANCH   1  12
BRANCH   9  26
HETATM   26  C   UNL     1      40.832 -17.203   1.947  1.00  0.00     0.100 C 
BRANCH  26  27
HETATM   27  C   UNL     1      41.353 -16.888   0.543  1.00  0.00     0.130 C 
BRANCH  27  28
HETATM   28  N   UNL     1      40.718 -15.801  -0.195  1.00  0.00    -0.360 N 
HETATM   29  C   UNL     1      41.050 -14.469  -0.137  1.00  0.00     0.222 C 
HETATM   30  O   UNL     1      41.830 -13.989   0.683  1.00  0.00    -0.273 OA
HETATM   31  H   UNL     1      40.113 -16.100  -0.952  1.00  0.00     0.162 HD
BRANCH  29  32
HETATM   32  C   UNL     1      40.300 -13.616  -1.167  1.00  0.00     0.082 C 
HETATM   33  C   UNL     1      41.244 -12.638  -1.874  1.00  0.00     0.040 C 
HETATM   34  C   UNL     1      42.155 -13.371  -2.850  1.00  0.00     0.168 C 
HETATM   35  O   UNL     1      41.406 -14.129  -3.801  1.00  0.00    -0.391 OA
HETATM   36  C   UNL     1      40.541 -15.092  -3.211  1.00  0.00     0.168 C 
HETATM   37  C   UNL     1      39.576 -14.474  -2.208  1.00  0.00     0.040 C 
ENDBRANCH  29  32
ENDBRANCH  27  28
ENDBRANCH  26  27
ENDBRANCH   9  26
TORSDOF 8
ENDMDL
MODEL 10
REMARK VINA RESULT:      -8.2      2.140      2.756
REMARK  8 active torsions:
REMARK  status: ('A' for Active; 'I' for Inactive)
REMARK    1  A    between atoms: C_2  and  C_3 
REMARK    2  A    between atoms: C_3  and  N_4 
REMARK    3  A    between atoms: C_12  and  C_13 
REMARK    4  A    between atoms: C_13  and  N_14 
REMARK    5  A    between atoms: C_22  and  C_23 
REMARK    6  A    between atoms: C_23  and  C_24 
REMARK    7  A    between atoms: C_24  and  N_25 
REMARK       I    between atoms: N_25  and  C_26 
REMARK    8  A    between atoms: C_26  and  C_27 
ROOT
HETATM    1  N   UNL     1      40.401 -13.168   4.692  1.00  0.00    -0.065 N 
HETATM    2  H   UNL     1      39.687 -13.907   4.763  1.00  0.00     0.280 HD
HETATM    3  C   UNL     1      40.586 -12.638   6.113  1.00  0.00     0.255 C 
HETATM    4  C   UNL     1      41.134 -11.218   6.157  1.00  0.00     0.159 C 
HETATM    5  N   UNL     1      40.097 -10.221   6.017  1.00  0.00    -0.319 N 
HETATM    6  C   UNL     1      39.029 -10.269   5.150  1.00  0.00     0.131 A 
HETATM    7  C   UNL     1      38.666 -11.380   4.229  1.00  0.00     0.108 C 
HETATM    8  C   UNL     1      39.855 -12.158   3.682  1.00  0.00     0.243 C 
HETATM    9  C   UNL     1      39.960  -9.051   6.726  1.00  0.00     0.131 A 
HETATM   10  N   UNL     1      38.905  -8.411   6.266  1.00  0.00    -0.135 NA
HETATM   11  N   UNL     1      38.321  -9.174   5.296  1.00  0.00    -0.135 NA
ENDROOT
BRANCH   1  12
HETATM   12  C   UNL     1      41.628 -13.872   4.134  1.00  0.00     0.280 C 
BRANCH  12  13
HETATM   13  C   UNL     1      42.471 -14.568   5.168  1.00  0.00     0.009 A 
HETATM   14  S   UNL     1      42.026 -16.106   5.784  1.00  0.00    -0.096 SA
HETATM   15  C   UNL     1      43.443 -16.225   6.749  1.00  0.00     0.009 A 
HETATM   16  C   UNL     1      44.230 -15.098   6.611  1.00  0.00     0.017 A 
HETATM   17  C   UNL     1      43.667 -14.144   5.711  1.00  0.00     0.017 A 
BRANCH  15  18
HETATM   18  C   UNL     1      43.707 -17.471   7.552  1.00  0.00     0.280 C 
BRANCH  18  19
HETATM   19  N   UNL     1      43.679 -18.748   6.735  1.00  0.00    -0.067 N 
HETATM   20  H   UNL     1      42.747 -18.805   6.307  1.00  0.00     0.280 HD
HETATM   21  C   UNL     1      44.701 -18.757   5.621  1.00  0.00     0.235 C 
HETATM   22  C   UNL     1      44.523 -20.011   4.777  1.00  0.00     0.028 C 
HETATM   23  C   UNL     1      44.619 -21.275   5.623  1.00  0.00     0.003 C 
HETATM   24  C   UNL     1      43.644 -21.229   6.793  1.00  0.00     0.028 C 
HETATM   25  C   UNL     1      43.821 -19.967   7.626  1.00  0.00     0.235 C 
ENDBRANCH  18  19
ENDBRANCH  15  18
ENDBRANCH  12  13
ENDBRANCH   1  12
BRANCH   9  26
HETATM   26  C   UNL     1      40.839  -8.580   7.834  1.00  0.00     0.100 C 
BRANCH  26  27
HETATM   27  C   UNL     1      40.574  -9.307   9.155  1.00  0.00     0.130 C 
BRANCH  27  28
HETATM   28  N   UNL     1      41.705  -9.542  10.046  1.00  0.00    -0.360 N 
HETATM   29  C   UNL     1      42.893 -10.148   9.716  1.00  0.00     0.222 C 
HETATM   30  O   UNL     1      43.097 -10.730   8.653  1.00  0.00    -0.273 OA
HETATM   31  H   UNL     1      41.665  -9.036  10.924  1.00  0.00     0.162 HD
BRANCH  29  32
HETATM   32  C   UNL     1      43.935 -10.082  10.841  1.00  0.00     0.082 C 
HETATM   33  C   UNL     1      43.269 -10.136  12.219  1.00  0.00     0.040 C 
HETATM   34  C   UNL     1      42.745 -11.534  12.516  1.00  0.00     0.168 C 
HETATM   35  O   UNL     1      43.777 -12.516  12.414  1.00  0.00    -0.391 OA
HETATM   36  C   UNL     1      44.407 -12.552  11.139  1.00  0.00     0.168 C 
HETATM   37  C   UNL     1      44.975 -11.200  10.729  1.00  0.00     0.040 C 
ENDBRANCH  29  32
ENDBRANCH  27  28
ENDBRANCH  26  27
ENDBRANCH   9  26
TORSDOF 8
ENDMDL
