MODEL 1
REMARK VINA RESULT:      -9.5      0.000      0.000
REMARK  7 active torsions:
REMARK  status: ('A' for Active; 'I' for Inactive)
REMARK    1  A    between atoms: O_2  and  C_3 
REMARK    2  A    between atoms: C_6  and  C_11 
REMARK    3  A    between atoms: C_8  and  O_9 
REMARK       I    between atoms: C_11  and  N_13 
REMARK    4  A    between atoms: N_13  and  C_14 
REMARK    5  A    between atoms: C_14  and  C_16 
REMARK    6  A    between atoms: C_20  and  C_22 
REMARK       I    between atoms: C_22  and  N_24 
REMARK    7  A    between atoms: N_24  and  C_25 
ROOT
HETATM    1  C   UNL     1      41.163 -11.525   6.564  1.00  0.00    -0.035 A 
HETATM    2  C   UNL     1      39.769 -11.710   6.591  1.00  0.00     0.009 A 
HETATM    3  C   UNL     1      39.188 -12.848   6.036  1.00  0.00     0.002 A 
HETATM    4  C   UNL     1      39.989 -13.812   5.428  1.00  0.00     0.017 A 
HETATM    5  C   UNL     1      41.378 -13.641   5.363  1.00  0.00     0.033 A 
HETATM    6  C   UNL     1      41.959 -12.503   5.942  1.00  0.00     0.026 A 
ENDROOT
BRANCH   1   7
HETATM    7  C   UNL     1      41.759 -10.260   7.158  1.00  0.00     0.114 C 
HETATM    8  C   UNL     1      41.215  -8.948   6.586  1.00  0.00     0.037 C 
BRANCH   7   9
HETATM    9  N   UNL     1      41.751 -10.322   8.615  1.00  0.00    -0.349 N 
HETATM   10  C   UNL     1      42.860 -10.587   9.390  1.00  0.00     0.252 C 
HETATM   11  O   UNL     1      43.965 -10.854   8.927  1.00  0.00    -0.268 OA
HETATM   12  H   UNL     1      40.958  -9.880   9.051  1.00  0.00     0.163 HD
BRANCH  10  13
HETATM   13  C   UNL     1      42.687 -10.509  10.875  1.00  0.00     0.034 A 
HETATM   14  C   UNL     1      43.679  -9.863  11.620  1.00  0.00     0.020 A 
HETATM   15  C   UNL     1      43.576  -9.759  13.012  1.00  0.00     0.040 A 
HETATM   16  C   UNL     1      42.473 -10.288  13.694  1.00  0.00     0.101 A 
HETATM   17  C   UNL     1      41.470 -10.937  12.950  1.00  0.00     0.102 A 
HETATM   18  C   UNL     1      41.598 -11.063  11.556  1.00  0.00     0.056 A 
BRANCH  16  19
HETATM   19  O   UNL     1      42.340 -10.245  15.055  1.00  0.00    -0.353 OA
HETATM   20  C   UNL     1      42.176  -8.974  15.672  1.00  0.00     0.210 C 
ENDBRANCH  16  19
BRANCH  17  21
HETATM   21  O   UNL     1      40.326 -11.530  13.424  1.00  0.00    -0.353 OA
HETATM   22  C   UNL     1      39.787 -12.614  12.678  1.00  0.00     0.210 C 
ENDBRANCH  17  21
ENDBRANCH  10  13
ENDBRANCH   7   9
ENDBRANCH   1   7
BRANCH   5  23
HETATM   23  C   UNL     1      42.183 -14.706   4.695  1.00  0.00     0.256 C 
HETATM   24  O   UNL     1      43.382 -14.498   4.538  1.00  0.00    -0.267 OA
HETATM   25  N   UNL     1      41.494 -15.856   4.344  1.00  0.00    -0.323 N 
HETATM   26  H   UNL     1      40.523 -15.921   4.622  1.00  0.00     0.169 HD
BRANCH  25  27
HETATM   27  C   UNL     1      42.017 -16.996   3.693  1.00  0.00     0.035 A 
HETATM   28  C   UNL     1      41.810 -17.286   2.344  1.00  0.00     0.030 A 
HETATM   29  C   UNL     1      42.369 -18.429   1.767  1.00  0.00     0.010 A 
HETATM   30  C   UNL     1      43.147 -19.303   2.531  1.00  0.00    -0.048 A 
HETATM   31  C   UNL     1      43.716 -20.553   1.910  1.00  0.00     0.069 C 
HETATM   32  C   UNL     1      43.341 -19.044   3.897  1.00  0.00    -0.022 A 
HETATM   33  C   UNL     1      44.825 -21.181   2.763  1.00  0.00     0.277 C 
HETATM   34  N   UNL     1      44.394 -21.300   4.162  1.00  0.00     0.088 N 
HETATM   35  C   UNL     1      45.365 -22.062   4.944  1.00  0.00     0.310 C 
HETATM   36  C   UNL     1      44.201 -19.959   4.745  1.00  0.00     0.311 C 
HETATM   37  C   UNL     1      42.783 -17.883   4.463  1.00  0.00     0.039 A 
ENDBRANCH  25  27
ENDBRANCH   5  23
TORSDOF 7
ENDMDL
MODEL 2
REMARK VINA RESULT:      -8.8      3.619      5.564
REMARK  7 active torsions:
REMARK  status: ('A' for Active; 'I' for Inactive)
REMARK    1  A    between atoms: O_2  and  C_3 
REMARK    2  A    between atoms: C_6  and  C_11 
REMARK    3  A    between atoms: C_8  and  O_9 
REMARK       I    between atoms: C_11  and  N_13 
REMARK    4  A    between atoms: N_13  and  C_14 
REMARK    5  A    between atoms: C_14  and  C_16 
REMARK    6  A    between atoms: C_20  and  C_22 
REMARK       I    between atoms: C_22  and  N_24 
REMARK    7  A    between atoms: N_24  and  C_25 
ROOT
HETATM    1  C   UNL     1      43.829 -15.302   6.949  1.00  0.00    -0.035 A 
HETATM    2  C   UNL     1      43.579 -16.381   7.815  1.00  0.00     0.009 A 
HETATM    3  C   UNL     1      42.675 -17.383   7.466  1.00  0.00     0.002 A 
HETATM    4  C   UNL     1      41.992 -17.312   6.255  1.00  0.00     0.017 A 
HETATM    5  C   UNL     1      42.201 -16.234   5.385  1.00  0.00     0.033 A 
HETATM    6  C   UNL     1      43.128 -15.240   5.732  1.00  0.00     0.026 A 
ENDROOT
BRANCH   1   7
HETATM    7  C   UNL     1      44.803 -14.217   7.374  1.00  0.00     0.114 C 
HETATM    8  C   UNL     1      45.686 -13.654   6.256  1.00  0.00     0.037 C 
BRANCH   7   9
HETATM    9  N   UNL     1      44.125 -13.198   8.168  1.00  0.00    -0.349 N 
HETATM   10  C   UNL     1      44.712 -12.489   9.194  1.00  0.00     0.252 C 
HETATM   11  O   UNL     1      45.860 -12.685   9.584  1.00  0.00    -0.268 OA
HETATM   12  H   UNL     1      43.289 -12.825   7.748  1.00  0.00     0.163 HD
BRANCH  10  13
HETATM   13  C   UNL     1      43.895 -11.409   9.831  1.00  0.00     0.034 A 
HETATM   14  C   UNL     1      44.318 -10.905  11.065  1.00  0.00     0.020 A 
HETATM   15  C   UNL     1      43.596  -9.896  11.712  1.00  0.00     0.040 A 
HETATM   16  C   UNL     1      42.440  -9.356  11.137  1.00  0.00     0.101 A 
HETATM   17  C   UNL     1      42.010  -9.855   9.893  1.00  0.00     0.102 A 
HETATM   18  C   UNL     1      42.725 -10.891   9.266  1.00  0.00     0.056 A 
BRANCH  16  19
HETATM   19  O   UNL     1      41.678  -8.393  11.742  1.00  0.00    -0.353 OA
HETATM   20  C   UNL     1      40.647  -8.812  12.626  1.00  0.00     0.210 C 
ENDBRANCH  16  19
BRANCH  17  21
HETATM   21  O   UNL     1      40.906  -9.475   9.172  1.00  0.00    -0.353 OA
HETATM   22  C   UNL     1      39.890 -10.447   8.958  1.00  0.00     0.210 C 
ENDBRANCH  17  21
ENDBRANCH  10  13
ENDBRANCH   7   9
ENDBRANCH   1   7
BRANCH   5  23
HETATM   23  C   UNL     1      41.436 -16.211   4.103  1.00  0.00     0.256 C 
HETATM   24  O   UNL     1      41.136 -17.289   3.601  1.00  0.00    -0.267 OA
HETATM   25  N   UNL     1      41.103 -14.956   3.618  1.00  0.00    -0.323 N 
HETATM   26  H   UNL     1      41.339 -14.157   4.193  1.00  0.00     0.169 HD
BRANCH  25  27
HETATM   27  C   UNL     1      40.400 -14.662   2.429  1.00  0.00     0.035 A 
HETATM   28  C   UNL     1      39.009 -14.635   2.333  1.00  0.00     0.030 A 
HETATM   29  C   UNL     1      38.383 -14.325   1.122  1.00  0.00     0.010 A 
HETATM   30  C   UNL     1      39.142 -14.035  -0.016  1.00  0.00    -0.048 A 
HETATM   31  C   UNL     1      38.460 -13.738  -1.327  1.00  0.00     0.069 C 
HETATM   32  C   UNL     1      40.543 -14.087   0.054  1.00  0.00    -0.022 A 
HETATM   33  C   UNL     1      39.404 -13.087  -2.346  1.00  0.00     0.277 C 
HETATM   34  N   UNL     1      40.662 -13.839  -2.435  1.00  0.00     0.088 N 
HETATM   35  C   UNL     1      41.491 -13.341  -3.531  1.00  0.00     0.310 C 
HETATM   36  C   UNL     1      41.392 -13.752  -1.156  1.00  0.00     0.311 C 
HETATM   37  C   UNL     1      41.160 -14.389   1.282  1.00  0.00     0.039 A 
ENDBRANCH  25  27
ENDBRANCH   5  23
TORSDOF 7
ENDMDL
MODEL 3
REMARK VINA RESULT:      -8.8      1.786      2.713
REMARK  7 active torsions:
REMARK  status: ('A' for Active; 'I' for Inactive)
REMARK    1  A    between atoms: O_2  and  C_3 
REMARK    2  A    between atoms: C_6  and  C_11 
REMARK    3  A    between atoms: C_8  and  O_9 
REMARK       I    between atoms: C_11  and  N_13 
REMARK    4  A    between atoms: N_13  and  C_14 
REMARK    5  A    between atoms: C_14  and  C_16 
REMARK    6  A    between atoms: C_20  and  C_22 
REMARK       I    between atoms: C_22  and  N_24 
REMARK    7  A    between atoms: N_24  and  C_25 
ROOT
HETATM    1  C   UNL     1      40.068 -11.274   4.508  1.00  0.00    -0.035 A 
HETATM    2  C   UNL     1      39.070 -11.458   3.535  1.00  0.00     0.009 A 
HETATM    3  C   UNL     1      39.093 -12.563   2.686  1.00  0.00     0.002 A 
HETATM    4  C   UNL     1      40.126 -13.492   2.784  1.00  0.00     0.017 A 
HETATM    5  C   UNL     1      41.148 -13.320   3.726  1.00  0.00     0.033 A 
HETATM    6  C   UNL     1      41.107 -12.217   4.592  1.00  0.00     0.026 A 
ENDROOT
BRANCH   1   7
HETATM    7  C   UNL     1      40.022 -10.045   5.399  1.00  0.00     0.114 C 
HETATM    8  C   UNL     1      38.805  -9.137   5.201  1.00  0.00     0.037 C 
BRANCH   7   9
HETATM    9  N   UNL     1      40.274 -10.407   6.789  1.00  0.00    -0.349 N 
HETATM   10  C   UNL     1      41.241  -9.829   7.583  1.00  0.00     0.252 C 
HETATM   11  O   UNL     1      42.033  -8.981   7.181  1.00  0.00    -0.268 OA
HETATM   12  H   UNL     1      39.520 -10.900   7.240  1.00  0.00     0.163 HD
BRANCH  10  13
HETATM   13  C   UNL     1      41.289 -10.254   9.018  1.00  0.00     0.034 A 
HETATM   14  C   UNL     1      40.082 -10.346   9.718  1.00  0.00     0.020 A 
HETATM   15  C   UNL     1      40.061 -10.735  11.061  1.00  0.00     0.040 A 
HETATM   16  C   UNL     1      41.245 -11.055  11.737  1.00  0.00     0.101 A 
HETATM   17  C   UNL     1      42.463 -10.968  11.038  1.00  0.00     0.102 A 
HETATM   18  C   UNL     1      42.477 -10.546   9.698  1.00  0.00     0.056 A 
BRANCH  16  19
HETATM   19  O   UNL     1      41.285 -11.408  13.059  1.00  0.00    -0.353 OA
HETATM   20  C   UNL     1      41.464 -10.378  14.022  1.00  0.00     0.210 C 
ENDBRANCH  16  19
BRANCH  17  21
HETATM   21  O   UNL     1      43.725 -11.223  11.516  1.00  0.00    -0.353 OA
HETATM   22  C   UNL     1      44.401 -12.370  11.018  1.00  0.00     0.210 C 
ENDBRANCH  17  21
ENDBRANCH  10  13
ENDBRANCH   7   9
ENDBRANCH   1   7
BRANCH   5  23
HETATM   23  C   UNL     1      42.231 -14.347   3.780  1.00  0.00     0.256 C 
HETATM   24  O   UNL     1      43.349 -14.015   3.401  1.00  0.00    -0.267 OA
HETATM   25  N   UNL     1      41.869 -15.582   4.292  1.00  0.00    -0.323 N 
HETATM   26  H   UNL     1      40.928 -15.679   4.653  1.00  0.00     0.169 HD
BRANCH  25  27
HETATM   27  C   UNL     1      42.695 -16.719   4.436  1.00  0.00     0.035 A 
HETATM   28  C   UNL     1      43.562 -16.921   5.510  1.00  0.00     0.030 A 
HETATM   29  C   UNL     1      44.342 -18.079   5.589  1.00  0.00     0.010 A 
HETATM   30  C   UNL     1      44.266 -19.056   4.593  1.00  0.00    -0.048 A 
HETATM   31  C   UNL     1      45.137 -20.284   4.667  1.00  0.00     0.069 C 
HETATM   32  C   UNL     1      43.422 -18.856   3.489  1.00  0.00    -0.022 A 
HETATM   33  C   UNL     1      44.665 -21.397   3.724  1.00  0.00     0.277 C 
HETATM   34  N   UNL     1      44.424 -20.863   2.377  1.00  0.00     0.088 N 
HETATM   35  C   UNL     1      44.154 -21.942   1.429  1.00  0.00     0.310 C 
HETATM   36  C   UNL     1      43.298 -19.911   2.407  1.00  0.00     0.311 C 
HETATM   37  C   UNL     1      42.633 -17.693   3.428  1.00  0.00     0.039 A 
ENDBRANCH  25  27
ENDBRANCH   5  23
TORSDOF 7
ENDMDL
MODEL 4
REMARK VINA RESULT:      -8.7      2.973      5.863
REMARK  7 active torsions:
REMARK  status: ('A' for Active; 'I' for Inactive)
REMARK    1  A    between atoms: O_2  and  C_3 
REMARK    2  A    between atoms: C_6  and  C_11 
REMARK    3  A    between atoms: C_8  and  O_9 
REMARK       I    between atoms: C_11  and  N_13 
REMARK    4  A    between atoms: N_13  and  C_14 
REMARK    5  A    between atoms: C_14  and  C_16 
REMARK    6  A    between atoms: C_20  and  C_22 
REMARK       I    between atoms: C_22  and  N_24 
REMARK    7  A    between atoms: N_24  and  C_25 
ROOT
HETATM    1  C   UNL     1      43.491 -10.925   9.944  1.00  0.00    -0.035 A 
HETATM    2  C   UNL     1      44.639 -10.733  10.734  1.00  0.00     0.009 A 
HETATM    3  C   UNL     1      45.833 -11.383  10.429  1.00  0.00     0.002 A 
HETATM    4  C   UNL     1      45.895 -12.249   9.340  1.00  0.00     0.017 A 
HETATM    5  C   UNL     1      44.760 -12.479   8.552  1.00  0.00     0.033 A 
HETATM    6  C   UNL     1      43.567 -11.806   8.852  1.00  0.00     0.026 A 
ENDROOT
BRANCH   1   7
HETATM    7  C   UNL     1      42.201 -10.218  10.322  1.00  0.00     0.114 C 
HETATM    8  C   UNL     1      42.344  -9.105  11.363  1.00  0.00     0.037 C 
BRANCH   7   9
HETATM    9  N   UNL     1      41.460  -9.825   9.128  1.00  0.00    -0.349 N 
HETATM   10  C   UNL     1      40.234 -10.339   8.766  1.00  0.00     0.252 C 
HETATM   11  O   UNL     1      39.660 -11.228   9.388  1.00  0.00    -0.268 OA
HETATM   12  H   UNL     1      41.749  -8.949   8.723  1.00  0.00     0.163 HD
BRANCH  10  13
HETATM   13  C   UNL     1      39.573  -9.744   7.562  1.00  0.00     0.034 A 
HETATM   14  C   UNL     1      38.777  -8.609   7.742  1.00  0.00     0.020 A 
HETATM   15  C   UNL     1      38.132  -8.006   6.656  1.00  0.00     0.040 A 
HETATM   16  C   UNL     1      38.276  -8.517   5.360  1.00  0.00     0.101 A 
HETATM   17  C   UNL     1      39.078  -9.656   5.170  1.00  0.00     0.102 A 
HETATM   18  C   UNL     1      39.697 -10.272   6.272  1.00  0.00     0.056 A 
BRANCH  16  19
HETATM   19  O   UNL     1      37.640  -7.988   4.269  1.00  0.00    -0.353 OA
HETATM   20  C   UNL     1      36.307  -8.405   4.003  1.00  0.00     0.210 C 
ENDBRANCH  16  19
BRANCH  17  21
HETATM   21  O   UNL     1      39.336 -10.316   3.994  1.00  0.00    -0.353 OA
HETATM   22  C   UNL     1      38.692 -11.565   3.782  1.00  0.00     0.210 C 
ENDBRANCH  17  21
ENDBRANCH  10  13
ENDBRANCH   7   9
ENDBRANCH   1   7
BRANCH   5  23
HETATM   23  C   UNL     1      44.887 -13.423   7.402  1.00  0.00     0.256 C 
HETATM   24  O   UNL     1      45.895 -13.340   6.708  1.00  0.00    -0.267 OA
HETATM   25  N   UNL     1      43.856 -14.335   7.249  1.00  0.00    -0.323 N 
HETATM   26  H   UNL     1      43.133 -14.344   7.958  1.00  0.00     0.169 HD
BRANCH  25  27
HETATM   27  C   UNL     1      43.730 -15.318   6.241  1.00  0.00     0.035 A 
HETATM   28  C   UNL     1      43.190 -15.073   4.978  1.00  0.00     0.030 A 
HETATM   29  C   UNL     1      43.109 -16.095   4.028  1.00  0.00     0.010 A 
HETATM   30  C   UNL     1      43.568 -17.381   4.326  1.00  0.00    -0.048 A 
HETATM   31  C   UNL     1      43.443 -18.485   3.308  1.00  0.00     0.069 C 
HETATM   32  C   UNL     1      44.087 -17.653   5.601  1.00  0.00    -0.022 A 
HETATM   33  C   UNL     1      44.317 -19.700   3.648  1.00  0.00     0.277 C 
HETATM   34  N   UNL     1      44.126 -20.095   5.049  1.00  0.00     0.088 N 
HETATM   35  C   UNL     1      44.808 -21.356   5.333  1.00  0.00     0.310 C 
HETATM   36  C   UNL     1      44.618 -19.031   5.944  1.00  0.00     0.311 C 
HETATM   37  C   UNL     1      44.175 -16.613   6.545  1.00  0.00     0.039 A 
ENDBRANCH  25  27
ENDBRANCH   5  23
TORSDOF 7
ENDMDL
MODEL 5
REMARK VINA RESULT:      -8.6      3.708      5.624
REMARK  7 active torsions:
REMARK  status: ('A' for Active; 'I' for Inactive)
REMARK    1  A    between atoms: O_2  and  C_3 
REMARK    2  A    between atoms: C_6  and  C_11 
REMARK    3  A    between atoms: C_8  and  O_9 
REMARK       I    between atoms: C_11  and  N_13 
REMARK    4  A    between atoms: N_13  and  C_14 
REMARK    5  A    between atoms: C_14  and  C_16 
REMARK    6  A    between atoms: C_20  and  C_22 
REMARK       I    between atoms: C_22  and  N_24 
REMARK    7  A    between atoms: N_24  and  C_25 
ROOT
HETATM    1  C   UNL     1      44.151 -14.316   7.079  1.00  0.00    -0.035 A 
HETATM    2  C   UNL     1      44.047 -15.702   7.286  1.00  0.00     0.009 A 
HETATM    3  C   UNL     1      43.237 -16.489   6.469  1.00  0.00     0.002 A 
HETATM    4  C   UNL     1      42.502 -15.898   5.444  1.00  0.00     0.017 A 
HETATM    5  C   UNL     1      42.566 -14.515   5.232  1.00  0.00     0.033 A 
HETATM    6  C   UNL     1      43.400 -13.732   6.044  1.00  0.00     0.026 A 
ENDROOT
BRANCH   1   7
HETATM    7  C   UNL     1      45.026 -13.488   8.005  1.00  0.00     0.114 C 
HETATM    8  C   UNL     1      46.281 -12.891   7.361  1.00  0.00     0.037 C 
BRANCH   7   9
HETATM    9  N   UNL     1      44.222 -12.524   8.748  1.00  0.00    -0.349 N 
HETATM   10  C   UNL     1      44.492 -12.110  10.035  1.00  0.00     0.252 C 
HETATM   11  O   UNL     1      45.413 -12.555  10.712  1.00  0.00    -0.268 OA
HETATM   12  H   UNL     1      43.619 -11.951   8.179  1.00  0.00     0.163 HD
BRANCH  10  13
HETATM   13  C   UNL     1      43.617 -11.036  10.603  1.00  0.00     0.034 A 
HETATM   14  C   UNL     1      42.629 -10.487   9.779  1.00  0.00     0.020 A 
HETATM   15  C   UNL     1      41.781  -9.479  10.251  1.00  0.00     0.040 A 
HETATM   16  C   UNL     1      41.891  -9.002  11.563  1.00  0.00     0.101 A 
HETATM   17  C   UNL     1      42.880  -9.552  12.398  1.00  0.00     0.102 A 
HETATM   18  C   UNL     1      43.747 -10.542  11.905  1.00  0.00     0.056 A 
BRANCH  16  19
HETATM   19  O   UNL     1      41.111  -7.995  12.064  1.00  0.00    -0.353 OA
HETATM   20  C   UNL     1      39.844  -8.338  12.611  1.00  0.00     0.210 C 
ENDBRANCH  16  19
BRANCH  17  21
HETATM   21  O   UNL     1      43.160  -9.217  13.700  1.00  0.00    -0.353 OA
HETATM   22  C   UNL     1      42.468  -9.918  14.725  1.00  0.00     0.210 C 
ENDBRANCH  17  21
ENDBRANCH  10  13
ENDBRANCH   7   9
ENDBRANCH   1   7
BRANCH   5  23
HETATM   23  C   UNL     1      41.752 -13.939   4.120  1.00  0.00     0.256 C 
HETATM   24  O   UNL     1      41.667 -12.717   4.051  1.00  0.00    -0.267 OA
HETATM   25  N   UNL     1      41.193 -14.854   3.243  1.00  0.00    -0.323 N 
HETATM   26  H   UNL     1      41.428 -15.830   3.374  1.00  0.00     0.169 HD
BRANCH  25  27
HETATM   27  C   UNL     1      40.375 -14.571   2.125  1.00  0.00     0.035 A 
HETATM   28  C   UNL     1      38.982 -14.649   2.139  1.00  0.00     0.030 A 
HETATM   29  C   UNL     1      38.239 -14.344   0.996  1.00  0.00     0.010 A 
HETATM   30  C   UNL     1      38.879 -13.952  -0.184  1.00  0.00    -0.048 A 
HETATM   31  C   UNL     1      38.072 -13.660  -1.423  1.00  0.00     0.069 C 
HETATM   32  C   UNL     1      40.281 -13.897  -0.226  1.00  0.00    -0.022 A 
HETATM   33  C   UNL     1      38.879 -12.899  -2.483  1.00  0.00     0.277 C 
HETATM   34  N   UNL     1      40.179 -13.545  -2.703  1.00  0.00     0.088 N 
HETATM   35  C   UNL     1      40.876 -12.942  -3.837  1.00  0.00     0.310 C 
HETATM   36  C   UNL     1      41.002 -13.450  -1.482  1.00  0.00     0.311 C 
HETATM   37  C   UNL     1      41.017 -14.195   0.936  1.00  0.00     0.039 A 
ENDBRANCH  25  27
ENDBRANCH   5  23
TORSDOF 7
ENDMDL
MODEL 6
REMARK VINA RESULT:      -8.5      4.683      9.175
REMARK  7 active torsions:
REMARK  status: ('A' for Active; 'I' for Inactive)
REMARK    1  A    between atoms: O_2  and  C_3 
REMARK    2  A    between atoms: C_6  and  C_11 
REMARK    3  A    between atoms: C_8  and  O_9 
REMARK       I    between atoms: C_11  and  N_13 
REMARK    4  A    between atoms: N_13  and  C_14 
REMARK    5  A    between atoms: C_14  and  C_16 
REMARK    6  A    between atoms: C_20  and  C_22 
REMARK       I    between atoms: C_22  and  N_24 
REMARK    7  A    between atoms: N_24  and  C_25 
ROOT
HETATM    1  C   UNL     1      39.612 -12.085   4.046  1.00  0.00    -0.035 A 
HETATM    2  C   UNL     1      40.183 -11.064   4.827  1.00  0.00     0.009 A 
HETATM    3  C   UNL     1      41.166 -11.352   5.772  1.00  0.00     0.002 A 
HETATM    4  C   UNL     1      41.582 -12.667   5.964  1.00  0.00     0.017 A 
HETATM    5  C   UNL     1      41.012 -13.707   5.218  1.00  0.00     0.033 A 
HETATM    6  C   UNL     1      40.038 -13.408   4.254  1.00  0.00     0.026 A 
ENDROOT
BRANCH   1   7
HETATM    7  C   UNL     1      38.526 -11.736   3.043  1.00  0.00     0.114 C 
HETATM    8  C   UNL     1      38.228 -10.242   2.892  1.00  0.00     0.037 C 
BRANCH   7   9
HETATM    9  N   UNL     1      38.749 -12.429   1.780  1.00  0.00    -0.349 N 
HETATM   10  C   UNL     1      39.688 -12.059   0.841  1.00  0.00     0.252 C 
HETATM   11  O   UNL     1      40.401 -11.065   0.950  1.00  0.00    -0.268 OA
HETATM   12  H   UNL     1      38.383 -13.367   1.744  1.00  0.00     0.163 HD
BRANCH  10  13
HETATM   13  C   UNL     1      39.848 -12.949  -0.352  1.00  0.00     0.034 A 
HETATM   14  C   UNL     1      39.237 -12.562  -1.548  1.00  0.00     0.020 A 
HETATM   15  C   UNL     1      39.348 -13.352  -2.698  1.00  0.00     0.040 A 
HETATM   16  C   UNL     1      40.083 -14.544  -2.684  1.00  0.00     0.101 A 
HETATM   17  C   UNL     1      40.703 -14.938  -1.484  1.00  0.00     0.102 A 
HETATM   18  C   UNL     1      40.559 -14.153  -0.327  1.00  0.00     0.056 A 
BRANCH  16  19
HETATM   19  O   UNL     1      40.195 -15.370  -3.769  1.00  0.00    -0.353 OA
HETATM   20  C   UNL     1      39.054 -16.126  -4.156  1.00  0.00     0.210 C 
ENDBRANCH  16  19
BRANCH  17  21
HETATM   21  O   UNL     1      41.450 -16.067  -1.257  1.00  0.00    -0.353 OA
HETATM   22  C   UNL     1      41.485 -16.581   0.068  1.00  0.00     0.210 C 
ENDBRANCH  17  21
ENDBRANCH  10  13
ENDBRANCH   7   9
ENDBRANCH   1   7
BRANCH   5  23
HETATM   23  C   UNL     1      41.496 -15.096   5.472  1.00  0.00     0.256 C 
HETATM   24  O   UNL     1      40.858 -15.785   6.262  1.00  0.00    -0.267 OA
HETATM   25  N   UNL     1      42.613 -15.490   4.754  1.00  0.00    -0.323 N 
HETATM   26  H   UNL     1      42.977 -14.842   4.066  1.00  0.00     0.169 HD
BRANCH  25  27
HETATM   27  C   UNL     1      43.272 -16.738   4.821  1.00  0.00     0.035 A 
HETATM   28  C   UNL     1      44.075 -17.138   5.889  1.00  0.00     0.030 A 
HETATM   29  C   UNL     1      44.687 -18.395   5.889  1.00  0.00     0.010 A 
HETATM   30  C   UNL     1      44.504 -19.275   4.818  1.00  0.00    -0.048 A 
HETATM   31  C   UNL     1      45.196 -20.613   4.809  1.00  0.00     0.069 C 
HETATM   32  C   UNL     1      43.723 -18.877   3.721  1.00  0.00    -0.022 A 
HETATM   33  C   UNL     1      44.600 -21.577   3.775  1.00  0.00     0.277 C 
HETATM   34  N   UNL     1      44.469 -20.914   2.471  1.00  0.00     0.088 N 
HETATM   35  C   UNL     1      44.078 -21.871   1.437  1.00  0.00     0.310 C 
HETATM   36  C   UNL     1      43.484 -19.820   2.558  1.00  0.00     0.311 C 
HETATM   37  C   UNL     1      43.103 -17.615   3.739  1.00  0.00     0.039 A 
ENDBRANCH  25  27
ENDBRANCH   5  23
TORSDOF 7
ENDMDL
MODEL 7
REMARK VINA RESULT:      -8.4      3.621      6.470
REMARK  7 active torsions:
REMARK  status: ('A' for Active; 'I' for Inactive)
REMARK    1  A    between atoms: O_2  and  C_3 
REMARK    2  A    between atoms: C_6  and  C_11 
REMARK    3  A    between atoms: C_8  and  O_9 
REMARK       I    between atoms: C_11  and  N_13 
REMARK    4  A    between atoms: N_13  and  C_14 
REMARK    5  A    between atoms: C_14  and  C_16 
REMARK    6  A    between atoms: C_20  and  C_22 
REMARK       I    between atoms: C_22  and  N_24 
REMARK    7  A    between atoms: N_24  and  C_25 
ROOT
HETATM    1  C   UNL     1      44.340 -14.335   6.810  1.00  0.00    -0.035 A 
HETATM    2  C   UNL     1      44.283 -15.729   6.979  1.00  0.00     0.009 A 
HETATM    3  C   UNL     1      43.523 -16.523   6.122  1.00  0.00     0.002 A 
HETATM    4  C   UNL     1      42.792 -15.933   5.093  1.00  0.00     0.017 A 
HETATM    5  C   UNL     1      42.810 -14.543   4.919  1.00  0.00     0.033 A 
HETATM    6  C   UNL     1      43.594 -13.752   5.771  1.00  0.00     0.026 A 
ENDROOT
BRANCH   1   7
HETATM    7  C   UNL     1      45.161 -13.500   7.779  1.00  0.00     0.114 C 
HETATM    8  C   UNL     1      46.415 -12.853   7.187  1.00  0.00     0.037 C 
BRANCH   7   9
HETATM    9  N   UNL     1      44.306 -12.577   8.516  1.00  0.00    -0.349 N 
HETATM   10  C   UNL     1      44.551 -12.141   9.800  1.00  0.00     0.252 C 
HETATM   11  O   UNL     1      45.495 -12.533  10.481  1.00  0.00    -0.268 OA
HETATM   12  H   UNL     1      43.673 -12.041   7.944  1.00  0.00     0.163 HD
BRANCH  10  13
HETATM   13  C   UNL     1      43.619 -11.113  10.362  1.00  0.00     0.034 A 
HETATM   14  C   UNL     1      43.948 -10.526  11.588  1.00  0.00     0.020 A 
HETATM   15  C   UNL     1      43.117  -9.560  12.165  1.00  0.00     0.040 A 
HETATM   16  C   UNL     1      41.941  -9.147  11.526  1.00  0.00     0.101 A 
HETATM   17  C   UNL     1      41.606  -9.731  10.291  1.00  0.00     0.102 A 
HETATM   18  C   UNL     1      42.431 -10.723   9.734  1.00  0.00     0.056 A 
BRANCH  16  19
HETATM   19  O   UNL     1      41.076  -8.233  12.063  1.00  0.00    -0.353 OA
HETATM   20  C   UNL     1      40.100  -8.696  12.987  1.00  0.00     0.210 C 
ENDBRANCH  16  19
BRANCH  17  21
HETATM   21  O   UNL     1      40.501  -9.479   9.516  1.00  0.00    -0.353 OA
HETATM   22  C   UNL     1      39.480 -10.467   9.479  1.00  0.00     0.210 C 
ENDBRANCH  17  21
ENDBRANCH  10  13
ENDBRANCH   7   9
ENDBRANCH   1   7
BRANCH   5  23
HETATM   23  C   UNL     1      42.003 -13.968   3.801  1.00  0.00     0.256 C 
HETATM   24  O   UNL     1      42.604 -13.366   2.917  1.00  0.00    -0.267 OA
HETATM   25  N   UNL     1      40.640 -14.206   3.854  1.00  0.00    -0.323 N 
HETATM   26  H   UNL     1      40.299 -14.801   4.598  1.00  0.00     0.169 HD
BRANCH  25  27
HETATM   27  C   UNL     1      39.662 -13.763   2.934  1.00  0.00     0.035 A 
HETATM   28  C   UNL     1      39.128 -14.560   1.921  1.00  0.00     0.030 A 
HETATM   29  C   UNL     1      38.155 -14.054   1.055  1.00  0.00     0.010 A 
HETATM   30  C   UNL     1      37.698 -12.741   1.189  1.00  0.00    -0.048 A 
HETATM   31  C   UNL     1      36.674 -12.192   0.228  1.00  0.00     0.069 C 
HETATM   32  C   UNL     1      38.245 -11.915   2.183  1.00  0.00    -0.022 A 
HETATM   33  C   UNL     1      36.023 -10.900   0.737  1.00  0.00     0.277 C 
HETATM   34  N   UNL     1      37.048  -9.951   1.191  1.00  0.00     0.088 N 
HETATM   35  C   UNL     1      36.455  -8.653   1.503  1.00  0.00     0.310 C 
HETATM   36  C   UNL     1      37.749 -10.494   2.370  1.00  0.00     0.311 C 
HETATM   37  C   UNL     1      39.215 -12.439   3.057  1.00  0.00     0.039 A 
ENDBRANCH  25  27
ENDBRANCH   5  23
TORSDOF 7
ENDMDL
MODEL 8
REMARK VINA RESULT:      -8.3      3.212     10.741
REMARK  7 active torsions:
REMARK  status: ('A' for Active; 'I' for Inactive)
REMARK    1  A    between atoms: O_2  and  C_3 
REMARK    2  A    between atoms: C_6  and  C_11 
REMARK    3  A    between atoms: C_8  and  O_9 
REMARK       I    between atoms: C_11  and  N_13 
REMARK    4  A    between atoms: N_13  and  C_14 
REMARK    5  A    between atoms: C_14  and  C_16 
REMARK    6  A    between atoms: C_20  and  C_22 
REMARK       I    between atoms: C_22  and  N_24 
REMARK    7  A    between atoms: N_24  and  C_25 
ROOT
HETATM    1  C   UNL     1      40.085 -13.981   1.604  1.00  0.00    -0.035 A 
HETATM    2  C   UNL     1      38.901 -13.357   1.175  1.00  0.00     0.009 A 
HETATM    3  C   UNL     1      38.343 -12.305   1.899  1.00  0.00     0.002 A 
HETATM    4  C   UNL     1      38.951 -11.872   3.075  1.00  0.00     0.017 A 
HETATM    5  C   UNL     1      40.117 -12.494   3.540  1.00  0.00     0.033 A 
HETATM    6  C   UNL     1      40.685 -13.537   2.795  1.00  0.00     0.026 A 
ENDROOT
BRANCH   1   7
HETATM    7  C   UNL     1      40.650 -15.140   0.801  1.00  0.00     0.114 C 
HETATM    8  C   UNL     1      41.341 -14.754  -0.510  1.00  0.00     0.037 C 
BRANCH   7   9
HETATM    9  N   UNL     1      41.439 -16.021   1.653  1.00  0.00    -0.349 N 
HETATM   10  C   UNL     1      41.372 -17.398   1.628  1.00  0.00     0.252 C 
HETATM   11  O   UNL     1      40.594 -18.027   0.916  1.00  0.00    -0.268 OA
HETATM   12  H   UNL     1      42.251 -15.591   2.067  1.00  0.00     0.163 HD
BRANCH  10  13
HETATM   13  C   UNL     1      42.332 -18.144   2.502  1.00  0.00     0.034 A 
HETATM   14  C   UNL     1      42.381 -17.811   3.859  1.00  0.00     0.020 A 
HETATM   15  C   UNL     1      43.257 -18.470   4.728  1.00  0.00     0.040 A 
HETATM   16  C   UNL     1      44.100 -19.488   4.264  1.00  0.00     0.101 A 
HETATM   17  C   UNL     1      44.054 -19.830   2.900  1.00  0.00     0.102 A 
HETATM   18  C   UNL     1      43.192 -19.141   2.030  1.00  0.00     0.056 A 
BRANCH  16  19
HETATM   19  O   UNL     1      45.000 -20.140   5.062  1.00  0.00    -0.353 OA
HETATM   20  C   UNL     1      44.684 -21.460   5.488  1.00  0.00     0.210 C 
ENDBRANCH  16  19
BRANCH  17  21
HETATM   21  O   UNL     1      44.800 -20.781   2.248  1.00  0.00    -0.353 OA
HETATM   22  C   UNL     1      44.113 -21.900   1.703  1.00  0.00     0.210 C 
ENDBRANCH  17  21
ENDBRANCH  10  13
ENDBRANCH   7   9
ENDBRANCH   1   7
BRANCH   5  23
HETATM   23  C   UNL     1      40.720 -11.988   4.810  1.00  0.00     0.256 C 
HETATM   24  O   UNL     1      41.782 -12.484   5.172  1.00  0.00    -0.267 OA
HETATM   25  N   UNL     1      40.029 -10.970   5.446  1.00  0.00    -0.323 N 
HETATM   26  H   UNL     1      39.212 -10.598   4.977  1.00  0.00     0.169 HD
BRANCH  25  27
HETATM   27  C   UNL     1      40.376 -10.333   6.658  1.00  0.00     0.035 A 
HETATM   28  C   UNL     1      40.941  -9.059   6.735  1.00  0.00     0.030 A 
HETATM   29  C   UNL     1      41.249  -8.490   7.973  1.00  0.00     0.010 A 
HETATM   30  C   UNL     1      40.994  -9.185   9.159  1.00  0.00    -0.048 A 
HETATM   31  C   UNL     1      41.362  -8.578  10.488  1.00  0.00     0.069 C 
HETATM   32  C   UNL     1      40.453 -10.479   9.100  1.00  0.00    -0.022 A 
HETATM   33  C   UNL     1      40.685  -9.289  11.667  1.00  0.00     0.277 C 
HETATM   34  N   UNL     1      40.856 -10.744  11.557  1.00  0.00     0.088 N 
HETATM   35  C   UNL     1      40.379 -11.417  12.763  1.00  0.00     0.310 C 
HETATM   36  C   UNL     1      40.141 -11.247  10.369  1.00  0.00     0.311 C 
HETATM   37  C   UNL     1      40.137 -11.037   7.847  1.00  0.00     0.039 A 
ENDBRANCH  25  27
ENDBRANCH   5  23
TORSDOF 7
ENDMDL
MODEL 9
REMARK VINA RESULT:      -8.2      2.946     10.035
REMARK  7 active torsions:
REMARK  status: ('A' for Active; 'I' for Inactive)
REMARK    1  A    between atoms: O_2  and  C_3 
REMARK    2  A    between atoms: C_6  and  C_11 
REMARK    3  A    between atoms: C_8  and  O_9 
REMARK       I    between atoms: C_11  and  N_13 
REMARK    4  A    between atoms: N_13  and  C_14 
REMARK    5  A    between atoms: C_14  and  C_16 
REMARK    6  A    between atoms: C_20  and  C_22 
REMARK       I    between atoms: C_22  and  N_24 
REMARK    7  A    between atoms: N_24  and  C_25 
ROOT
HETATM    1  C   UNL     1      40.234 -12.799   3.589  1.00  0.00    -0.035 A 
HETATM    2  C   UNL     1      40.138 -11.926   2.491  1.00  0.00     0.009 A 
HETATM    3  C   UNL     1      40.541 -10.596   2.598  1.00  0.00     0.002 A 
HETATM    4  C   UNL     1      41.029 -10.112   3.809  1.00  0.00     0.017 A 
HETATM    5  C   UNL     1      41.111 -10.954   4.927  1.00  0.00     0.033 A 
HETATM    6  C   UNL     1      40.724 -12.296   4.807  1.00  0.00     0.026 A 
ENDROOT
BRANCH   1   7
HETATM    7  C   UNL     1      39.763 -14.236   3.442  1.00  0.00     0.114 C 
HETATM    8  C   UNL     1      38.978 -14.540   2.163  1.00  0.00     0.037 C 
BRANCH   7   9
HETATM    9  N   UNL     1      40.856 -15.166   3.705  1.00  0.00    -0.349 N 
HETATM   10  C   UNL     1      41.035 -15.844   4.892  1.00  0.00     0.252 C 
HETATM   11  O   UNL     1      40.317 -15.690   5.876  1.00  0.00    -0.268 OA
HETATM   12  H   UNL     1      41.319 -15.515   2.881  1.00  0.00     0.163 HD
BRANCH  10  13
HETATM   13  C   UNL     1      42.154 -16.836   4.947  1.00  0.00     0.034 A 
HETATM   14  C   UNL     1      42.601 -17.392   3.745  1.00  0.00     0.020 A 
HETATM   15  C   UNL     1      43.643 -18.326   3.731  1.00  0.00     0.040 A 
HETATM   16  C   UNL     1      44.271 -18.722   4.918  1.00  0.00     0.101 A 
HETATM   17  C   UNL     1      43.828 -18.164   6.132  1.00  0.00     0.102 A 
HETATM   18  C   UNL     1      42.761 -17.250   6.138  1.00  0.00     0.056 A 
BRANCH  16  19
HETATM   19  O   UNL     1      45.269 -19.656   4.965  1.00  0.00    -0.353 OA
HETATM   20  C   UNL     1      44.916 -21.024   4.797  1.00  0.00     0.210 C 
ENDBRANCH  16  19
BRANCH  17  21
HETATM   21  O   UNL     1      44.297 -18.426   7.396  1.00  0.00    -0.353 OA
HETATM   22  C   UNL     1      43.703 -17.722   8.479  1.00  0.00     0.210 C 
ENDBRANCH  17  21
ENDBRANCH  10  13
ENDBRANCH   7   9
ENDBRANCH   1   7
BRANCH   5  23
HETATM   23  C   UNL     1      41.638 -10.376   6.199  1.00  0.00     0.256 C 
HETATM   24  O   UNL     1      41.836  -9.166   6.235  1.00  0.00    -0.267 OA
HETATM   25  N   UNL     1      41.821 -11.271   7.240  1.00  0.00    -0.323 N 
HETATM   26  H   UNL     1      41.524 -12.228   7.091  1.00  0.00     0.169 HD
BRANCH  25  27
HETATM   27  C   UNL     1      42.317 -10.985   8.532  1.00  0.00     0.035 A 
HETATM   28  C   UNL     1      43.604 -11.311   8.963  1.00  0.00     0.030 A 
HETATM   29  C   UNL     1      44.027 -10.985  10.254  1.00  0.00     0.010 A 
HETATM   30  C   UNL     1      43.170 -10.324  11.138  1.00  0.00    -0.048 A 
HETATM   31  C   UNL     1      43.622 -10.008  12.540  1.00  0.00     0.069 C 
HETATM   32  C   UNL     1      41.862 -10.014  10.732  1.00  0.00    -0.022 A 
HETATM   33  C   UNL     1      42.723  -8.975  13.230  1.00  0.00     0.277 C 
HETATM   34  N   UNL     1      41.308  -9.342  13.080  1.00  0.00     0.088 N 
HETATM   35  C   UNL     1      40.456  -8.471  13.886  1.00  0.00     0.310 C 
HETATM   36  C   UNL     1      40.918  -9.274  11.659  1.00  0.00     0.311 C 
HETATM   37  C   UNL     1      41.452 -10.337   9.426  1.00  0.00     0.039 A 
ENDBRANCH  25  27
ENDBRANCH   5  23
TORSDOF 7
ENDMDL
MODEL 10
REMARK VINA RESULT:      -8.2      2.772     11.129
REMARK  7 active torsions:
REMARK  status: ('A' for Active; 'I' for Inactive)
REMARK    1  A    between atoms: O_2  and  C_3 
REMARK    2  A    between atoms: C_6  and  C_11 
REMARK    3  A    between atoms: C_8  and  O_9 
REMARK       I    between atoms: C_11  and  N_13 
REMARK    4  A    between atoms: N_13  and  C_14 
REMARK    5  A    between atoms: C_14  and  C_16 
REMARK    6  A    between atoms: C_20  and  C_22 
REMARK       I    between atoms: C_22  and  N_24 
REMARK    7  A    between atoms: N_24  and  C_25 
ROOT
HETATM    1  C   UNL     1      40.645 -14.280   3.697  1.00  0.00    -0.035 A 
HETATM    2  C   UNL     1      41.604 -13.460   3.077  1.00  0.00     0.009 A 
HETATM    3  C   UNL     1      42.015 -12.267   3.669  1.00  0.00     0.002 A 
HETATM    4  C   UNL     1      41.459 -11.865   4.881  1.00  0.00     0.017 A 
HETATM    5  C   UNL     1      40.482 -12.649   5.507  1.00  0.00     0.033 A 
HETATM    6  C   UNL     1      40.089 -13.859   4.918  1.00  0.00     0.026 A 
ENDROOT
BRANCH   1   7
HETATM    7  C   UNL     1      40.205 -15.562   3.011  1.00  0.00     0.114 C 
HETATM    8  C   UNL     1      39.909 -15.435   1.514  1.00  0.00     0.037 C 
BRANCH   7   9
HETATM    9  N   UNL     1      41.101 -16.662   3.350  1.00  0.00    -0.349 N 
HETATM   10  C   UNL     1      42.235 -16.992   2.640  1.00  0.00     0.252 C 
HETATM   11  O   UNL     1      42.580 -16.423   1.609  1.00  0.00    -0.268 OA
HETATM   12  H   UNL     1      41.015 -16.998   4.296  1.00  0.00     0.163 HD
BRANCH  10  13
HETATM   13  C   UNL     1      43.091 -18.088   3.194  1.00  0.00     0.034 A 
HETATM   14  C   UNL     1      43.408 -18.051   4.556  1.00  0.00     0.020 A 
HETATM   15  C   UNL     1      44.205 -19.045   5.133  1.00  0.00     0.040 A 
HETATM   16  C   UNL     1      44.697 -20.109   4.366  1.00  0.00     0.101 A 
HETATM   17  C   UNL     1      44.379 -20.155   2.997  1.00  0.00     0.102 A 
HETATM   18  C   UNL     1      43.603 -19.134   2.420  1.00  0.00     0.056 A 
BRANCH  16  19
HETATM   19  O   UNL     1      45.509 -21.088   4.873  1.00  0.00    -0.353 OA
HETATM   20  C   UNL     1      44.916 -22.329   5.235  1.00  0.00     0.210 C 
ENDBRANCH  16  19
BRANCH  17  21
HETATM   21  O   UNL     1      44.769 -21.096   2.076  1.00  0.00    -0.353 OA
HETATM   22  C   UNL     1      43.757 -21.905   1.490  1.00  0.00     0.210 C 
ENDBRANCH  17  21
ENDBRANCH  10  13
ENDBRANCH   7   9
ENDBRANCH   1   7
BRANCH   5  23
HETATM   23  C   UNL     1      39.920 -12.163   6.803  1.00  0.00     0.256 C 
HETATM   24  O   UNL     1      38.826 -12.597   7.146  1.00  0.00    -0.267 OA
HETATM   25  N   UNL     1      40.718 -11.284   7.517  1.00  0.00    -0.323 N 
HETATM   26  H   UNL     1      41.641 -11.089   7.150  1.00  0.00     0.169 HD
BRANCH  25  27
HETATM   27  C   UNL     1      40.414 -10.672   8.754  1.00  0.00     0.035 A 
HETATM   28  C   UNL     1      39.173 -10.116   9.065  1.00  0.00     0.030 A 
HETATM   29  C   UNL     1      38.944  -9.537  10.316  1.00  0.00     0.010 A 
HETATM   30  C   UNL     1      39.955  -9.506  11.280  1.00  0.00    -0.048 A 
HETATM   31  C   UNL     1      39.711  -8.847  12.614  1.00  0.00     0.069 C 
HETATM   32  C   UNL     1      41.220 -10.034  10.976  1.00  0.00    -0.022 A 
HETATM   33  C   UNL     1      40.767  -9.228  13.660  1.00  0.00     0.277 C 
HETATM   34  N   UNL     1      42.118  -9.074  13.106  1.00  0.00     0.088 N 
HETATM   35  C   UNL     1      43.130  -9.255  14.145  1.00  0.00     0.310 C 
HETATM   36  C   UNL     1      42.327 -10.039  12.011  1.00  0.00     0.311 C 
HETATM   37  C   UNL     1      41.433 -10.625   9.717  1.00  0.00     0.039 A 
ENDBRANCH  25  27
ENDBRANCH   5  23
TORSDOF 7
ENDMDL
