MODEL 1
REMARK VINA RESULT:      -7.9      0.000      0.000
REMARK  5 active torsions:
REMARK  status: ('A' for Active; 'I' for Inactive)
REMARK    1  A    between atoms: C_6  and  N_7 
REMARK       I    between atoms: N_7  and  C_8 
REMARK    2  A    between atoms: C_8  and  C_9 
REMARK    3  A    between atoms: C_9  and  O_10 
REMARK    4  A    between atoms: O_10  and  C_11 
REMARK    5  A    between atoms: C_19  and  C_20 
ROOT
HETATM    1  C   UNL     1      41.214 -14.615   0.331  1.00  0.00     0.073 C 
HETATM    2  C   UNL     1      41.938 -14.185   1.555  1.00  0.00     0.065 A 
HETATM    3  N   UNL     1      41.890 -12.904   1.942  1.00  0.00    -0.177 NA
HETATM    4  N   UNL     1      42.617 -12.883   3.072  1.00  0.00    -0.262 N 
HETATM    5  H   UNL     1      42.736 -12.008   3.576  1.00  0.00     0.191 HD
HETATM    6  C   UNL     1      43.152 -14.099   3.413  1.00  0.00     0.137 A 
HETATM    7  C   UNL     1      42.715 -14.981   2.445  1.00  0.00     0.046 A 
ENDROOT
BRANCH   6   8
HETATM    8  N   UNL     1      43.960 -14.298   4.518  1.00  0.00    -0.309 N 
HETATM    9  C   UNL     1      43.498 -14.128   5.812  1.00  0.00     0.252 C 
HETATM   10  O   UNL     1      42.351 -13.788   6.104  1.00  0.00    -0.270 OA
HETATM   11  H   UNL     1      44.939 -14.525   4.370  1.00  0.00     0.170 HD
BRANCH   9  12
HETATM   12  C   UNL     1      44.538 -14.467   6.891  1.00  0.00     0.217 C 
HETATM   13  C   UNL     1      44.732 -13.251   7.794  1.00  0.00     0.050 C 
BRANCH  12  14
HETATM   14  O   UNL     1      44.113 -15.544   7.725  1.00  0.00    -0.337 OA
BRANCH  14  15
HETATM   15  C   UNL     1      44.225 -16.811   7.222  1.00  0.00     0.070 A 
HETATM   16  C   UNL     1      43.292 -17.723   7.723  1.00  0.00     0.037 A 
HETATM   17  C   UNL     1      43.298 -19.053   7.297  1.00  0.00     0.003 A 
HETATM   18  C   UNL     1      44.231 -19.475   6.354  1.00  0.00     0.000 A 
HETATM   19  C   UNL     1      45.154 -18.567   5.838  1.00  0.00     0.003 A 
HETATM   20  C   UNL     1      45.151 -17.237   6.268  1.00  0.00     0.037 A 
ENDBRANCH  14  15
ENDBRANCH  12  14
ENDBRANCH   9  12
ENDBRANCH   6   8
BRANCH   7  21
HETATM   21  C   UNL     1      43.004 -16.401   2.418  1.00  0.00    -0.020 A 
HETATM   22  C   UNL     1      43.984 -16.908   1.554  1.00  0.00     0.014 A 
HETATM   23  C   UNL     1      44.278 -18.274   1.544  1.00  0.00     0.020 A 
HETATM   24  C   UNL     1      43.594 -19.134   2.402  1.00  0.00     0.011 A 
HETATM   25 BR   UNL     1      43.996 -20.980   2.396  1.00  0.00    -0.051 Br
HETATM   26  C   UNL     1      42.620 -18.640   3.269  1.00  0.00     0.020 A 
HETATM   27  C   UNL     1      42.326 -17.275   3.276  1.00  0.00     0.014 A 
ENDBRANCH   7  21
TORSDOF 5
ENDMDL
MODEL 2
REMARK VINA RESULT:      -7.8      3.397      5.269
REMARK  5 active torsions:
REMARK  status: ('A' for Active; 'I' for Inactive)
REMARK    1  A    between atoms: C_6  and  N_7 
REMARK       I    between atoms: N_7  and  C_8 
REMARK    2  A    between atoms: C_8  and  C_9 
REMARK    3  A    between atoms: C_9  and  O_10 
REMARK    4  A    between atoms: O_10  and  C_11 
REMARK    5  A    between atoms: C_19  and  C_20 
ROOT
HETATM    1  C   UNL     1      43.936 -22.090   0.995  1.00  0.00     0.073 C 
HETATM    2  C   UNL     1      44.220 -21.640   2.380  1.00  0.00     0.065 A 
HETATM    3  N   UNL     1      44.754 -22.494   3.262  1.00  0.00    -0.177 NA
HETATM    4  N   UNL     1      44.895 -21.758   4.378  1.00  0.00    -0.262 N 
HETATM    5  H   UNL     1      45.291 -22.183   5.213  1.00  0.00     0.191 HD
HETATM    6  C   UNL     1      44.449 -20.467   4.254  1.00  0.00     0.137 A 
HETATM    7  C   UNL     1      44.010 -20.351   2.950  1.00  0.00     0.046 A 
ENDROOT
BRANCH   6   8
HETATM    8  N   UNL     1      44.468 -19.547   5.286  1.00  0.00    -0.309 N 
HETATM    9  C   UNL     1      43.983 -19.842   6.549  1.00  0.00     0.252 C 
HETATM   10  O   UNL     1      43.495 -20.926   6.873  1.00  0.00    -0.270 OA
HETATM   11  H   UNL     1      44.801 -18.607   5.093  1.00  0.00     0.170 HD
BRANCH   9  12
HETATM   12  C   UNL     1      44.162 -18.703   7.564  1.00  0.00     0.217 C 
HETATM   13  C   UNL     1      45.246 -17.753   7.060  1.00  0.00     0.050 C 
BRANCH  12  14
HETATM   14  O   UNL     1      42.970 -17.932   7.717  1.00  0.00    -0.337 OA
BRANCH  14  15
HETATM   15  C   UNL     1      42.680 -17.021   6.738  1.00  0.00     0.070 A 
HETATM   16  C   UNL     1      41.731 -17.449   5.806  1.00  0.00     0.037 A 
HETATM   17  C   UNL     1      41.346 -16.618   4.751  1.00  0.00     0.003 A 
HETATM   18  C   UNL     1      41.900 -15.347   4.633  1.00  0.00     0.000 A 
HETATM   19  C   UNL     1      42.834 -14.907   5.569  1.00  0.00     0.003 A 
HETATM   20  C   UNL     1      43.222 -15.740   6.622  1.00  0.00     0.037 A 
ENDBRANCH  14  15
ENDBRANCH  12  14
ENDBRANCH   9  12
ENDBRANCH   6   8
BRANCH   7  21
HETATM   21  C   UNL     1      43.485 -19.139   2.352  1.00  0.00    -0.020 A 
HETATM   22  C   UNL     1      44.342 -18.076   2.036  1.00  0.00     0.014 A 
HETATM   23  C   UNL     1      43.839 -16.917   1.440  1.00  0.00     0.020 A 
HETATM   24  C   UNL     1      42.478 -16.823   1.153  1.00  0.00     0.011 A 
HETATM   25 BR   UNL     1      41.798 -15.260   0.338  1.00  0.00    -0.051 Br
HETATM   26  C   UNL     1      41.617 -17.876   1.459  1.00  0.00     0.020 A 
HETATM   27  C   UNL     1      42.120 -19.033   2.057  1.00  0.00     0.014 A 
ENDBRANCH   7  21
TORSDOF 5
ENDMDL
MODEL 3
REMARK VINA RESULT:      -7.7      3.022      5.266
REMARK  5 active torsions:
REMARK  status: ('A' for Active; 'I' for Inactive)
REMARK    1  A    between atoms: C_6  and  N_7 
REMARK       I    between atoms: N_7  and  C_8 
REMARK    2  A    between atoms: C_8  and  C_9 
REMARK    3  A    between atoms: C_9  and  O_10 
REMARK    4  A    between atoms: O_10  and  C_11 
REMARK    5  A    between atoms: C_19  and  C_20 
ROOT
HETATM    1  C   UNL     1      44.275 -21.711   1.760  1.00  0.00     0.073 C 
HETATM    2  C   UNL     1      44.356 -20.947   3.030  1.00  0.00     0.065 A 
HETATM    3  N   UNL     1      44.899 -21.513   4.115  1.00  0.00    -0.177 NA
HETATM    4  N   UNL     1      44.831 -20.549   5.049  1.00  0.00    -0.262 N 
HETATM    5  H   UNL     1      45.188 -20.729   5.984  1.00  0.00     0.191 HD
HETATM    6  C   UNL     1      44.243 -19.390   4.611  1.00  0.00     0.137 A 
HETATM    7  C   UNL     1      43.930 -19.611   3.285  1.00  0.00     0.046 A 
ENDROOT
BRANCH   6   8
HETATM    8  N   UNL     1      44.040 -18.282   5.414  1.00  0.00    -0.309 N 
HETATM    9  C   UNL     1      42.781 -17.903   5.847  1.00  0.00     0.252 C 
HETATM   10  O   UNL     1      41.739 -18.496   5.565  1.00  0.00    -0.270 OA
HETATM   11  H   UNL     1      44.838 -17.699   5.649  1.00  0.00     0.170 HD
BRANCH   9  12
HETATM   12  C   UNL     1      42.787 -16.685   6.783  1.00  0.00     0.217 C 
HETATM   13  C   UNL     1      43.596 -17.024   8.034  1.00  0.00     0.050 C 
BRANCH  12  14
HETATM   14  O   UNL     1      43.407 -15.550   6.180  1.00  0.00    -0.337 OA
BRANCH  14  15
HETATM   15  C   UNL     1      42.760 -14.968   5.124  1.00  0.00     0.070 A 
HETATM   16  C   UNL     1      43.596 -14.308   4.219  1.00  0.00     0.037 A 
HETATM   17  C   UNL     1      43.065 -13.667   3.098  1.00  0.00     0.003 A 
HETATM   18  C   UNL     1      41.693 -13.694   2.869  1.00  0.00     0.000 A 
HETATM   19  C   UNL     1      40.854 -14.365   3.758  1.00  0.00     0.003 A 
HETATM   20  C   UNL     1      41.386 -15.003   4.882  1.00  0.00     0.037 A 
ENDBRANCH  14  15
ENDBRANCH  12  14
ENDBRANCH   9  12
ENDBRANCH   6   8
BRANCH   7  21
HETATM   21  C   UNL     1      43.322 -18.639   2.397  1.00  0.00    -0.020 A 
HETATM   22  C   UNL     1      41.949 -18.694   2.120  1.00  0.00     0.014 A 
HETATM   23  C   UNL     1      41.360 -17.745   1.281  1.00  0.00     0.020 A 
HETATM   24  C   UNL     1      42.143 -16.736   0.724  1.00  0.00     0.011 A 
HETATM   25 BR   UNL     1      41.346 -15.445  -0.403  1.00  0.00    -0.051 Br
HETATM   26  C   UNL     1      43.509 -16.668   0.995  1.00  0.00     0.020 A 
HETATM   27  C   UNL     1      44.097 -17.620   1.832  1.00  0.00     0.014 A 
ENDBRANCH   7  21
TORSDOF 5
ENDMDL
MODEL 4
REMARK VINA RESULT:      -7.6      3.014      4.464
REMARK  5 active torsions:
REMARK  status: ('A' for Active; 'I' for Inactive)
REMARK    1  A    between atoms: C_6  and  N_7 
REMARK       I    between atoms: N_7  and  C_8 
REMARK    2  A    between atoms: C_8  and  C_9 
REMARK    3  A    between atoms: C_9  and  O_10 
REMARK    4  A    between atoms: O_10  and  C_11 
REMARK    5  A    between atoms: C_19  and  C_20 
ROOT
HETATM    1  C   UNL     1      38.668 -11.363   4.369  1.00  0.00     0.073 C 
HETATM    2  C   UNL     1      39.284 -12.450   5.171  1.00  0.00     0.065 A 
HETATM    3  N   UNL     1      39.200 -12.423   6.507  1.00  0.00    -0.177 NA
HETATM    4  N   UNL     1      39.829 -13.546   6.892  1.00  0.00    -0.262 N 
HETATM    5  H   UNL     1      39.902 -13.766   7.882  1.00  0.00     0.191 HD
HETATM    6  C   UNL     1      40.335 -14.285   5.854  1.00  0.00     0.137 A 
HETATM    7  C   UNL     1      39.985 -13.601   4.707  1.00  0.00     0.046 A 
ENDROOT
BRANCH   6   8
HETATM    8  N   UNL     1      41.048 -15.459   6.024  1.00  0.00    -0.309 N 
HETATM    9  C   UNL     1      42.432 -15.491   6.016  1.00  0.00     0.252 C 
HETATM   10  O   UNL     1      43.152 -14.504   5.858  1.00  0.00    -0.270 OA
HETATM   11  H   UNL     1      40.534 -16.331   6.104  1.00  0.00     0.170 HD
BRANCH   9  12
HETATM   12  C   UNL     1      43.020 -16.883   6.289  1.00  0.00     0.217 C 
HETATM   13  C   UNL     1      42.912 -17.185   7.782  1.00  0.00     0.050 C 
BRANCH  12  14
HETATM   14  O   UNL     1      42.305 -17.910   5.603  1.00  0.00    -0.337 OA
BRANCH  14  15
HETATM   15  C   UNL     1      42.639 -18.145   4.297  1.00  0.00     0.070 A 
HETATM   16  C   UNL     1      43.697 -19.040   4.117  1.00  0.00     0.037 A 
HETATM   17  C   UNL     1      44.143 -19.365   2.834  1.00  0.00     0.003 A 
HETATM   18  C   UNL     1      43.523 -18.805   1.722  1.00  0.00     0.000 A 
HETATM   19  C   UNL     1      42.456 -17.924   1.893  1.00  0.00     0.003 A 
HETATM   20  C   UNL     1      42.012 -17.596   3.177  1.00  0.00     0.037 A 
ENDBRANCH  14  15
ENDBRANCH  12  14
ENDBRANCH   9  12
ENDBRANCH   6   8
BRANCH   7  21
HETATM   21  C   UNL     1      40.279 -14.033   3.355  1.00  0.00    -0.020 A 
HETATM   22  C   UNL     1      39.330 -14.758   2.621  1.00  0.00     0.014 A 
HETATM   23  C   UNL     1      39.605 -15.156   1.310  1.00  0.00     0.020 A 
HETATM   24  C   UNL     1      40.828 -14.825   0.731  1.00  0.00     0.011 A 
HETATM   25 BR   UNL     1      41.198 -15.355  -1.045  1.00  0.00    -0.051 Br
HETATM   26  C   UNL     1      41.778 -14.101   1.449  1.00  0.00     0.020 A 
HETATM   27  C   UNL     1      41.503 -13.706   2.761  1.00  0.00     0.014 A 
ENDBRANCH   7  21
TORSDOF 5
ENDMDL
MODEL 5
REMARK VINA RESULT:      -7.5      2.934      5.107
REMARK  5 active torsions:
REMARK  status: ('A' for Active; 'I' for Inactive)
REMARK    1  A    between atoms: C_6  and  N_7 
REMARK       I    between atoms: N_7  and  C_8 
REMARK    2  A    between atoms: C_8  and  C_9 
REMARK    3  A    between atoms: C_9  and  O_10 
REMARK    4  A    between atoms: O_10  and  C_11 
REMARK    5  A    between atoms: C_19  and  C_20 
ROOT
HETATM    1  C   UNL     1      39.549 -12.572   6.589  1.00  0.00     0.073 C 
HETATM    2  C   UNL     1      39.889 -13.002   5.209  1.00  0.00     0.065 A 
HETATM    3  N   UNL     1      39.386 -12.336   4.161  1.00  0.00    -0.177 NA
HETATM    4  N   UNL     1      39.911 -12.968   3.098  1.00  0.00    -0.262 N 
HETATM    5  H   UNL     1      39.683 -12.647   2.160  1.00  0.00     0.191 HD
HETATM    6  C   UNL     1      40.714 -14.031   3.422  1.00  0.00     0.137 A 
HETATM    7  C   UNL     1      40.733 -14.075   4.801  1.00  0.00     0.046 A 
ENDROOT
BRANCH   6   8
HETATM    8  N   UNL     1      41.330 -14.841   2.484  1.00  0.00    -0.309 N 
HETATM    9  C   UNL     1      40.677 -15.904   1.884  1.00  0.00     0.252 C 
HETATM   10  O   UNL     1      39.513 -16.231   2.119  1.00  0.00    -0.270 OA
HETATM   11  H   UNL     1      42.310 -14.680   2.271  1.00  0.00     0.170 HD
BRANCH   9  12
HETATM   12  C   UNL     1      41.519 -16.630   0.824  1.00  0.00     0.217 C 
HETATM   13  C   UNL     1      41.407 -15.879  -0.501  1.00  0.00     0.050 C 
BRANCH  12  14
HETATM   14  O   UNL     1      42.904 -16.661   1.171  1.00  0.00    -0.337 OA
BRANCH  14  15
HETATM   15  C   UNL     1      43.314 -17.642   2.031  1.00  0.00     0.070 A 
HETATM   16  C   UNL     1      43.394 -18.918   1.467  1.00  0.00     0.037 A 
HETATM   17  C   UNL     1      43.796 -20.012   2.236  1.00  0.00     0.003 A 
HETATM   18  C   UNL     1      44.135 -19.832   3.574  1.00  0.00     0.000 A 
HETATM   19  C   UNL     1      44.074 -18.559   4.140  1.00  0.00     0.003 A 
HETATM   20  C   UNL     1      43.668 -17.465   3.370  1.00  0.00     0.037 A 
ENDBRANCH  14  15
ENDBRANCH  12  14
ENDBRANCH   9  12
ENDBRANCH   6   8
BRANCH   7  21
HETATM   21  C   UNL     1      41.491 -15.021   5.596  1.00  0.00    -0.020 A 
HETATM   22  C   UNL     1      40.909 -16.229   6.005  1.00  0.00     0.014 A 
HETATM   23  C   UNL     1      41.646 -17.150   6.753  1.00  0.00     0.020 A 
HETATM   24  C   UNL     1      42.969 -16.866   7.089  1.00  0.00     0.011 A 
HETATM   25 BR   UNL     1      43.970 -18.114   8.093  1.00  0.00    -0.051 Br
HETATM   26  C   UNL     1      43.560 -15.669   6.685  1.00  0.00     0.020 A 
HETATM   27  C   UNL     1      42.820 -14.748   5.939  1.00  0.00     0.014 A 
ENDBRANCH   7  21
TORSDOF 5
ENDMDL
MODEL 6
REMARK VINA RESULT:      -7.3      3.411      5.127
REMARK  5 active torsions:
REMARK  status: ('A' for Active; 'I' for Inactive)
REMARK    1  A    between atoms: C_6  and  N_7 
REMARK       I    between atoms: N_7  and  C_8 
REMARK    2  A    between atoms: C_8  and  C_9 
REMARK    3  A    between atoms: C_9  and  O_10 
REMARK    4  A    between atoms: O_10  and  C_11 
REMARK    5  A    between atoms: C_19  and  C_20 
ROOT
HETATM    1  C   UNL     1      40.841 -12.862  -0.931  1.00  0.00     0.073 C 
HETATM    2  C   UNL     1      41.040 -14.296  -0.603  1.00  0.00     0.065 A 
HETATM    3  N   UNL     1      41.033 -15.211  -1.581  1.00  0.00    -0.177 NA
HETATM    4  N   UNL     1      41.262 -16.369  -0.939  1.00  0.00    -0.262 N 
HETATM    5  H   UNL     1      41.308 -17.236  -1.469  1.00  0.00     0.191 HD
HETATM    6  C   UNL     1      41.393 -16.237   0.420  1.00  0.00     0.137 A 
HETATM    7  C   UNL     1      41.265 -14.886   0.674  1.00  0.00     0.046 A 
ENDROOT
BRANCH   6   8
HETATM    8  N   UNL     1      41.600 -17.302   1.278  1.00  0.00    -0.309 N 
HETATM    9  C   UNL     1      42.851 -17.862   1.472  1.00  0.00     0.252 C 
HETATM   10  O   UNL     1      43.880 -17.481   0.914  1.00  0.00    -0.270 OA
HETATM   11  H   UNL     1      40.796 -17.719   1.738  1.00  0.00     0.170 HD
BRANCH   9  12
HETATM   12  C   UNL     1      42.870 -18.989   2.516  1.00  0.00     0.217 C 
HETATM   13  C   UNL     1      43.637 -20.180   1.949  1.00  0.00     0.050 C 
BRANCH  12  14
HETATM   14  O   UNL     1      43.537 -18.596   3.716  1.00  0.00    -0.337 OA
BRANCH  14  15
HETATM   15  C   UNL     1      42.836 -17.822   4.600  1.00  0.00     0.070 A 
HETATM   16  C   UNL     1      43.598 -16.855   5.262  1.00  0.00     0.037 A 
HETATM   17  C   UNL     1      43.007 -16.000   6.194  1.00  0.00     0.003 A 
HETATM   18  C   UNL     1      41.645 -16.099   6.461  1.00  0.00     0.000 A 
HETATM   19  C   UNL     1      40.875 -17.050   5.792  1.00  0.00     0.003 A 
HETATM   20  C   UNL     1      41.467 -17.908   4.861  1.00  0.00     0.037 A 
ENDBRANCH  14  15
ENDBRANCH  12  14
ENDBRANCH   9  12
ENDBRANCH   6   8
BRANCH   7  21
HETATM   21  C   UNL     1      41.374 -14.269   1.982  1.00  0.00    -0.020 A 
HETATM   22  C   UNL     1      42.616 -13.818   2.451  1.00  0.00     0.014 A 
HETATM   23  C   UNL     1      42.717 -13.204   3.702  1.00  0.00     0.020 A 
HETATM   24  C   UNL     1      41.575 -13.037   4.483  1.00  0.00     0.011 A 
HETATM   25 BR   UNL     1      41.709 -12.199   6.172  1.00  0.00    -0.051 Br
HETATM   26  C   UNL     1      40.334 -13.479   4.026  1.00  0.00     0.020 A 
HETATM   27  C   UNL     1      40.235 -14.094   2.776  1.00  0.00     0.014 A 
ENDBRANCH   7  21
TORSDOF 5
ENDMDL
MODEL 7
REMARK VINA RESULT:      -6.9      4.077      6.200
REMARK  5 active torsions:
REMARK  status: ('A' for Active; 'I' for Inactive)
REMARK    1  A    between atoms: C_6  and  N_7 
REMARK       I    between atoms: N_7  and  C_8 
REMARK    2  A    between atoms: C_8  and  C_9 
REMARK    3  A    between atoms: C_9  and  O_10 
REMARK    4  A    between atoms: O_10  and  C_11 
REMARK    5  A    between atoms: C_19  and  C_20 
ROOT
HETATM    1  C   UNL     1      38.655 -14.016  -3.523  1.00  0.00     0.073 C 
HETATM    2  C   UNL     1      39.757 -14.678  -2.780  1.00  0.00     0.065 A 
HETATM    3  N   UNL     1      40.511 -15.602  -3.390  1.00  0.00    -0.177 NA
HETATM    4  N   UNL     1      41.403 -15.960  -2.450  1.00  0.00    -0.262 N 
HETATM    5  H   UNL     1      42.106 -16.662  -2.667  1.00  0.00     0.191 HD
HETATM    6  C   UNL     1      41.237 -15.317  -1.250  1.00  0.00     0.137 A 
HETATM    7  C   UNL     1      40.172 -14.458  -1.435  1.00  0.00     0.046 A 
ENDROOT
BRANCH   6   8
HETATM    8  N   UNL     1      42.022 -15.556  -0.137  1.00  0.00    -0.309 N 
HETATM    9  C   UNL     1      41.770 -16.603   0.734  1.00  0.00     0.252 C 
HETATM   10  O   UNL     1      40.843 -17.405   0.611  1.00  0.00    -0.270 OA
HETATM   11  H   UNL     1      42.775 -14.909   0.075  1.00  0.00     0.170 HD
BRANCH   9  12
HETATM   12  C   UNL     1      42.801 -16.729   1.865  1.00  0.00     0.217 C 
HETATM   13  C   UNL     1      42.962 -15.372   2.546  1.00  0.00     0.050 C 
BRANCH  12  14
HETATM   14  O   UNL     1      42.383 -17.654   2.869  1.00  0.00    -0.337 OA
BRANCH  14  15
HETATM   15  C   UNL     1      43.153 -18.769   3.058  1.00  0.00     0.070 A 
HETATM   16  C   UNL     1      43.127 -19.682   2.000  1.00  0.00     0.037 A 
HETATM   17  C   UNL     1      43.866 -20.865   2.064  1.00  0.00     0.003 A 
HETATM   18  C   UNL     1      44.647 -21.135   3.183  1.00  0.00     0.000 A 
HETATM   19  C   UNL     1      44.691 -20.222   4.235  1.00  0.00     0.003 A 
HETATM   20  C   UNL     1      43.948 -19.039   4.173  1.00  0.00     0.037 A 
ENDBRANCH  14  15
ENDBRANCH  12  14
ENDBRANCH   9  12
ENDBRANCH   6   8
BRANCH   7  21
HETATM   21  C   UNL     1      39.658 -13.539  -0.438  1.00  0.00    -0.020 A 
HETATM   22  C   UNL     1      38.541 -13.885   0.334  1.00  0.00     0.014 A 
HETATM   23  C   UNL     1      38.058 -13.009   1.310  1.00  0.00     0.020 A 
HETATM   24  C   UNL     1      38.697 -11.788   1.518  1.00  0.00     0.011 A 
HETATM   25 BR   UNL     1      38.051 -10.606   2.843  1.00  0.00    -0.051 Br
HETATM   26  C   UNL     1      39.811 -11.435   0.759  1.00  0.00     0.020 A 
HETATM   27  C   UNL     1      40.291 -12.310  -0.218  1.00  0.00     0.014 A 
ENDBRANCH   7  21
TORSDOF 5
ENDMDL
MODEL 8
REMARK VINA RESULT:      -6.7      3.346      5.022
REMARK  5 active torsions:
REMARK  status: ('A' for Active; 'I' for Inactive)
REMARK    1  A    between atoms: C_6  and  N_7 
REMARK       I    between atoms: N_7  and  C_8 
REMARK    2  A    between atoms: C_8  and  C_9 
REMARK    3  A    between atoms: C_9  and  O_10 
REMARK    4  A    between atoms: O_10  and  C_11 
REMARK    5  A    between atoms: C_19  and  C_20 
ROOT
HETATM    1  C   UNL     1      40.988 -11.387   4.162  1.00  0.00     0.073 C 
HETATM    2  C   UNL     1      41.775 -12.646   4.128  1.00  0.00     0.065 A 
HETATM    3  N   UNL     1      42.576 -12.959   5.155  1.00  0.00    -0.177 NA
HETATM    4  N   UNL     1      43.098 -14.146   4.804  1.00  0.00    -0.262 N 
HETATM    5  H   UNL     1      43.751 -14.612   5.429  1.00  0.00     0.191 HD
HETATM    6  C   UNL     1      42.681 -14.599   3.578  1.00  0.00     0.137 A 
HETATM    7  C   UNL     1      41.801 -13.643   3.111  1.00  0.00     0.046 A 
ENDROOT
BRANCH   6   8
HETATM    8  N   UNL     1      43.119 -15.780   3.007  1.00  0.00    -0.309 N 
HETATM    9  C   UNL     1      42.372 -16.945   3.056  1.00  0.00     0.252 C 
HETATM   10  O   UNL     1      41.272 -17.047   3.601  1.00  0.00    -0.270 OA
HETATM   11  H   UNL     1      44.042 -15.803   2.585  1.00  0.00     0.170 HD
BRANCH   9  12
HETATM   12  C   UNL     1      43.010 -18.122   2.302  1.00  0.00     0.217 C 
HETATM   13  C   UNL     1      43.345 -17.679   0.879  1.00  0.00     0.050 C 
BRANCH  12  14
HETATM   14  O   UNL     1      44.232 -18.544   2.906  1.00  0.00    -0.337 OA
BRANCH  14  15
HETATM   15  C   UNL     1      44.360 -19.874   3.202  1.00  0.00     0.070 A 
HETATM   16  C   UNL     1      44.652 -20.149   4.541  1.00  0.00     0.037 A 
HETATM   17  C   UNL     1      44.813 -21.465   4.978  1.00  0.00     0.003 A 
HETATM   18  C   UNL     1      44.668 -22.517   4.078  1.00  0.00     0.000 A 
HETATM   19  C   UNL     1      44.360 -22.252   2.744  1.00  0.00     0.003 A 
HETATM   20  C   UNL     1      44.203 -20.934   2.306  1.00  0.00     0.037 A 
ENDBRANCH  14  15
ENDBRANCH  12  14
ENDBRANCH   9  12
ENDBRANCH   6   8
BRANCH   7  21
HETATM   21  C   UNL     1      41.076 -13.718   1.857  1.00  0.00    -0.020 A 
HETATM   22  C   UNL     1      41.716 -13.407   0.650  1.00  0.00     0.014 A 
HETATM   23  C   UNL     1      41.024 -13.500  -0.560  1.00  0.00     0.020 A 
HETATM   24  C   UNL     1      39.691 -13.909  -0.564  1.00  0.00     0.011 A 
HETATM   25 BR   UNL     1      38.756 -14.043  -2.200  1.00  0.00    -0.051 Br
HETATM   26  C   UNL     1      39.046 -14.225   0.631  1.00  0.00     0.020 A 
HETATM   27  C   UNL     1      39.738 -14.129   1.840  1.00  0.00     0.014 A 
ENDBRANCH   7  21
TORSDOF 5
ENDMDL
MODEL 9
REMARK VINA RESULT:      -6.6      2.698      4.322
REMARK  5 active torsions:
REMARK  status: ('A' for Active; 'I' for Inactive)
REMARK    1  A    between atoms: C_6  and  N_7 
REMARK       I    between atoms: N_7  and  C_8 
REMARK    2  A    between atoms: C_8  and  C_9 
REMARK    3  A    between atoms: C_9  and  O_10 
REMARK    4  A    between atoms: O_10  and  C_11 
REMARK    5  A    between atoms: C_19  and  C_20 
ROOT
HETATM    1  C   UNL     1      40.886  -9.959   4.546  1.00  0.00     0.073 C 
HETATM    2  C   UNL     1      41.325 -11.168   5.287  1.00  0.00     0.065 A 
HETATM    3  N   UNL     1      41.590 -11.086   6.598  1.00  0.00    -0.177 NA
HETATM    4  N   UNL     1      41.926 -12.343   6.936  1.00  0.00    -0.262 N 
HETATM    5  H   UNL     1      42.174 -12.554   7.900  1.00  0.00     0.191 HD
HETATM    6  C   UNL     1      41.910 -13.226   5.887  1.00  0.00     0.137 A 
HETATM    7  C   UNL     1      41.508 -12.491   4.790  1.00  0.00     0.046 A 
ENDROOT
BRANCH   6   8
HETATM    8  N   UNL     1      42.254 -14.561   6.003  1.00  0.00    -0.309 N 
HETATM    9  C   UNL     1      43.530 -14.968   6.354  1.00  0.00     0.252 C 
HETATM   10  O   UNL     1      44.466 -14.202   6.589  1.00  0.00    -0.270 OA
HETATM   11  H   UNL     1      41.558 -15.264   5.770  1.00  0.00     0.170 HD
BRANCH   9  12
HETATM   12  C   UNL     1      43.679 -16.490   6.492  1.00  0.00     0.217 C 
HETATM   13  C   UNL     1      43.375 -16.892   7.933  1.00  0.00     0.050 C 
BRANCH  12  14
HETATM   14  O   UNL     1      42.758 -17.195   5.659  1.00  0.00    -0.337 OA
BRANCH  14  15
HETATM   15  C   UNL     1      43.152 -17.471   4.378  1.00  0.00     0.070 A 
HETATM   16  C   UNL     1      43.648 -18.763   4.186  1.00  0.00     0.037 A 
HETATM   17  C   UNL     1      44.089 -19.175   2.927  1.00  0.00     0.003 A 
HETATM   18  C   UNL     1      44.023 -18.299   1.848  1.00  0.00     0.000 A 
HETATM   19  C   UNL     1      43.513 -17.014   2.028  1.00  0.00     0.003 A 
HETATM   20  C   UNL     1      43.076 -16.600   3.290  1.00  0.00     0.037 A 
ENDBRANCH  14  15
ENDBRANCH  12  14
ENDBRANCH   9  12
ENDBRANCH   6   8
BRANCH   7  21
HETATM   21  C   UNL     1      41.310 -13.022   3.456  1.00  0.00    -0.020 A 
HETATM   22  C   UNL     1      42.314 -12.894   2.487  1.00  0.00     0.014 A 
HETATM   23  C   UNL     1      42.133 -13.425   1.207  1.00  0.00     0.020 A 
HETATM   24  C   UNL     1      40.947 -14.090   0.898  1.00  0.00     0.011 A 
HETATM   25 BR   UNL     1      40.703 -14.816  -0.830  1.00  0.00    -0.051 Br
HETATM   26  C   UNL     1      39.942 -14.227   1.855  1.00  0.00     0.020 A 
HETATM   27  C   UNL     1      40.125 -13.693   3.133  1.00  0.00     0.014 A 
ENDBRANCH   7  21
TORSDOF 5
ENDMDL
MODEL 10
REMARK VINA RESULT:      -6.5      3.426      4.981
REMARK  5 active torsions:
REMARK  status: ('A' for Active; 'I' for Inactive)
REMARK    1  A    between atoms: C_6  and  N_7 
REMARK       I    between atoms: N_7  and  C_8 
REMARK    2  A    between atoms: C_8  and  C_9 
REMARK    3  A    between atoms: C_9  and  O_10 
REMARK    4  A    between atoms: O_10  and  C_11 
REMARK    5  A    between atoms: C_19  and  C_20 
ROOT
HETATM    1  C   UNL     1      38.875 -11.118   4.645  1.00  0.00     0.073 C 
HETATM    2  C   UNL     1      39.379 -12.477   4.964  1.00  0.00     0.065 A 
HETATM    3  N   UNL     1      39.470 -12.871   6.241  1.00  0.00    -0.177 NA
HETATM    4  N   UNL     1      39.928 -14.132   6.156  1.00  0.00    -0.262 N 
HETATM    5  H   UNL     1      40.084 -14.667   7.007  1.00  0.00     0.191 HD
HETATM    6  C   UNL     1      40.158 -14.556   4.873  1.00  0.00     0.137 A 
HETATM    7  C   UNL     1      39.796 -13.499   4.063  1.00  0.00     0.046 A 
ENDROOT
BRANCH   6   8
HETATM    8  N   UNL     1      40.661 -15.806   4.557  1.00  0.00    -0.309 N 
HETATM    9  C   UNL     1      41.947 -16.191   4.894  1.00  0.00     0.252 C 
HETATM   10  O   UNL     1      42.755 -15.479   5.493  1.00  0.00    -0.270 OA
HETATM   11  H   UNL     1      40.083 -16.439   4.012  1.00  0.00     0.170 HD
BRANCH   9  12
HETATM   12  C   UNL     1      42.280 -17.641   4.510  1.00  0.00     0.217 C 
HETATM   13  C   UNL     1      42.049 -17.824   3.012  1.00  0.00     0.050 C 
BRANCH  12  14
HETATM   14  O   UNL     1      43.648 -17.961   4.763  1.00  0.00    -0.337 OA
BRANCH  14  15
HETATM   15  C   UNL     1      43.936 -19.248   5.128  1.00  0.00     0.070 A 
HETATM   16  C   UNL     1      44.621 -19.989   4.161  1.00  0.00     0.037 A 
HETATM   17  C   UNL     1      44.973 -21.318   4.402  1.00  0.00     0.003 A 
HETATM   18  C   UNL     1      44.653 -21.911   5.620  1.00  0.00     0.000 A 
HETATM   19  C   UNL     1      43.984 -21.173   6.595  1.00  0.00     0.003 A 
HETATM   20  C   UNL     1      43.628 -19.843   6.353  1.00  0.00     0.037 A 
ENDBRANCH  14  15
ENDBRANCH  12  14
ENDBRANCH   9  12
ENDBRANCH   6   8
BRANCH   7  21
HETATM   21  C   UNL     1      39.834 -13.507   2.613  1.00  0.00    -0.020 A 
HETATM   22  C   UNL     1      38.798 -14.101   1.881  1.00  0.00     0.014 A 
HETATM   23  C   UNL     1      38.824 -14.090   0.484  1.00  0.00     0.020 A 
HETATM   24  C   UNL     1      39.885 -13.479  -0.182  1.00  0.00     0.011 A 
HETATM   25 BR   UNL     1      39.918 -13.455  -2.071  1.00  0.00    -0.051 Br
HETATM   26  C   UNL     1      40.920 -12.881   0.536  1.00  0.00     0.020 A 
HETATM   27  C   UNL     1      40.894 -12.895   1.933  1.00  0.00     0.014 A 
ENDBRANCH   7  21
TORSDOF 5
ENDMDL
