MODEL 1
REMARK VINA RESULT:      -8.4      0.000      0.000
REMARK  4 active torsions:
REMARK  status: ('A' for Active; 'I' for Inactive)
REMARK    1  A    between atoms: N_6  and  N_7 
REMARK       I    between atoms: N_7  and  C_8 
REMARK    2  A    between atoms: C_8  and  C_9 
REMARK    3  A    between atoms: C_10  and  O_11 
REMARK    4  A    between atoms: C_14  and  N_15 
ROOT
HETATM    1  N   UNL     1      43.201 -17.557   1.177  1.00  0.00    -0.242 N 
HETATM    2  C   UNL     1      41.915 -17.096   0.957  1.00  0.00     0.274 C 
HETATM    3  O   UNL     1      40.881 -17.747   1.084  1.00  0.00    -0.266 OA
HETATM    4  H   UNL     1      43.995 -16.941   1.074  1.00  0.00     0.192 HD
ENDROOT
BRANCH   1   5
HETATM    5  N   UNL     1      43.433 -18.872   1.423  1.00  0.00    -0.166 NA
HETATM    6  C   UNL     1      43.796 -19.233   2.613  1.00  0.00     0.157 A 
HETATM    7  C   UNL     1      44.279 -20.667   2.902  1.00  0.00     0.279 A 
HETATM    8  C   UNL     1      43.871 -18.516   3.896  1.00  0.00     0.029 A 
HETATM    9  N   UNL     1      44.662 -20.661   4.231  1.00  0.00    -0.316 N 
HETATM   10  O   UNL     1      44.320 -21.573   2.098  1.00  0.00    -0.265 OA
HETATM   11  C   UNL     1      45.174 -21.808   4.932  1.00  0.00     0.159 C 
HETATM   12  C   UNL     1      44.418 -19.414   4.820  1.00  0.00     0.050 A 
HETATM   13  C   UNL     1      44.627 -19.048   6.140  1.00  0.00     0.032 A 
HETATM   14  C   UNL     1      44.257 -17.757   6.530  1.00  0.00     0.026 A 
HETATM   15  C   UNL     1      43.673 -16.875   5.608  1.00  0.00     0.035 A 
HETATM   16  C   UNL     1      43.460 -17.249   4.279  1.00  0.00     0.040 A 
HETATM   17 CL   UNL     1      43.201 -15.303   6.125  1.00  0.00    -0.084 Cl
ENDBRANCH   1   5
BRANCH   2  18
HETATM   18  C   UNL     1      41.801 -15.647   0.648  1.00  0.00     0.068 A 
HETATM   19  C   UNL     1      41.188 -15.250  -0.546  1.00  0.00     0.081 A 
HETATM   20  C   UNL     1      40.957 -13.903  -0.801  1.00  0.00     0.039 A 
HETATM   21  C   UNL     1      41.372 -12.940   0.123  1.00  0.00     0.026 A 
HETATM   22  C   UNL     1      42.080 -13.310   1.270  1.00  0.00     0.006 A 
HETATM   23  C   UNL     1      42.255 -14.669   1.548  1.00  0.00     0.043 A 
BRANCH  19  24
HETATM   24  O   UNL     1      40.760 -16.136  -1.498  1.00  0.00    -0.360 OA
HETATM   25  H   UNL     1      39.912 -15.797  -1.867  1.00  0.00     0.217 HD
ENDBRANCH  19  24
BRANCH  22  26
HETATM   26  N   UNL     1      42.395 -12.352   2.242  1.00  0.00    -0.303 NA
HETATM   27  H   UNL     1      43.174 -11.752   1.986  1.00  0.00     0.124 HD
HETATM   28  H   UNL     1      42.506 -12.727   3.180  1.00  0.00     0.124 HD
ENDBRANCH  22  26
ENDBRANCH   2  18
TORSDOF 4
ENDMDL
MODEL 2
REMARK VINA RESULT:      -8.2      3.575      4.463
REMARK  4 active torsions:
REMARK  status: ('A' for Active; 'I' for Inactive)
REMARK    1  A    between atoms: N_6  and  N_7 
REMARK       I    between atoms: N_7  and  C_8 
REMARK    2  A    between atoms: C_8  and  C_9 
REMARK    3  A    between atoms: C_10  and  O_11 
REMARK    4  A    between atoms: C_14  and  N_15 
ROOT
HETATM    1  N   UNL     1      42.326 -16.239   5.918  1.00  0.00    -0.242 N 
HETATM    2  C   UNL     1      40.950 -16.102   5.866  1.00  0.00     0.274 C 
HETATM    3  O   UNL     1      40.133 -16.756   6.511  1.00  0.00    -0.266 OA
HETATM    4  H   UNL     1      42.925 -15.638   5.371  1.00  0.00     0.192 HD
ENDROOT
BRANCH   1   5
HETATM    5  N   UNL     1      42.895 -17.258   6.612  1.00  0.00    -0.166 NA
HETATM    6  C   UNL     1      43.361 -18.277   5.960  1.00  0.00     0.157 A 
HETATM    7  C   UNL     1      43.820 -19.552   6.692  1.00  0.00     0.279 A 
HETATM    8  C   UNL     1      43.571 -18.536   4.527  1.00  0.00     0.029 A 
HETATM    9  N   UNL     1      44.161 -20.443   5.690  1.00  0.00    -0.316 N 
HETATM   10  O   UNL     1      43.840 -19.708   7.894  1.00  0.00    -0.265 OA
HETATM   11  C   UNL     1      44.658 -21.773   5.924  1.00  0.00     0.159 C 
HETATM   12  C   UNL     1      44.029 -19.854   4.426  1.00  0.00     0.050 A 
HETATM   13  C   UNL     1      44.324 -20.420   3.196  1.00  0.00     0.032 A 
HETATM   14  C   UNL     1      44.170 -19.628   2.055  1.00  0.00     0.026 A 
HETATM   15  C   UNL     1      43.748 -18.293   2.166  1.00  0.00     0.035 A 
HETATM   16  C   UNL     1      43.455 -17.726   3.409  1.00  0.00     0.040 A 
HETATM   17 CL   UNL     1      43.596 -17.334   0.746  1.00  0.00    -0.084 Cl
ENDBRANCH   1   5
BRANCH   2  18
HETATM   18  C   UNL     1      40.452 -14.979   5.031  1.00  0.00     0.068 A 
HETATM   19  C   UNL     1      39.915 -13.848   5.658  1.00  0.00     0.081 A 
HETATM   20  C   UNL     1      39.559 -12.734   4.907  1.00  0.00     0.039 A 
HETATM   21  C   UNL     1      39.702 -12.758   3.518  1.00  0.00     0.026 A 
HETATM   22  C   UNL     1      40.136 -13.915   2.864  1.00  0.00     0.006 A 
HETATM   23  C   UNL     1      40.549 -15.009   3.631  1.00  0.00     0.043 A 
BRANCH  19  24
HETATM   24  O   UNL     1      39.743 -13.755   7.013  1.00  0.00    -0.360 OA
HETATM   25  H   UNL     1      38.781 -13.852   7.203  1.00  0.00     0.217 HD
ENDBRANCH  19  24
BRANCH  22  26
HETATM   26  N   UNL     1      40.381 -13.896   1.485  1.00  0.00    -0.303 NA
HETATM   27  H   UNL     1      40.116 -14.756   1.012  1.00  0.00     0.124 HD
HETATM   28  H   UNL     1      41.319 -13.603   1.231  1.00  0.00     0.124 HD
ENDBRANCH  22  26
ENDBRANCH   2  18
TORSDOF 4
ENDMDL
MODEL 3
REMARK VINA RESULT:      -8.0      2.506      6.644
REMARK  4 active torsions:
REMARK  status: ('A' for Active; 'I' for Inactive)
REMARK    1  A    between atoms: N_6  and  N_7 
REMARK       I    between atoms: N_7  and  C_8 
REMARK    2  A    between atoms: C_8  and  C_9 
REMARK    3  A    between atoms: C_10  and  O_11 
REMARK    4  A    between atoms: C_14  and  N_15 
ROOT
HETATM    1  N   UNL     1      42.097 -17.778   1.567  1.00  0.00    -0.242 N 
HETATM    2  C   UNL     1      43.438 -17.761   1.907  1.00  0.00     0.274 C 
HETATM    3  O   UNL     1      44.202 -16.805   1.793  1.00  0.00    -0.266 OA
HETATM    4  H   UNL     1      41.536 -18.603   1.722  1.00  0.00     0.192 HD
ENDROOT
BRANCH   1   5
HETATM    5  N   UNL     1      41.535 -16.730   0.912  1.00  0.00    -0.166 NA
HETATM    6  C   UNL     1      40.907 -15.827   1.598  1.00  0.00     0.157 A 
HETATM    7  C   UNL     1      40.069 -14.736   0.905  1.00  0.00     0.279 A 
HETATM    8  C   UNL     1      40.785 -15.573   3.042  1.00  0.00     0.029 A 
HETATM    9  N   UNL     1      39.482 -14.020   1.933  1.00  0.00    -0.316 N 
HETATM   10  O   UNL     1      39.957 -14.586  -0.293  1.00  0.00    -0.265 OA
HETATM   11  C   UNL     1      38.614 -12.889   1.740  1.00  0.00     0.159 C 
HETATM   12  C   UNL     1      39.903 -14.496   3.181  1.00  0.00     0.050 A 
HETATM   13  C   UNL     1      39.567 -14.000   4.431  1.00  0.00     0.032 A 
HETATM   14  C   UNL     1      40.150 -14.596   5.553  1.00  0.00     0.026 A 
HETATM   15  C   UNL     1      41.065 -15.650   5.404  1.00  0.00     0.035 A 
HETATM   16  C   UNL     1      41.404 -16.144   4.142  1.00  0.00     0.040 A 
HETATM   17 CL   UNL     1      41.790 -16.344   6.802  1.00  0.00    -0.084 Cl
ENDBRANCH   1   5
BRANCH   2  18
HETATM   18  C   UNL     1      43.943 -18.989   2.574  1.00  0.00     0.068 A 
HETATM   19  C   UNL     1      44.246 -18.949   3.940  1.00  0.00     0.081 A 
HETATM   20  C   UNL     1      44.599 -20.112   4.613  1.00  0.00     0.039 A 
HETATM   21  C   UNL     1      44.688 -21.319   3.915  1.00  0.00     0.026 A 
HETATM   22  C   UNL     1      44.492 -21.360   2.532  1.00  0.00     0.006 A 
HETATM   23  C   UNL     1      44.079 -20.198   1.873  1.00  0.00     0.043 A 
BRANCH  19  24
HETATM   24  O   UNL     1      44.184 -17.803   4.686  1.00  0.00    -0.360 OA
HETATM   25  H   UNL     1      44.591 -17.991   5.564  1.00  0.00     0.217 HD
ENDBRANCH  19  24
BRANCH  22  26
HETATM   26  N   UNL     1      44.475 -22.589   1.859  1.00  0.00    -0.303 NA
HETATM   27  H   UNL     1      45.308 -23.151   2.015  1.00  0.00     0.124 HD
HETATM   28  H   UNL     1      44.249 -22.522   0.871  1.00  0.00     0.124 HD
ENDBRANCH  22  26
ENDBRANCH   2  18
TORSDOF 4
ENDMDL
MODEL 4
REMARK VINA RESULT:      -7.7      3.605      4.492
REMARK  4 active torsions:
REMARK  status: ('A' for Active; 'I' for Inactive)
REMARK    1  A    between atoms: N_6  and  N_7 
REMARK       I    between atoms: N_7  and  C_8 
REMARK    2  A    between atoms: C_8  and  C_9 
REMARK    3  A    between atoms: C_10  and  O_11 
REMARK    4  A    between atoms: C_14  and  N_15 
ROOT
HETATM    1  N   UNL     1      42.338 -16.118   6.026  1.00  0.00    -0.242 N 
HETATM    2  C   UNL     1      42.914 -14.860   6.032  1.00  0.00     0.274 C 
HETATM    3  O   UNL     1      44.020 -14.572   6.484  1.00  0.00    -0.266 OA
HETATM    4  H   UNL     1      41.432 -16.268   5.607  1.00  0.00     0.192 HD
ENDROOT
BRANCH   1   5
HETATM    5  N   UNL     1      42.924 -17.151   6.685  1.00  0.00    -0.166 NA
HETATM    6  C   UNL     1      43.354 -18.165   6.002  1.00  0.00     0.157 A 
HETATM    7  C   UNL     1      43.830 -19.454   6.698  1.00  0.00     0.279 A 
HETATM    8  C   UNL     1      43.507 -18.406   4.558  1.00  0.00     0.029 A 
HETATM    9  N   UNL     1      44.124 -20.334   5.672  1.00  0.00    -0.316 N 
HETATM   10  O   UNL     1      43.894 -19.626   7.896  1.00  0.00    -0.265 OA
HETATM   11  C   UNL     1      44.617 -21.671   5.868  1.00  0.00     0.159 C 
HETATM   12  C   UNL     1      43.948 -19.727   4.422  1.00  0.00     0.050 A 
HETATM   13  C   UNL     1      44.191 -20.279   3.174  1.00  0.00     0.032 A 
HETATM   14  C   UNL     1      44.000 -19.469   2.050  1.00  0.00     0.026 A 
HETATM   15  C   UNL     1      43.595 -18.133   2.196  1.00  0.00     0.035 A 
HETATM   16  C   UNL     1      43.355 -17.580   3.456  1.00  0.00     0.040 A 
HETATM   17 CL   UNL     1      43.397 -17.153   0.795  1.00  0.00    -0.084 Cl
ENDBRANCH   1   5
BRANCH   2  18
HETATM   18  C   UNL     1      42.148 -13.804   5.320  1.00  0.00     0.068 A 
HETATM   19  C   UNL     1      42.668 -13.264   4.138  1.00  0.00     0.081 A 
HETATM   20  C   UNL     1      41.915 -12.369   3.387  1.00  0.00     0.039 A 
HETATM   21  C   UNL     1      40.650 -11.979   3.834  1.00  0.00     0.026 A 
HETATM   22  C   UNL     1      40.158 -12.425   5.064  1.00  0.00     0.006 A 
HETATM   23  C   UNL     1      40.895 -13.371   5.783  1.00  0.00     0.043 A 
BRANCH  19  24
HETATM   24  O   UNL     1      43.900 -13.596   3.642  1.00  0.00    -0.360 OA
HETATM   25  H   UNL     1      44.466 -12.790   3.671  1.00  0.00     0.217 HD
ENDBRANCH  19  24
BRANCH  22  26
HETATM   26  N   UNL     1      38.848 -12.117   5.452  1.00  0.00    -0.303 NA
HETATM   27  H   UNL     1      38.780 -11.741   6.394  1.00  0.00     0.124 HD
HETATM   28  H   UNL     1      38.180 -12.867   5.300  1.00  0.00     0.124 HD
ENDBRANCH  22  26
ENDBRANCH   2  18
TORSDOF 4
ENDMDL
MODEL 5
REMARK VINA RESULT:      -7.5      3.584      4.302
REMARK  4 active torsions:
REMARK  status: ('A' for Active; 'I' for Inactive)
REMARK    1  A    between atoms: N_6  and  N_7 
REMARK       I    between atoms: N_7  and  C_8 
REMARK    2  A    between atoms: C_8  and  C_9 
REMARK    3  A    between atoms: C_10  and  O_11 
REMARK    4  A    between atoms: C_14  and  N_15 
ROOT
HETATM    1  N   UNL     1      42.253 -14.658   5.027  1.00  0.00    -0.242 N 
HETATM    2  C   UNL     1      40.908 -14.531   4.724  1.00  0.00     0.274 C 
HETATM    3  O   UNL     1      39.970 -14.849   5.451  1.00  0.00    -0.266 OA
HETATM    4  H   UNL     1      42.960 -14.343   4.378  1.00  0.00     0.192 HD
ENDROOT
BRANCH   1   5
HETATM    5  N   UNL     1      42.652 -15.312   6.148  1.00  0.00    -0.166 NA
HETATM    6  C   UNL     1      43.056 -16.539   6.046  1.00  0.00     0.157 A 
HETATM    7  C   UNL     1      43.316 -17.401   7.296  1.00  0.00     0.279 A 
HETATM    8  C   UNL     1      43.354 -17.402   4.892  1.00  0.00     0.029 A 
HETATM    9  N   UNL     1      43.640 -18.656   6.811  1.00  0.00    -0.316 N 
HETATM   10  O   UNL     1      43.221 -17.026   8.445  1.00  0.00    -0.265 OA
HETATM   11  C   UNL     1      43.971 -19.784   7.640  1.00  0.00     0.159 C 
HETATM   12  C   UNL     1      43.674 -18.661   5.411  1.00  0.00     0.050 A 
HETATM   13  C   UNL     1      44.006 -19.718   4.579  1.00  0.00     0.032 A 
HETATM   14  C   UNL     1      44.030 -19.485   3.200  1.00  0.00     0.026 A 
HETATM   15  C   UNL     1      43.747 -18.209   2.688  1.00  0.00     0.035 A 
HETATM   16  C   UNL     1      43.416 -17.146   3.532  1.00  0.00     0.040 A 
HETATM   17 CL   UNL     1      43.814 -17.947   0.989  1.00  0.00    -0.084 Cl
ENDBRANCH   1   5
BRANCH   2  18
HETATM   18  C   UNL     1      40.606 -13.840   3.444  1.00  0.00     0.068 A 
HETATM   19  C   UNL     1      41.253 -12.634   3.149  1.00  0.00     0.081 A 
HETATM   20  C   UNL     1      41.084 -12.034   1.907  1.00  0.00     0.039 A 
HETATM   21  C   UNL     1      40.234 -12.617   0.964  1.00  0.00     0.026 A 
HETATM   22  C   UNL     1      39.497 -13.763   1.278  1.00  0.00     0.006 A 
HETATM   23  C   UNL     1      39.720 -14.393   2.506  1.00  0.00     0.043 A 
BRANCH  19  24
HETATM   24  O   UNL     1      42.096 -12.005   4.025  1.00  0.00    -0.360 OA
HETATM   25  H   UNL     1      42.241 -11.086   3.699  1.00  0.00     0.217 HD
ENDBRANCH  19  24
BRANCH  22  26
HETATM   26  N   UNL     1      38.734 -14.401   0.292  1.00  0.00    -0.303 NA
HETATM   27  H   UNL     1      39.285 -14.970  -0.345  1.00  0.00     0.124 HD
HETATM   28  H   UNL     1      38.099 -13.787  -0.209  1.00  0.00     0.124 HD
ENDBRANCH  22  26
ENDBRANCH   2  18
TORSDOF 4
ENDMDL
MODEL 6
REMARK VINA RESULT:      -7.5      3.821      7.722
REMARK  4 active torsions:
REMARK  status: ('A' for Active; 'I' for Inactive)
REMARK    1  A    between atoms: N_6  and  N_7 
REMARK       I    between atoms: N_7  and  C_8 
REMARK    2  A    between atoms: C_8  and  C_9 
REMARK    3  A    between atoms: C_10  and  O_11 
REMARK    4  A    between atoms: C_14  and  N_15 
ROOT
HETATM    1  N   UNL     1      41.286 -16.661   5.881  1.00  0.00    -0.242 N 
HETATM    2  C   UNL     1      42.652 -16.685   6.101  1.00  0.00     0.274 C 
HETATM    3  O   UNL     1      43.312 -15.809   6.655  1.00  0.00    -0.266 OA
HETATM    4  H   UNL     1      40.820 -17.441   5.440  1.00  0.00     0.192 HD
ENDROOT
BRANCH   1   5
HETATM    5  N   UNL     1      40.562 -15.543   6.145  1.00  0.00    -0.166 NA
HETATM    6  C   UNL     1      40.248 -14.754   5.166  1.00  0.00     0.157 A 
HETATM    7  C   UNL     1      39.619 -13.372   5.423  1.00  0.00     0.279 A 
HETATM    8  C   UNL     1      40.368 -14.878   3.705  1.00  0.00     0.029 A 
HETATM    9  N   UNL     1      39.507 -12.786   4.175  1.00  0.00    -0.316 N 
HETATM   10  O   UNL     1      39.323 -12.922   6.509  1.00  0.00    -0.265 OA
HETATM   11  C   UNL     1      38.955 -11.478   3.940  1.00  0.00     0.159 C 
HETATM   12  C   UNL     1      39.932 -13.662   3.168  1.00  0.00     0.050 A 
HETATM   13  C   UNL     1      39.920 -13.444   1.799  1.00  0.00     0.032 A 
HETATM   14  C   UNL     1      40.340 -14.484   0.965  1.00  0.00     0.026 A 
HETATM   15  C   UNL     1      40.739 -15.715   1.508  1.00  0.00     0.035 A 
HETATM   16  C   UNL     1      40.746 -15.932   2.888  1.00  0.00     0.040 A 
HETATM   17 CL   UNL     1      41.223 -16.987   0.455  1.00  0.00    -0.084 Cl
ENDBRANCH   1   5
BRANCH   2  18
HETATM   18  C   UNL     1      43.336 -17.949   5.723  1.00  0.00     0.068 A 
HETATM   19  C   UNL     1      43.641 -18.885   6.719  1.00  0.00     0.081 A 
HETATM   20  C   UNL     1      44.165 -20.126   6.376  1.00  0.00     0.039 A 
HETATM   21  C   UNL     1      44.424 -20.425   5.036  1.00  0.00     0.026 A 
HETATM   22  C   UNL     1      44.226 -19.465   4.039  1.00  0.00     0.006 A 
HETATM   23  C   UNL     1      43.642 -18.243   4.384  1.00  0.00     0.043 A 
BRANCH  19  24
HETATM   24  O   UNL     1      43.419 -18.659   8.050  1.00  0.00    -0.360 OA
HETATM   25  H   UNL     1      43.041 -19.483   8.438  1.00  0.00     0.217 HD
ENDBRANCH  19  24
BRANCH  22  26
HETATM   26  N   UNL     1      44.383 -19.809   2.690  1.00  0.00    -0.303 NA
HETATM   27  H   UNL     1      43.574 -19.586   2.116  1.00  0.00     0.124 HD
HETATM   28  H   UNL     1      44.700 -20.761   2.535  1.00  0.00     0.124 HD
ENDBRANCH  22  26
ENDBRANCH   2  18
TORSDOF 4
ENDMDL
MODEL 7
REMARK VINA RESULT:      -7.5      3.266      3.840
REMARK  4 active torsions:
REMARK  status: ('A' for Active; 'I' for Inactive)
REMARK    1  A    between atoms: N_6  and  N_7 
REMARK       I    between atoms: N_7  and  C_8 
REMARK    2  A    between atoms: C_8  and  C_9 
REMARK    3  A    between atoms: C_10  and  O_11 
REMARK    4  A    between atoms: C_14  and  N_15 
ROOT
HETATM    1  N   UNL     1      42.256 -15.292   3.513  1.00  0.00    -0.242 N 
HETATM    2  C   UNL     1      40.982 -14.763   3.623  1.00  0.00     0.274 C 
HETATM    3  O   UNL     1      39.957 -15.237   3.137  1.00  0.00    -0.266 OA
HETATM    4  H   UNL     1      43.040 -14.849   3.970  1.00  0.00     0.192 HD
ENDROOT
BRANCH   1   5
HETATM    5  N   UNL     1      42.499 -16.349   2.695  1.00  0.00    -0.166 NA
HETATM    6  C   UNL     1      43.084 -17.398   3.184  1.00  0.00     0.157 A 
HETATM    7  C   UNL     1      43.579 -18.535   2.271  1.00  0.00     0.279 A 
HETATM    8  C   UNL     1      43.432 -17.800   4.556  1.00  0.00     0.029 A 
HETATM    9  N   UNL     1      44.221 -19.424   3.114  1.00  0.00    -0.316 N 
HETATM   10  O   UNL     1      43.436 -18.588   1.069  1.00  0.00    -0.265 OA
HETATM   11  C   UNL     1      44.834 -20.652   2.682  1.00  0.00     0.159 C 
HETATM   12  C   UNL     1      44.130 -19.008   4.448  1.00  0.00     0.050 A 
HETATM   13  C   UNL     1      44.608 -19.664   5.572  1.00  0.00     0.032 A 
HETATM   14  C   UNL     1      44.356 -19.092   6.823  1.00  0.00     0.026 A 
HETATM   15  C   UNL     1      43.621 -17.900   6.926  1.00  0.00     0.035 A 
HETATM   16  C   UNL     1      43.138 -17.245   5.791  1.00  0.00     0.040 A 
HETATM   17 CL   UNL     1      43.302 -17.237   8.481  1.00  0.00    -0.084 Cl
ENDBRANCH   1   5
BRANCH   2  18
HETATM   18  C   UNL     1      40.859 -13.577   4.508  1.00  0.00     0.068 A 
HETATM   19  C   UNL     1      41.446 -12.368   4.115  1.00  0.00     0.081 A 
HETATM   20  C   UNL     1      41.239 -11.214   4.862  1.00  0.00     0.039 A 
HETATM   21  C   UNL     1      40.473 -11.270   6.029  1.00  0.00     0.026 A 
HETATM   22  C   UNL     1      39.968 -12.487   6.495  1.00  0.00     0.006 A 
HETATM   23  C   UNL     1      40.129 -13.630   5.707  1.00  0.00     0.043 A 
BRANCH  19  24
HETATM   24  O   UNL     1      42.210 -12.240   2.987  1.00  0.00    -0.360 OA
HETATM   25  H   UNL     1      42.107 -11.318   2.654  1.00  0.00     0.217 HD
ENDBRANCH  19  24
BRANCH  22  26
HETATM   26  N   UNL     1      39.112 -12.517   7.603  1.00  0.00    -0.303 NA
HETATM   27  H   UNL     1      39.599 -12.489   8.495  1.00  0.00     0.124 HD
HETATM   28  H   UNL     1      38.420 -13.260   7.578  1.00  0.00     0.124 HD
ENDBRANCH  22  26
ENDBRANCH   2  18
TORSDOF 4
ENDMDL
MODEL 8
REMARK VINA RESULT:      -7.4      3.524      4.502
REMARK  4 active torsions:
REMARK  status: ('A' for Active; 'I' for Inactive)
REMARK    1  A    between atoms: N_6  and  N_7 
REMARK       I    between atoms: N_7  and  C_8 
REMARK    2  A    between atoms: C_8  and  C_9 
REMARK    3  A    between atoms: C_10  and  O_11 
REMARK    4  A    between atoms: C_14  and  N_15 
ROOT
HETATM    1  N   UNL     1      43.415 -13.766   2.999  1.00  0.00    -0.242 N 
HETATM    2  C   UNL     1      42.231 -13.199   2.562  1.00  0.00     0.274 C 
HETATM    3  O   UNL     1      41.440 -12.554   3.247  1.00  0.00    -0.266 OA
HETATM    4  H   UNL     1      44.020 -14.257   2.358  1.00  0.00     0.192 HD
ENDROOT
BRANCH   1   5
HETATM    5  N   UNL     1      43.733 -13.774   4.320  1.00  0.00    -0.166 NA
HETATM    6  C   UNL     1      43.630 -14.884   4.981  1.00  0.00     0.157 A 
HETATM    7  C   UNL     1      43.766 -14.915   6.516  1.00  0.00     0.279 A 
HETATM    8  C   UNL     1      43.381 -16.274   4.570  1.00  0.00     0.029 A 
HETATM    9  N   UNL     1      43.513 -16.227   6.876  1.00  0.00    -0.316 N 
HETATM   10  O   UNL     1      44.019 -13.963   7.221  1.00  0.00    -0.265 OA
HETATM   11  C   UNL     1      43.543 -16.715   8.229  1.00  0.00     0.159 C 
HETATM   12  C   UNL     1      43.298 -17.026   5.746  1.00  0.00     0.050 A 
HETATM   13  C   UNL     1      43.065 -18.392   5.711  1.00  0.00     0.032 A 
HETATM   14  C   UNL     1      42.933 -19.003   4.461  1.00  0.00     0.026 A 
HETATM   15  C   UNL     1      43.056 -18.249   3.283  1.00  0.00     0.035 A 
HETATM   16  C   UNL     1      43.295 -16.874   3.323  1.00  0.00     0.040 A 
HETATM   17 CL   UNL     1      42.919 -19.035   1.758  1.00  0.00    -0.084 Cl
ENDBRANCH   1   5
BRANCH   2  18
HETATM   18  C   UNL     1      41.977 -13.301   1.101  1.00  0.00     0.068 A 
HETATM   19  C   UNL     1      42.219 -12.188   0.287  1.00  0.00     0.081 A 
HETATM   20  C   UNL     1      42.110 -12.295  -1.094  1.00  0.00     0.039 A 
HETATM   21  C   UNL     1      41.721 -13.508  -1.669  1.00  0.00     0.026 A 
HETATM   22  C   UNL     1      41.373 -14.599  -0.868  1.00  0.00     0.006 A 
HETATM   23  C   UNL     1      41.544 -14.502   0.516  1.00  0.00     0.043 A 
BRANCH  19  24
HETATM   24  O   UNL     1      42.598 -10.969   0.780  1.00  0.00    -0.360 OA
HETATM   25  H   UNL     1      42.532 -10.313   0.049  1.00  0.00     0.217 HD
ENDBRANCH  19  24
BRANCH  22  26
HETATM   26  N   UNL     1      41.092 -15.840  -1.452  1.00  0.00    -0.303 NA
HETATM   27  H   UNL     1      40.328 -16.338  -1.003  1.00  0.00     0.124 HD
HETATM   28  H   UNL     1      41.904 -16.437  -1.579  1.00  0.00     0.124 HD
ENDBRANCH  22  26
ENDBRANCH   2  18
TORSDOF 4
ENDMDL
MODEL 9
REMARK VINA RESULT:      -7.4      7.168      9.329
REMARK  4 active torsions:
REMARK  status: ('A' for Active; 'I' for Inactive)
REMARK    1  A    between atoms: N_6  and  N_7 
REMARK       I    between atoms: N_7  and  C_8 
REMARK    2  A    between atoms: C_8  and  C_9 
REMARK    3  A    between atoms: C_10  and  O_11 
REMARK    4  A    between atoms: C_14  and  N_15 
ROOT
HETATM    1  N   UNL     1      40.613 -11.667   7.564  1.00  0.00    -0.242 N 
HETATM    2  C   UNL     1      40.025 -11.747   6.315  1.00  0.00     0.274 C 
HETATM    3  O   UNL     1      39.057 -11.097   5.927  1.00  0.00    -0.266 OA
HETATM    4  H   UNL     1      41.426 -12.222   7.789  1.00  0.00     0.192 HD
ENDROOT
BRANCH   1   5
HETATM    5  N   UNL     1      40.043 -10.930   8.552  1.00  0.00    -0.166 NA
HETATM    6  C   UNL     1      40.754 -10.614   9.589  1.00  0.00     0.157 A 
HETATM    7  C   UNL     1      40.113  -9.970  10.832  1.00  0.00     0.279 A 
HETATM    8  C   UNL     1      42.187 -10.747   9.896  1.00  0.00     0.029 A 
HETATM    9  N   UNL     1      41.139  -9.862  11.755  1.00  0.00    -0.316 N 
HETATM   10  O   UNL     1      38.947  -9.662  10.945  1.00  0.00    -0.265 OA
HETATM   11  C   UNL     1      40.989  -9.299  13.070  1.00  0.00     0.159 C 
HETATM   12  C   UNL     1      42.352 -10.303  11.212  1.00  0.00     0.050 A 
HETATM   13  C   UNL     1      43.599 -10.298  11.818  1.00  0.00     0.032 A 
HETATM   14  C   UNL     1      44.695 -10.736  11.068  1.00  0.00     0.026 A 
HETATM   15  C   UNL     1      44.528 -11.143   9.735  1.00  0.00     0.035 A 
HETATM   16  C   UNL     1      43.271 -11.142   9.127  1.00  0.00     0.040 A 
HETATM   17 CL   UNL     1      45.901 -11.647   8.828  1.00  0.00    -0.084 Cl
ENDBRANCH   1   5
BRANCH   2  18
HETATM   18  C   UNL     1      40.718 -12.628   5.339  1.00  0.00     0.068 A 
HETATM   19  C   UNL     1      40.671 -14.015   5.518  1.00  0.00     0.081 A 
HETATM   20  C   UNL     1      41.203 -14.864   4.554  1.00  0.00     0.039 A 
HETATM   21  C   UNL     1      41.820 -14.328   3.421  1.00  0.00     0.026 A 
HETATM   22  C   UNL     1      41.971 -12.946   3.276  1.00  0.00     0.006 A 
HETATM   23  C   UNL     1      41.381 -12.100   4.219  1.00  0.00     0.043 A 
BRANCH  19  24
HETATM   24  O   UNL     1      40.087 -14.610   6.603  1.00  0.00    -0.360 OA
HETATM   25  H   UNL     1      40.476 -15.509   6.702  1.00  0.00     0.217 HD
ENDBRANCH  19  24
BRANCH  22  26
HETATM   26  N   UNL     1      42.491 -12.415   2.089  1.00  0.00    -0.303 NA
HETATM   27  H   UNL     1      41.782 -12.036   1.467  1.00  0.00     0.124 HD
HETATM   28  H   UNL     1      43.127 -13.035   1.596  1.00  0.00     0.124 HD
ENDBRANCH  22  26
ENDBRANCH   2  18
TORSDOF 4
ENDMDL
MODEL 10
REMARK VINA RESULT:      -7.3      3.033      4.348
REMARK  4 active torsions:
REMARK  status: ('A' for Active; 'I' for Inactive)
REMARK    1  A    between atoms: N_6  and  N_7 
REMARK       I    between atoms: N_7  and  C_8 
REMARK    2  A    between atoms: C_8  and  C_9 
REMARK    3  A    between atoms: C_10  and  O_11 
REMARK    4  A    between atoms: C_14  and  N_15 
ROOT
HETATM    1  N   UNL     1      42.561 -14.400   1.907  1.00  0.00    -0.242 N 
HETATM    2  C   UNL     1      41.997 -13.466   1.056  1.00  0.00     0.274 C 
HETATM    3  O   UNL     1      41.776 -12.286   1.319  1.00  0.00    -0.266 OA
HETATM    4  H   UNL     1      42.732 -15.345   1.596  1.00  0.00     0.192 HD
ENDROOT
BRANCH   1   5
HETATM    5  N   UNL     1      42.788 -14.099   3.212  1.00  0.00    -0.166 NA
HETATM    6  C   UNL     1      43.022 -15.064   4.045  1.00  0.00     0.157 A 
HETATM    7  C   UNL     1      43.074 -14.813   5.564  1.00  0.00     0.279 A 
HETATM    8  C   UNL     1      43.272 -16.502   3.865  1.00  0.00     0.029 A 
HETATM    9  N   UNL     1      43.250 -16.062   6.133  1.00  0.00    -0.316 N 
HETATM   10  O   UNL     1      42.956 -13.735   6.106  1.00  0.00    -0.265 OA
HETATM   11  C   UNL     1      43.363 -16.299   7.547  1.00  0.00     0.159 C 
HETATM   12  C   UNL     1      43.377 -17.050   5.148  1.00  0.00     0.050 A 
HETATM   13  C   UNL     1      43.613 -18.403   5.335  1.00  0.00     0.032 A 
HETATM   14  C   UNL     1      43.762 -19.206   4.201  1.00  0.00     0.026 A 
HETATM   15  C   UNL     1      43.695 -18.644   2.916  1.00  0.00     0.035 A 
HETATM   16  C   UNL     1      43.461 -17.279   2.733  1.00  0.00     0.040 A 
HETATM   17 CL   UNL     1      43.912 -19.653   1.540  1.00  0.00    -0.084 Cl
ENDBRANCH   1   5
BRANCH   2  18
HETATM   18  C   UNL     1      41.752 -13.936  -0.333  1.00  0.00     0.068 A 
HETATM   19  C   UNL     1      41.085 -15.150  -0.535  1.00  0.00     0.081 A 
HETATM   20  C   UNL     1      40.733 -15.550  -1.818  1.00  0.00     0.039 A 
HETATM   21  C   UNL     1      41.079 -14.754  -2.913  1.00  0.00     0.026 A 
HETATM   22  C   UNL     1      41.837 -13.593  -2.741  1.00  0.00     0.006 A 
HETATM   23  C   UNL     1      42.135 -13.167  -1.444  1.00  0.00     0.043 A 
BRANCH  19  24
HETATM   24  O   UNL     1      40.719 -15.981   0.489  1.00  0.00    -0.360 OA
HETATM   25  H   UNL     1      41.385 -15.888   1.209  1.00  0.00     0.217 HD
ENDBRANCH  19  24
BRANCH  22  26
HETATM   26  N   UNL     1      42.085 -12.746  -3.829  1.00  0.00    -0.303 NA
HETATM   27  H   UNL     1      41.420 -11.981  -3.910  1.00  0.00     0.124 HD
HETATM   28  H   UNL     1      42.210 -13.228  -4.715  1.00  0.00     0.124 HD
ENDBRANCH  22  26
ENDBRANCH   2  18
TORSDOF 4
ENDMDL
