MODEL 1
REMARK VINA RESULT:      -9.6      0.000      0.000
REMARK  8 active torsions:
REMARK  status: ('A' for Active; 'I' for Inactive)
REMARK    1  A    between atoms: C_6  and  N_7 
REMARK       I    between atoms: N_7  and  C_8 
REMARK    2  A    between atoms: C_8  and  C_9 
REMARK    3  A    between atoms: C_10  and  N_11 
REMARK       I    between atoms: N_11  and  C_12 
REMARK    4  A    between atoms: C_12  and  C_13 
REMARK    5  A    between atoms: C_13  and  N_14 
REMARK    6  A    between atoms: N_14  and  C_17 
REMARK    7  A    between atoms: C_17  and  C_18 
REMARK    8  A    between atoms: C_30  and  C_31 
ROOT
HETATM    1  C   UNL     1      41.482 -15.277   1.689  1.00  0.00     0.073 A 
HETATM    2  C   UNL     1      41.610 -14.171   2.509  1.00  0.00     0.093 A 
HETATM    3  S   UNL     1      41.453 -12.697   1.667  1.00  0.00    -0.075 SA
HETATM    4  C   UNL     1      41.198 -13.493   0.195  1.00  0.00    -0.008 A 
HETATM    5  C   UNL     1      41.271 -14.865   0.314  1.00  0.00    -0.026 A 
HETATM    6  C   UNL     1      41.158 -15.766  -0.883  1.00  0.00     0.041 C 
HETATM    7  C   UNL     1      41.175 -14.995  -2.218  1.00  0.00     0.010 C 
HETATM    8  C   UNL     1      40.453 -13.615  -2.223  1.00  0.00    -0.002 C 
HETATM    9  C   UNL     1      41.019 -12.732  -1.080  1.00  0.00     0.052 C 
ENDROOT
BRANCH   2  10
HETATM   10  N   UNL     1      41.859 -13.937   3.843  1.00  0.00    -0.319 N 
HETATM   11  C   UNL     1      43.080 -13.608   4.375  1.00  0.00     0.248 C 
HETATM   12  O   UNL     1      44.179 -13.675   3.832  1.00  0.00    -0.271 OA
HETATM   13  H   UNL     1      41.066 -14.138   4.445  1.00  0.00     0.169 HD
BRANCH  11  14
HETATM   14  C   UNL     1      43.022 -13.157   5.830  1.00  0.00     0.335 C 
BRANCH  14  15
HETATM   15  N   UNL     1      43.623 -14.191   6.745  1.00  0.00    -0.063 N 
HETATM   16  H   UNL     1      43.068 -14.285   7.603  1.00  0.00     0.278 HD
HETATM   17  H   UNL     1      43.556 -15.098   6.250  1.00  0.00     0.278 HD
BRANCH  15  18
HETATM   18  C   UNL     1      45.062 -13.989   7.088  1.00  0.00     0.272 C 
BRANCH  18  19
HETATM   19  C   UNL     1      45.215 -12.889   8.090  1.00  0.00    -0.015 A 
HETATM   20  C   UNL     1      46.280 -11.998   8.022  1.00  0.00     0.125 A 
HETATM   21  N   UNL     1      46.512 -11.037   8.938  1.00  0.00    -0.273 NA
HETATM   22  C   UNL     1      45.639 -10.928   9.963  1.00  0.00     0.116 A 
HETATM   23  C   UNL     1      44.544 -11.757  10.120  1.00  0.00     0.020 A 
HETATM   24  C   UNL     1      44.331 -12.754   9.172  1.00  0.00     0.012 A 
ENDBRANCH  18  19
ENDBRANCH  15  18
ENDBRANCH  14  15
ENDBRANCH  11  14
ENDBRANCH   2  10
BRANCH   1  25
HETATM   25  C   UNL     1      41.629 -16.667   2.116  1.00  0.00     0.259 C 
HETATM   26  N   UNL     1      42.950 -16.989   2.372  1.00  0.00    -0.322 N 
HETATM   27  H   UNL     1      43.614 -16.390   1.899  1.00  0.00     0.169 HD
HETATM   28  O   UNL     1      40.662 -17.420   2.143  1.00  0.00    -0.267 OA
BRANCH  26  29
HETATM   29  C   UNL     1      43.406 -18.286   2.688  1.00  0.00     0.041 A 
HETATM   30  C   UNL     1      43.892 -18.667   3.948  1.00  0.00    -0.035 A 
HETATM   31  C   UNL     1      44.272 -20.009   4.151  1.00  0.00     0.015 A 
HETATM   32  C   UNL     1      44.089 -17.709   5.090  1.00  0.00     0.050 C 
HETATM   33  C   UNL     1      44.227 -20.948   3.113  1.00  0.00    -0.061 A 
HETATM   34  C   UNL     1      44.630 -22.375   3.344  1.00  0.00     0.048 C 
HETATM   35  C   UNL     1      43.795 -20.539   1.851  1.00  0.00     0.009 A 
HETATM   36  C   UNL     1      43.404 -19.216   1.638  1.00  0.00     0.030 A 
ENDBRANCH  26  29
ENDBRANCH   1  25
BRANCH   8  37
HETATM   37  C   UNL     1      38.881 -13.656  -2.366  1.00  0.00    -0.047 C 
HETATM   38  C   UNL     1      38.124 -13.786  -1.035  1.00  0.00     0.015 C 
HETATM   39  C   UNL     1      38.354 -12.389  -3.078  1.00  0.00     0.015 C 
HETATM   40  C   UNL     1      38.485 -14.861  -3.254  1.00  0.00     0.015 C 
ENDBRANCH   8  37
TORSDOF 8
ENDMDL
MODEL 2
REMARK VINA RESULT:      -9.5      1.924      2.756
REMARK  8 active torsions:
REMARK  status: ('A' for Active; 'I' for Inactive)
REMARK    1  A    between atoms: C_6  and  N_7 
REMARK       I    between atoms: N_7  and  C_8 
REMARK    2  A    between atoms: C_8  and  C_9 
REMARK    3  A    between atoms: C_10  and  N_11 
REMARK       I    between atoms: N_11  and  C_12 
REMARK    4  A    between atoms: C_12  and  C_13 
REMARK    5  A    between atoms: C_13  and  N_14 
REMARK    6  A    between atoms: N_14  and  C_17 
REMARK    7  A    between atoms: C_17  and  C_18 
REMARK    8  A    between atoms: C_30  and  C_31 
ROOT
HETATM    1  C   UNL     1      42.051 -15.208   4.011  1.00  0.00     0.073 A 
HETATM    2  C   UNL     1      42.385 -14.239   4.938  1.00  0.00     0.093 A 
HETATM    3  S   UNL     1      42.096 -12.655   4.378  1.00  0.00    -0.075 SA
HETATM    4  C   UNL     1      41.509 -13.220   2.893  1.00  0.00    -0.008 A 
HETATM    5  C   UNL     1      41.564 -14.594   2.790  1.00  0.00    -0.026 A 
HETATM    6  C   UNL     1      41.171 -15.304   1.525  1.00  0.00     0.041 C 
HETATM    7  C   UNL     1      40.927 -14.340   0.347  1.00  0.00     0.010 C 
HETATM    8  C   UNL     1      40.263 -12.977   0.702  1.00  0.00    -0.002 C 
HETATM    9  C   UNL     1      41.086 -12.276   1.814  1.00  0.00     0.052 C 
ENDROOT
BRANCH   2  10
HETATM   10  N   UNL     1      42.919 -14.208   6.207  1.00  0.00    -0.319 N 
HETATM   11  C   UNL     1      44.219 -13.891   6.511  1.00  0.00     0.248 C 
HETATM   12  O   UNL     1      45.169 -13.798   5.740  1.00  0.00    -0.271 OA
HETATM   13  H   UNL     1      42.286 -14.554   6.922  1.00  0.00     0.169 HD
BRANCH  11  14
HETATM   14  C   UNL     1      44.475 -13.687   8.000  1.00  0.00     0.335 C 
BRANCH  14  15
HETATM   15  N   UNL     1      43.976 -12.343   8.458  1.00  0.00    -0.063 N 
HETATM   16  H   UNL     1      43.689 -11.767   7.659  1.00  0.00     0.278 HD
HETATM   17  H   UNL     1      43.122 -12.518   9.016  1.00  0.00     0.278 HD
BRANCH  15  18
HETATM   18  C   UNL     1      44.911 -11.572   9.331  1.00  0.00     0.272 C 
BRANCH  18  19
HETATM   19  C   UNL     1      44.258 -11.238  10.636  1.00  0.00    -0.015 A 
HETATM   20  C   UNL     1      43.828 -12.239  11.499  1.00  0.00     0.125 A 
HETATM   21  N   UNL     1      43.166 -12.002  12.650  1.00  0.00    -0.273 NA
HETATM   22  C   UNL     1      42.935 -10.713  12.982  1.00  0.00     0.116 A 
HETATM   23  C   UNL     1      43.327  -9.644  12.198  1.00  0.00     0.020 A 
HETATM   24  C   UNL     1      43.994  -9.910  11.006  1.00  0.00     0.012 A 
ENDBRANCH  18  19
ENDBRANCH  15  18
ENDBRANCH  14  15
ENDBRANCH  11  14
ENDBRANCH   2  10
BRANCH   1  25
HETATM   25  C   UNL     1      42.244 -16.647   4.185  1.00  0.00     0.259 C 
HETATM   26  N   UNL     1      43.407 -17.086   3.579  1.00  0.00    -0.322 N 
HETATM   27  H   UNL     1      43.734 -16.481   2.837  1.00  0.00     0.169 HD
HETATM   28  O   UNL     1      41.394 -17.329   4.745  1.00  0.00    -0.267 OA
BRANCH  26  29
HETATM   29  C   UNL     1      43.792 -18.440   3.485  1.00  0.00     0.041 A 
HETATM   30  C   UNL     1      44.476 -19.138   4.493  1.00  0.00    -0.035 A 
HETATM   31  C   UNL     1      44.761 -20.505   4.297  1.00  0.00     0.015 A 
HETATM   32  C   UNL     1      44.980 -18.497   5.756  1.00  0.00     0.050 C 
HETATM   33  C   UNL     1      44.427 -21.160   3.105  1.00  0.00    -0.061 A 
HETATM   34  C   UNL     1      44.732 -22.616   2.911  1.00  0.00     0.048 C 
HETATM   35  C   UNL     1      43.798 -20.437   2.091  1.00  0.00     0.009 A 
HETATM   36  C   UNL     1      43.499 -19.086   2.275  1.00  0.00     0.030 A 
ENDBRANCH  26  29
ENDBRANCH   1  25
BRANCH   8  37
HETATM   37  C   UNL     1      38.695 -13.000   0.896  1.00  0.00    -0.047 C 
HETATM   38  C   UNL     1      38.121 -14.376   1.267  1.00  0.00     0.015 C 
HETATM   39  C   UNL     1      38.256 -12.002   1.992  1.00  0.00     0.015 C 
HETATM   40  C   UNL     1      38.016 -12.544  -0.418  1.00  0.00     0.015 C 
ENDBRANCH   8  37
TORSDOF 8
ENDMDL
MODEL 3
REMARK VINA RESULT:      -9.3      4.011      7.494
REMARK  8 active torsions:
REMARK  status: ('A' for Active; 'I' for Inactive)
REMARK    1  A    between atoms: C_6  and  N_7 
REMARK       I    between atoms: N_7  and  C_8 
REMARK    2  A    between atoms: C_8  and  C_9 
REMARK    3  A    between atoms: C_10  and  N_11 
REMARK       I    between atoms: N_11  and  C_12 
REMARK    4  A    between atoms: C_12  and  C_13 
REMARK    5  A    between atoms: C_13  and  N_14 
REMARK    6  A    between atoms: N_14  and  C_17 
REMARK    7  A    between atoms: C_17  and  C_18 
REMARK    8  A    between atoms: C_30  and  C_31 
ROOT
HETATM    1  C   UNL     1      42.951 -14.641   5.831  1.00  0.00     0.073 A 
HETATM    2  C   UNL     1      43.764 -14.827   6.934  1.00  0.00     0.093 A 
HETATM    3  S   UNL     1      44.109 -16.469   7.236  1.00  0.00    -0.075 SA
HETATM    4  C   UNL     1      43.195 -16.971   5.901  1.00  0.00    -0.008 A 
HETATM    5  C   UNL     1      42.592 -15.919   5.245  1.00  0.00    -0.026 A 
HETATM    6  C   UNL     1      41.667 -16.143   4.083  1.00  0.00     0.041 C 
HETATM    7  C   UNL     1      41.320 -17.629   3.870  1.00  0.00     0.010 C 
HETATM    8  C   UNL     1      42.464 -18.648   4.151  1.00  0.00    -0.002 C 
HETATM    9  C   UNL     1      43.019 -18.421   5.581  1.00  0.00     0.052 C 
ENDROOT
BRANCH   2  10
HETATM   10  N   UNL     1      44.362 -14.030   7.884  1.00  0.00    -0.319 N 
HETATM   11  C   UNL     1      45.432 -13.201   7.663  1.00  0.00     0.248 C 
HETATM   12  O   UNL     1      46.173 -13.176   6.685  1.00  0.00    -0.271 OA
HETATM   13  H   UNL     1      44.008 -14.184   8.824  1.00  0.00     0.169 HD
BRANCH  11  14
HETATM   14  C   UNL     1      45.728 -12.249   8.816  1.00  0.00     0.335 C 
BRANCH  14  15
HETATM   15  N   UNL     1      44.472 -11.894   9.565  1.00  0.00    -0.063 N 
HETATM   16  H   UNL     1      43.657 -11.914   8.941  1.00  0.00     0.278 HD
HETATM   17  H   UNL     1      44.324 -12.641  10.266  1.00  0.00     0.278 HD
BRANCH  15  18
HETATM   18  C   UNL     1      44.510 -10.601  10.312  1.00  0.00     0.272 C 
BRANCH  18  19
HETATM   19  C   UNL     1      43.524 -10.615  11.437  1.00  0.00    -0.015 A 
HETATM   20  C   UNL     1      42.291 -11.243  11.302  1.00  0.00     0.125 A 
HETATM   21  N   UNL     1      41.333 -11.223  12.251  1.00  0.00    -0.273 NA
HETATM   22  C   UNL     1      41.608 -10.573  13.403  1.00  0.00     0.116 A 
HETATM   23  C   UNL     1      42.805  -9.923  13.640  1.00  0.00     0.020 A 
HETATM   24  C   UNL     1      43.775  -9.940  12.642  1.00  0.00     0.012 A 
ENDBRANCH  18  19
ENDBRANCH  15  18
ENDBRANCH  14  15
ENDBRANCH  11  14
ENDBRANCH   2  10
BRANCH   1  25
HETATM   25  C   UNL     1      42.441 -13.352   5.365  1.00  0.00     0.259 C 
HETATM   26  N   UNL     1      41.372 -12.917   6.128  1.00  0.00    -0.322 N 
HETATM   27  H   UNL     1      40.887 -13.662   6.612  1.00  0.00     0.169 HD
HETATM   28  O   UNL     1      42.905 -12.820   4.364  1.00  0.00    -0.267 OA
BRANCH  26  29
HETATM   29  C   UNL     1      40.607 -11.767   5.842  1.00  0.00     0.041 A 
HETATM   30  C   UNL     1      40.788 -10.523   6.466  1.00  0.00    -0.035 A 
HETATM   31  C   UNL     1      39.990  -9.436   6.055  1.00  0.00     0.015 A 
HETATM   32  C   UNL     1      41.750 -10.291   7.598  1.00  0.00     0.050 C 
HETATM   33  C   UNL     1      38.990  -9.585   5.085  1.00  0.00    -0.061 A 
HETATM   34  C   UNL     1      38.151  -8.418   4.654  1.00  0.00     0.048 C 
HETATM   35  C   UNL     1      38.786 -10.842   4.516  1.00  0.00     0.009 A 
HETATM   36  C   UNL     1      39.576 -11.925   4.903  1.00  0.00     0.030 A 
ENDBRANCH  26  29
ENDBRANCH   1  25
BRANCH   8  37
HETATM   37  C   UNL     1      43.533 -18.823   3.001  1.00  0.00    -0.047 C 
HETATM   38  C   UNL     1      43.069 -19.703   1.830  1.00  0.00     0.015 C 
HETATM   39  C   UNL     1      43.950 -17.453   2.417  1.00  0.00     0.015 C 
HETATM   40  C   UNL     1      44.813 -19.461   3.593  1.00  0.00     0.015 C 
ENDBRANCH   8  37
TORSDOF 8
ENDMDL
MODEL 4
REMARK VINA RESULT:      -8.9      3.049      8.144
REMARK  8 active torsions:
REMARK  status: ('A' for Active; 'I' for Inactive)
REMARK    1  A    between atoms: C_6  and  N_7 
REMARK       I    between atoms: N_7  and  C_8 
REMARK    2  A    between atoms: C_8  and  C_9 
REMARK    3  A    between atoms: C_10  and  N_11 
REMARK       I    between atoms: N_11  and  C_12 
REMARK    4  A    between atoms: C_12  and  C_13 
REMARK    5  A    between atoms: C_13  and  N_14 
REMARK    6  A    between atoms: N_14  and  C_17 
REMARK    7  A    between atoms: C_17  and  C_18 
REMARK    8  A    between atoms: C_30  and  C_31 
ROOT
HETATM    1  C   UNL     1      41.454 -13.394   2.656  1.00  0.00     0.073 A 
HETATM    2  C   UNL     1      41.007 -12.765   1.509  1.00  0.00     0.093 A 
HETATM    3  S   UNL     1      39.777 -11.624   1.813  1.00  0.00    -0.075 SA
HETATM    4  C   UNL     1      39.818 -11.930   3.478  1.00  0.00    -0.008 A 
HETATM    5  C   UNL     1      40.721 -12.917   3.814  1.00  0.00    -0.026 A 
HETATM    6  C   UNL     1      40.861 -13.406   5.227  1.00  0.00     0.041 C 
HETATM    7  C   UNL     1      39.769 -12.855   6.164  1.00  0.00     0.010 C 
HETATM    8  C   UNL     1      39.313 -11.390   5.900  1.00  0.00    -0.002 C 
HETATM    9  C   UNL     1      38.879 -11.244   4.418  1.00  0.00     0.052 C 
ENDROOT
BRANCH   2  10
HETATM   10  N   UNL     1      41.277 -12.831   0.161  1.00  0.00    -0.319 N 
HETATM   11  C   UNL     1      42.291 -12.164  -0.477  1.00  0.00     0.248 C 
HETATM   12  O   UNL     1      42.982 -11.249  -0.038  1.00  0.00    -0.271 OA
HETATM   13  H   UNL     1      40.578 -13.345  -0.368  1.00  0.00     0.169 HD
BRANCH  11  14
HETATM   14  C   UNL     1      42.520 -12.612  -1.916  1.00  0.00     0.335 C 
BRANCH  14  15
HETATM   15  N   UNL     1      41.955 -13.987  -2.155  1.00  0.00    -0.063 N 
HETATM   16  H   UNL     1      42.628 -14.711  -1.879  1.00  0.00     0.278 HD
HETATM   17  H   UNL     1      41.141 -14.086  -1.523  1.00  0.00     0.278 HD
BRANCH  15  18
HETATM   18  C   UNL     1      41.462 -14.250  -3.540  1.00  0.00     0.272 C 
BRANCH  18  19
HETATM   19  C   UNL     1      39.990 -14.518  -3.532  1.00  0.00    -0.015 A 
HETATM   20  C   UNL     1      39.480 -15.736  -3.967  1.00  0.00     0.125 A 
HETATM   21  N   UNL     1      38.162 -16.007  -4.055  1.00  0.00    -0.273 NA
HETATM   22  C   UNL     1      37.299 -15.041  -3.673  1.00  0.00     0.116 A 
HETATM   23  C   UNL     1      37.702 -13.799  -3.219  1.00  0.00     0.020 A 
HETATM   24  C   UNL     1      39.067 -13.532  -3.151  1.00  0.00     0.012 A 
ENDBRANCH  18  19
ENDBRANCH  15  18
ENDBRANCH  14  15
ENDBRANCH  11  14
ENDBRANCH   2  10
BRANCH   1  25
HETATM   25  C   UNL     1      42.456 -14.457   2.701  1.00  0.00     0.259 C 
HETATM   26  N   UNL     1      41.879 -15.711   2.607  1.00  0.00    -0.322 N 
HETATM   27  H   UNL     1      40.907 -15.734   2.886  1.00  0.00     0.169 HD
HETATM   28  O   UNL     1      43.640 -14.195   2.882  1.00  0.00    -0.267 OA
BRANCH  26  29
HETATM   29  C   UNL     1      42.588 -16.924   2.738  1.00  0.00     0.041 A 
HETATM   30  C   UNL     1      42.713 -17.639   3.939  1.00  0.00    -0.035 A 
HETATM   31  C   UNL     1      43.408 -18.866   3.928  1.00  0.00     0.015 A 
HETATM   32  C   UNL     1      42.198 -17.144   5.262  1.00  0.00     0.050 C 
HETATM   33  C   UNL     1      44.017 -19.353   2.765  1.00  0.00    -0.061 A 
HETATM   34  C   UNL     1      44.749 -20.663   2.767  1.00  0.00     0.048 C 
HETATM   35  C   UNL     1      43.930 -18.602   1.593  1.00  0.00     0.009 A 
HETATM   36  C   UNL     1      43.236 -17.391   1.585  1.00  0.00     0.030 A 
ENDBRANCH  26  29
ENDBRANCH   1  25
BRANCH   8  37
HETATM   37  C   UNL     1      40.254 -10.258   6.472  1.00  0.00    -0.047 C 
HETATM   38  C   UNL     1      41.286  -9.721   5.468  1.00  0.00     0.015 C 
HETATM   39  C   UNL     1      39.428  -9.053   6.980  1.00  0.00     0.015 C 
HETATM   40  C   UNL     1      41.027 -10.812   7.693  1.00  0.00     0.015 C 
ENDBRANCH   8  37
TORSDOF 8
ENDMDL
MODEL 5
REMARK VINA RESULT:      -8.9      3.386      7.376
REMARK  8 active torsions:
REMARK  status: ('A' for Active; 'I' for Inactive)
REMARK    1  A    between atoms: C_6  and  N_7 
REMARK       I    between atoms: N_7  and  C_8 
REMARK    2  A    between atoms: C_8  and  C_9 
REMARK    3  A    between atoms: C_10  and  N_11 
REMARK       I    between atoms: N_11  and  C_12 
REMARK    4  A    between atoms: C_12  and  C_13 
REMARK    5  A    between atoms: C_13  and  N_14 
REMARK    6  A    between atoms: N_14  and  C_17 
REMARK    7  A    between atoms: C_17  and  C_18 
REMARK    8  A    between atoms: C_30  and  C_31 
ROOT
HETATM    1  C   UNL     1      43.108 -14.862   5.377  1.00  0.00     0.073 A 
HETATM    2  C   UNL     1      43.708 -15.068   6.605  1.00  0.00     0.093 A 
HETATM    3  S   UNL     1      43.848 -16.719   7.009  1.00  0.00    -0.075 SA
HETATM    4  C   UNL     1      43.124 -17.199   5.555  1.00  0.00    -0.008 A 
HETATM    5  C   UNL     1      42.735 -16.129   4.777  1.00  0.00    -0.026 A 
HETATM    6  C   UNL     1      41.998 -16.325   3.483  1.00  0.00     0.041 C 
HETATM    7  C   UNL     1      41.557 -17.785   3.259  1.00  0.00     0.010 C 
HETATM    8  C   UNL     1      42.541 -18.884   3.757  1.00  0.00    -0.002 C 
HETATM    9  C   UNL     1      42.871 -18.641   5.253  1.00  0.00     0.052 C 
ENDROOT
BRANCH   2  10
HETATM   10  N   UNL     1      44.211 -14.283   7.618  1.00  0.00    -0.319 N 
HETATM   11  C   UNL     1      45.262 -13.410   7.496  1.00  0.00     0.248 C 
HETATM   12  O   UNL     1      46.064 -13.324   6.571  1.00  0.00    -0.271 OA
HETATM   13  H   UNL     1      43.803 -14.482   8.527  1.00  0.00     0.169 HD
BRANCH  11  14
HETATM   14  C   UNL     1      45.445 -12.487   8.696  1.00  0.00     0.335 C 
BRANCH  14  15
HETATM   15  N   UNL     1      44.135 -12.231   9.391  1.00  0.00    -0.063 N 
HETATM   16  H   UNL     1      43.347 -12.534   8.807  1.00  0.00     0.278 HD
HETATM   17  H   UNL     1      44.124 -12.832  10.234  1.00  0.00     0.278 HD
BRANCH  15  18
HETATM   18  C   UNL     1      43.915 -10.829   9.856  1.00  0.00     0.272 C 
BRANCH  18  19
HETATM   19  C   UNL     1      42.453 -10.538   9.977  1.00  0.00    -0.015 A 
HETATM   20  C   UNL     1      41.694 -11.087  11.005  1.00  0.00     0.125 A 
HETATM   21  N   UNL     1      40.361 -10.924  11.121  1.00  0.00    -0.273 NA
HETATM   22  C   UNL     1      39.743 -10.162  10.193  1.00  0.00     0.116 A 
HETATM   23  C   UNL     1      40.405  -9.565   9.136  1.00  0.00     0.020 A 
HETATM   24  C   UNL     1      41.778  -9.760   9.024  1.00  0.00     0.012 A 
ENDBRANCH  18  19
ENDBRANCH  15  18
ENDBRANCH  14  15
ENDBRANCH  11  14
ENDBRANCH   2  10
BRANCH   1  25
HETATM   25  C   UNL     1      42.801 -13.557   4.794  1.00  0.00     0.259 C 
HETATM   26  N   UNL     1      41.652 -13.009   5.338  1.00  0.00    -0.322 N 
HETATM   27  H   UNL     1      41.027 -13.694   5.743  1.00  0.00     0.169 HD
HETATM   28  O   UNL     1      43.481 -13.103   3.882  1.00  0.00    -0.267 OA
BRANCH  26  29
HETATM   29  C   UNL     1      41.052 -11.815   4.888  1.00  0.00     0.041 A 
HETATM   30  C   UNL     1      40.124 -11.745   3.838  1.00  0.00    -0.035 A 
HETATM   31  C   UNL     1      39.558 -10.494   3.515  1.00  0.00     0.015 A 
HETATM   32  C   UNL     1      39.736 -12.922   2.988  1.00  0.00     0.050 C 
HETATM   33  C   UNL     1      39.942  -9.323   4.180  1.00  0.00    -0.061 A 
HETATM   34  C   UNL     1      39.328  -7.999   3.830  1.00  0.00     0.048 C 
HETATM   35  C   UNL     1      40.907  -9.402   5.184  1.00  0.00     0.009 A 
HETATM   36  C   UNL     1      41.468 -10.635   5.522  1.00  0.00     0.030 A 
ENDBRANCH  26  29
ENDBRANCH   1  25
BRANCH   8  37
HETATM   37  C   UNL     1      43.764 -19.199   2.809  1.00  0.00    -0.047 C 
HETATM   38  C   UNL     1      44.218 -18.015   1.941  1.00  0.00     0.015 C 
HETATM   39  C   UNL     1      44.990 -19.676   3.622  1.00  0.00     0.015 C 
HETATM   40  C   UNL     1      43.382 -20.361   1.859  1.00  0.00     0.015 C 
ENDBRANCH   8  37
TORSDOF 8
ENDMDL
MODEL 6
REMARK VINA RESULT:      -8.9      3.054      7.255
REMARK  8 active torsions:
REMARK  status: ('A' for Active; 'I' for Inactive)
REMARK    1  A    between atoms: C_6  and  N_7 
REMARK       I    between atoms: N_7  and  C_8 
REMARK    2  A    between atoms: C_8  and  C_9 
REMARK    3  A    between atoms: C_10  and  N_11 
REMARK       I    between atoms: N_11  and  C_12 
REMARK    4  A    between atoms: C_12  and  C_13 
REMARK    5  A    between atoms: C_13  and  N_14 
REMARK    6  A    between atoms: N_14  and  C_17 
REMARK    7  A    between atoms: C_17  and  C_18 
REMARK    8  A    between atoms: C_30  and  C_31 
ROOT
HETATM    1  C   UNL     1      41.486 -13.993   2.916  1.00  0.00     0.073 A 
HETATM    2  C   UNL     1      40.979 -13.589   1.695  1.00  0.00     0.093 A 
HETATM    3  S   UNL     1      39.706 -12.465   1.843  1.00  0.00    -0.075 SA
HETATM    4  C   UNL     1      39.808 -12.478   3.534  1.00  0.00    -0.008 A 
HETATM    5  C   UNL     1      40.765 -13.355   4.000  1.00  0.00    -0.026 A 
HETATM    6  C   UNL     1      40.967 -13.588   5.470  1.00  0.00     0.041 C 
HETATM    7  C   UNL     1      39.877 -12.929   6.338  1.00  0.00     0.010 C 
HETATM    8  C   UNL     1      39.346 -11.551   5.845  1.00  0.00    -0.002 C 
HETATM    9  C   UNL     1      38.865 -11.680   4.376  1.00  0.00     0.052 C 
ENDROOT
BRANCH   2  10
HETATM   10  N   UNL     1      41.213 -13.875   0.369  1.00  0.00    -0.319 N 
HETATM   11  C   UNL     1      40.978 -15.084  -0.235  1.00  0.00     0.248 C 
HETATM   12  O   UNL     1      40.737 -16.159   0.305  1.00  0.00    -0.271 OA
HETATM   13  H   UNL     1      41.693 -13.129  -0.128  1.00  0.00     0.169 HD
BRANCH  11  14
HETATM   14  C   UNL     1      41.085 -15.049  -1.755  1.00  0.00     0.335 C 
BRANCH  14  15
HETATM   15  N   UNL     1      42.211 -14.157  -2.202  1.00  0.00    -0.063 N 
HETATM   16  H   UNL     1      42.719 -13.778  -1.395  1.00  0.00     0.278 HD
HETATM   17  H   UNL     1      42.881 -14.758  -2.714  1.00  0.00     0.278 HD
BRANCH  15  18
HETATM   18  C   UNL     1      41.828 -13.049  -3.128  1.00  0.00     0.272 C 
BRANCH  18  19
HETATM   19  C   UNL     1      42.427 -11.755  -2.676  1.00  0.00    -0.015 A 
HETATM   20  C   UNL     1      43.097 -11.660  -1.462  1.00  0.00     0.125 A 
HETATM   21  N   UNL     1      43.591 -10.506  -0.967  1.00  0.00    -0.273 NA
HETATM   22  C   UNL     1      43.439  -9.392  -1.715  1.00  0.00     0.116 A 
HETATM   23  C   UNL     1      42.796  -9.379  -2.939  1.00  0.00     0.020 A 
HETATM   24  C   UNL     1      42.279 -10.577  -3.424  1.00  0.00     0.012 A 
ENDBRANCH  18  19
ENDBRANCH  15  18
ENDBRANCH  14  15
ENDBRANCH  11  14
ENDBRANCH   2  10
BRANCH   1  25
HETATM   25  C   UNL     1      42.538 -14.991   3.105  1.00  0.00     0.259 C 
HETATM   26  N   UNL     1      42.033 -16.279   3.084  1.00  0.00    -0.322 N 
HETATM   27  H   UNL     1      41.049 -16.335   3.309  1.00  0.00     0.169 HD
HETATM   28  O   UNL     1      43.693 -14.649   3.329  1.00  0.00    -0.267 OA
BRANCH  26  29
HETATM   29  C   UNL     1      42.795 -17.435   3.355  1.00  0.00     0.041 A 
HETATM   30  C   UNL     1      43.589 -18.098   2.406  1.00  0.00    -0.035 A 
HETATM   31  C   UNL     1      44.342 -19.217   2.816  1.00  0.00     0.015 A 
HETATM   32  C   UNL     1      43.642 -17.719   0.953  1.00  0.00     0.050 C 
HETATM   33  C   UNL     1      44.270 -19.710   4.125  1.00  0.00    -0.061 A 
HETATM   34  C   UNL     1      45.081 -20.900   4.548  1.00  0.00     0.048 C 
HETATM   35  C   UNL     1      43.432 -19.074   5.040  1.00  0.00     0.009 A 
HETATM   36  C   UNL     1      42.689 -17.957   4.653  1.00  0.00     0.030 A 
ENDBRANCH  26  29
ENDBRANCH   1  25
BRANCH   8  37
HETATM   37  C   UNL     1      40.249 -10.300   6.182  1.00  0.00    -0.047 C 
HETATM   38  C   UNL     1      41.171  -9.855   5.037  1.00  0.00     0.015 C 
HETATM   39  C   UNL     1      39.385  -9.083   6.583  1.00  0.00     0.015 C 
HETATM   40  C   UNL     1      41.141 -10.634   7.403  1.00  0.00     0.015 C 
ENDBRANCH   8  37
TORSDOF 8
ENDMDL
MODEL 7
REMARK VINA RESULT:      -8.6      2.219      7.310
REMARK  8 active torsions:
REMARK  status: ('A' for Active; 'I' for Inactive)
REMARK    1  A    between atoms: C_6  and  N_7 
REMARK       I    between atoms: N_7  and  C_8 
REMARK    2  A    between atoms: C_8  and  C_9 
REMARK    3  A    between atoms: C_10  and  N_11 
REMARK       I    between atoms: N_11  and  C_12 
REMARK    4  A    between atoms: C_12  and  C_13 
REMARK    5  A    between atoms: C_13  and  N_14 
REMARK    6  A    between atoms: N_14  and  C_17 
REMARK    7  A    between atoms: C_17  and  C_18 
REMARK    8  A    between atoms: C_30  and  C_31 
ROOT
HETATM    1  C   UNL     1      41.747 -14.591   3.947  1.00  0.00     0.073 A 
HETATM    2  C   UNL     1      41.759 -15.973   3.904  1.00  0.00     0.093 A 
HETATM    3  S   UNL     1      40.489 -16.620   2.969  1.00  0.00    -0.075 SA
HETATM    4  C   UNL     1      39.900 -15.078   2.588  1.00  0.00    -0.008 A 
HETATM    5  C   UNL     1      40.623 -14.071   3.192  1.00  0.00    -0.026 A 
HETATM    6  C   UNL     1      40.225 -12.629   3.058  1.00  0.00     0.041 C 
HETATM    7  C   UNL     1      38.851 -12.446   2.384  1.00  0.00     0.010 C 
HETATM    8  C   UNL     1      38.507 -13.448   1.243  1.00  0.00    -0.002 C 
HETATM    9  C   UNL     1      38.666 -14.899   1.765  1.00  0.00     0.052 C 
ENDROOT
BRANCH   2  10
HETATM   10  N   UNL     1      42.521 -16.985   4.443  1.00  0.00    -0.319 N 
HETATM   11  C   UNL     1      42.491 -17.386   5.755  1.00  0.00     0.248 C 
HETATM   12  O   UNL     1      41.976 -16.807   6.706  1.00  0.00    -0.271 OA
HETATM   13  H   UNL     1      43.213 -17.359   3.800  1.00  0.00     0.169 HD
BRANCH  11  14
HETATM   14  C   UNL     1      43.241 -18.686   6.023  1.00  0.00     0.335 C 
BRANCH  14  15
HETATM   15  N   UNL     1      44.623 -18.651   5.427  1.00  0.00    -0.063 N 
HETATM   16  H   UNL     1      44.633 -18.100   4.561  1.00  0.00     0.278 HD
HETATM   17  H   UNL     1      45.224 -18.146   6.103  1.00  0.00     0.278 HD
BRANCH  15  18
HETATM   18  C   UNL     1      45.258 -19.982   5.193  1.00  0.00     0.272 C 
BRANCH  18  19
HETATM   19  C   UNL     1      44.729 -20.604   3.939  1.00  0.00    -0.015 A 
HETATM   20  C   UNL     1      44.730 -21.984   3.767  1.00  0.00     0.125 A 
HETATM   21  N   UNL     1      44.338 -22.596   2.631  1.00  0.00    -0.273 NA
HETATM   22  C   UNL     1      43.900 -21.815   1.620  1.00  0.00     0.116 A 
HETATM   23  C   UNL     1      43.852 -20.435   1.692  1.00  0.00     0.020 A 
HETATM   24  C   UNL     1      44.276 -19.821   2.866  1.00  0.00     0.012 A 
ENDBRANCH  18  19
ENDBRANCH  15  18
ENDBRANCH  14  15
ENDBRANCH  11  14
ENDBRANCH   2  10
BRANCH   1  25
HETATM   25  C   UNL     1      42.674 -13.762   4.715  1.00  0.00     0.259 C 
HETATM   26  N   UNL     1      42.420 -13.833   6.074  1.00  0.00    -0.322 N 
HETATM   27  H   UNL     1      41.475 -14.114   6.298  1.00  0.00     0.169 HD
HETATM   28  O   UNL     1      43.499 -13.054   4.149  1.00  0.00    -0.267 OA
BRANCH  26  29
HETATM   29  C   UNL     1      43.078 -13.051   7.047  1.00  0.00     0.041 A 
HETATM   30  C   UNL     1      42.570 -11.853   7.573  1.00  0.00    -0.035 A 
HETATM   31  C   UNL     1      43.303 -11.190   8.579  1.00  0.00     0.015 A 
HETATM   32  C   UNL     1      41.309 -11.197   7.084  1.00  0.00     0.050 C 
HETATM   33  C   UNL     1      44.543 -11.669   9.019  1.00  0.00    -0.061 A 
HETATM   34  C   UNL     1      45.310 -10.955  10.093  1.00  0.00     0.048 C 
HETATM   35  C   UNL     1      45.060 -12.830   8.445  1.00  0.00     0.009 A 
HETATM   36  C   UNL     1      44.341 -13.505   7.457  1.00  0.00     0.030 A 
ENDBRANCH  26  29
ENDBRANCH   1  25
BRANCH   8  37
HETATM   37  C   UNL     1      39.144 -13.134  -0.169  1.00  0.00    -0.047 C 
HETATM   38  C   UNL     1      40.514 -13.788  -0.407  1.00  0.00     0.015 C 
HETATM   39  C   UNL     1      38.208 -13.586  -1.314  1.00  0.00     0.015 C 
HETATM   40  C   UNL     1      39.319 -11.603  -0.316  1.00  0.00     0.015 C 
ENDBRANCH   8  37
TORSDOF 8
ENDMDL
MODEL 8
REMARK VINA RESULT:      -8.4      2.593      6.633
REMARK  8 active torsions:
REMARK  status: ('A' for Active; 'I' for Inactive)
REMARK    1  A    between atoms: C_6  and  N_7 
REMARK       I    between atoms: N_7  and  C_8 
REMARK    2  A    between atoms: C_8  and  C_9 
REMARK    3  A    between atoms: C_10  and  N_11 
REMARK       I    between atoms: N_11  and  C_12 
REMARK    4  A    between atoms: C_12  and  C_13 
REMARK    5  A    between atoms: C_13  and  N_14 
REMARK    6  A    between atoms: N_14  and  C_17 
REMARK    7  A    between atoms: C_17  and  C_18 
REMARK    8  A    between atoms: C_30  and  C_31 
ROOT
HETATM    1  C   UNL     1      41.119 -13.750   2.931  1.00  0.00     0.073 A 
HETATM    2  C   UNL     1      41.152 -13.442   4.278  1.00  0.00     0.093 A 
HETATM    3  S   UNL     1      41.300 -14.821   5.271  1.00  0.00    -0.075 SA
HETATM    4  C   UNL     1      41.336 -15.857   3.932  1.00  0.00    -0.008 A 
HETATM    5  C   UNL     1      41.196 -15.185   2.737  1.00  0.00    -0.026 A 
HETATM    6  C   UNL     1      41.117 -15.918   1.427  1.00  0.00     0.041 C 
HETATM    7  C   UNL     1      40.993 -17.444   1.601  1.00  0.00     0.010 C 
HETATM    8  C   UNL     1      41.791 -18.068   2.784  1.00  0.00    -0.002 C 
HETATM    9  C   UNL     1      41.413 -17.341   4.101  1.00  0.00     0.052 C 
ENDROOT
BRANCH   2  10
HETATM   10  N   UNL     1      41.071 -12.304   5.048  1.00  0.00    -0.319 N 
HETATM   11  C   UNL     1      39.961 -11.893   5.741  1.00  0.00     0.248 C 
HETATM   12  O   UNL     1      38.813 -12.314   5.637  1.00  0.00    -0.271 OA
HETATM   13  H   UNL     1      41.892 -11.708   4.978  1.00  0.00     0.169 HD
BRANCH  11  14
HETATM   14  C   UNL     1      40.223 -10.744   6.707  1.00  0.00     0.335 C 
BRANCH  14  15
HETATM   15  N   UNL     1      41.013 -11.207   7.902  1.00  0.00    -0.063 N 
HETATM   16  H   UNL     1      40.397 -11.370   8.706  1.00  0.00     0.278 HD
HETATM   17  H   UNL     1      41.418 -12.126   7.651  1.00  0.00     0.278 HD
BRANCH  15  18
HETATM   18  C   UNL     1      42.151 -10.327   8.303  1.00  0.00     0.272 C 
BRANCH  18  19
HETATM   19  C   UNL     1      43.003 -11.004   9.331  1.00  0.00    -0.015 A 
HETATM   20  C   UNL     1      44.062 -11.823   8.958  1.00  0.00     0.125 A 
HETATM   21  N   UNL     1      44.815 -12.518   9.834  1.00  0.00    -0.273 NA
HETATM   22  C   UNL     1      44.528 -12.385  11.147  1.00  0.00     0.116 A 
HETATM   23  C   UNL     1      43.501 -11.590  11.623  1.00  0.00     0.020 A 
HETATM   24  C   UNL     1      42.724 -10.894  10.701  1.00  0.00     0.012 A 
ENDBRANCH  18  19
ENDBRANCH  15  18
ENDBRANCH  14  15
ENDBRANCH  11  14
ENDBRANCH   2  10
BRANCH   1  25
HETATM   25  C   UNL     1      40.939 -12.784   1.848  1.00  0.00     0.259 C 
HETATM   26  N   UNL     1      41.863 -12.971   0.835  1.00  0.00    -0.322 N 
HETATM   27  H   UNL     1      42.702 -13.453   1.132  1.00  0.00     0.169 HD
HETATM   28  O   UNL     1      40.100 -11.895   1.934  1.00  0.00    -0.267 OA
BRANCH  26  29
HETATM   29  C   UNL     1      42.004 -12.118  -0.280  1.00  0.00     0.041 A 
HETATM   30  C   UNL     1      41.433 -12.364  -1.539  1.00  0.00    -0.035 A 
HETATM   31  C   UNL     1      41.607 -11.408  -2.560  1.00  0.00     0.015 A 
HETATM   32  C   UNL     1      40.690 -13.624  -1.885  1.00  0.00     0.050 C 
HETATM   33  C   UNL     1      42.378 -10.256  -2.362  1.00  0.00    -0.061 A 
HETATM   34  C   UNL     1      42.551  -9.244  -3.457  1.00  0.00     0.048 C 
HETATM   35  C   UNL     1      42.985 -10.055  -1.123  1.00  0.00     0.009 A 
HETATM   36  C   UNL     1      42.812 -10.987  -0.097  1.00  0.00     0.030 A 
ENDBRANCH  26  29
ENDBRANCH   1  25
BRANCH   8  37
HETATM   37  C   UNL     1      43.331 -18.308   2.530  1.00  0.00    -0.047 C 
HETATM   38  C   UNL     1      43.993 -17.271   1.610  1.00  0.00     0.015 C 
HETATM   39  C   UNL     1      44.119 -18.319   3.861  1.00  0.00     0.015 C 
HETATM   40  C   UNL     1      43.527 -19.703   1.887  1.00  0.00     0.015 C 
ENDBRANCH   8  37
TORSDOF 8
ENDMDL
MODEL 9
REMARK VINA RESULT:      -8.4      1.826      2.645
REMARK  8 active torsions:
REMARK  status: ('A' for Active; 'I' for Inactive)
REMARK    1  A    between atoms: C_6  and  N_7 
REMARK       I    between atoms: N_7  and  C_8 
REMARK    2  A    between atoms: C_8  and  C_9 
REMARK    3  A    between atoms: C_10  and  N_11 
REMARK       I    between atoms: N_11  and  C_12 
REMARK    4  A    between atoms: C_12  and  C_13 
REMARK    5  A    between atoms: C_13  and  N_14 
REMARK    6  A    between atoms: N_14  and  C_17 
REMARK    7  A    between atoms: C_17  and  C_18 
REMARK    8  A    between atoms: C_30  and  C_31 
ROOT
HETATM    1  C   UNL     1      41.451 -13.484   2.203  1.00  0.00     0.073 A 
HETATM    2  C   UNL     1      40.742 -12.670   3.067  1.00  0.00     0.093 A 
HETATM    3  S   UNL     1      39.737 -11.557   2.257  1.00  0.00    -0.075 SA
HETATM    4  C   UNL     1      40.211 -12.139   0.738  1.00  0.00    -0.008 A 
HETATM    5  C   UNL     1      41.154 -13.140   0.825  1.00  0.00    -0.026 A 
HETATM    6  C   UNL     1      41.776 -13.743  -0.402  1.00  0.00     0.041 C 
HETATM    7  C   UNL     1      41.411 -12.985  -1.694  1.00  0.00     0.010 C 
HETATM    8  C   UNL     1      39.965 -12.411  -1.767  1.00  0.00    -0.002 C 
HETATM    9  C   UNL     1      39.699 -11.522  -0.524  1.00  0.00     0.052 C 
ENDROOT
BRANCH   2  10
HETATM   10  N   UNL     1      40.646 -12.499   4.429  1.00  0.00    -0.319 N 
HETATM   11  C   UNL     1      40.975 -11.353   5.108  1.00  0.00     0.248 C 
HETATM   12  O   UNL     1      41.599 -10.383   4.688  1.00  0.00    -0.271 OA
HETATM   13  H   UNL     1      40.407 -13.350   4.930  1.00  0.00     0.169 HD
BRANCH  11  14
HETATM   14  C   UNL     1      40.535 -11.349   6.568  1.00  0.00     0.335 C 
BRANCH  14  15
HETATM   15  N   UNL     1      41.686 -11.664   7.485  1.00  0.00    -0.063 N 
HETATM   16  H   UNL     1      41.507 -12.526   8.012  1.00  0.00     0.278 HD
HETATM   17  H   UNL     1      42.504 -11.856   6.879  1.00  0.00     0.278 HD
BRANCH  15  18
HETATM   18  C   UNL     1      42.086 -10.569   8.418  1.00  0.00     0.272 C 
BRANCH  18  19
HETATM   19  C   UNL     1      43.271 -10.981   9.234  1.00  0.00    -0.015 A 
HETATM   20  C   UNL     1      44.115 -12.002   8.810  1.00  0.00     0.125 A 
HETATM   21  N   UNL     1      45.151 -12.467   9.537  1.00  0.00    -0.273 NA
HETATM   22  C   UNL     1      45.386 -11.884  10.733  1.00  0.00     0.116 A 
HETATM   23  C   UNL     1      44.612 -10.858  11.243  1.00  0.00     0.020 A 
HETATM   24  C   UNL     1      43.537 -10.403  10.485  1.00  0.00     0.012 A 
ENDBRANCH  18  19
ENDBRANCH  15  18
ENDBRANCH  14  15
ENDBRANCH  11  14
ENDBRANCH   2  10
BRANCH   1  25
HETATM   25  C   UNL     1      42.433 -14.490   2.604  1.00  0.00     0.259 C 
HETATM   26  N   UNL     1      41.867 -15.750   2.699  1.00  0.00    -0.322 N 
HETATM   27  H   UNL     1      40.866 -15.737   2.845  1.00  0.00     0.169 HD
HETATM   28  O   UNL     1      43.582 -14.168   2.882  1.00  0.00    -0.267 OA
BRANCH  26  29
HETATM   29  C   UNL     1      42.546 -16.891   3.176  1.00  0.00     0.041 A 
HETATM   30  C   UNL     1      43.398 -17.686   2.395  1.00  0.00    -0.035 A 
HETATM   31  C   UNL     1      44.056 -18.775   3.003  1.00  0.00     0.015 A 
HETATM   32  C   UNL     1      43.610 -17.482   0.921  1.00  0.00     0.050 C 
HETATM   33  C   UNL     1      43.834 -19.109   4.345  1.00  0.00    -0.061 A 
HETATM   34  C   UNL     1      44.545 -20.267   4.981  1.00  0.00     0.048 C 
HETATM   35  C   UNL     1      42.941 -18.342   5.092  1.00  0.00     0.009 A 
HETATM   36  C   UNL     1      42.290 -17.253   4.507  1.00  0.00     0.030 A 
ENDBRANCH  26  29
ENDBRANCH   1  25
BRANCH   8  37
HETATM   37  C   UNL     1      38.830 -13.439  -2.152  1.00  0.00    -0.047 C 
HETATM   38  C   UNL     1      39.332 -14.698  -2.877  1.00  0.00     0.015 C 
HETATM   39  C   UNL     1      38.052 -13.904  -0.899  1.00  0.00     0.015 C 
HETATM   40  C   UNL     1      37.805 -12.739  -3.077  1.00  0.00     0.015 C 
ENDBRANCH   8  37
TORSDOF 8
ENDMDL
MODEL 10
REMARK VINA RESULT:      -8.2      2.126      5.892
REMARK  8 active torsions:
REMARK  status: ('A' for Active; 'I' for Inactive)
REMARK    1  A    between atoms: C_6  and  N_7 
REMARK       I    between atoms: N_7  and  C_8 
REMARK    2  A    between atoms: C_8  and  C_9 
REMARK    3  A    between atoms: C_10  and  N_11 
REMARK       I    between atoms: N_11  and  C_12 
REMARK    4  A    between atoms: C_12  and  C_13 
REMARK    5  A    between atoms: C_13  and  N_14 
REMARK    6  A    between atoms: N_14  and  C_17 
REMARK    7  A    between atoms: C_17  and  C_18 
REMARK    8  A    between atoms: C_30  and  C_31 
ROOT
HETATM    1  C   UNL     1      41.614 -14.778   2.943  1.00  0.00     0.073 A 
HETATM    2  C   UNL     1      41.559 -16.096   2.529  1.00  0.00     0.093 A 
HETATM    3  S   UNL     1      40.153 -16.453   1.632  1.00  0.00    -0.075 SA
HETATM    4  C   UNL     1      39.591 -14.861   1.763  1.00  0.00    -0.008 A 
HETATM    5  C   UNL     1      40.428 -14.062   2.513  1.00  0.00    -0.026 A 
HETATM    6  C   UNL     1      40.080 -12.635   2.828  1.00  0.00     0.041 C 
HETATM    7  C   UNL     1      38.641 -12.264   2.418  1.00  0.00     0.010 C 
HETATM    8  C   UNL     1      38.112 -12.913   1.105  1.00  0.00    -0.002 C 
HETATM    9  C   UNL     1      38.271 -14.453   1.191  1.00  0.00     0.052 C 
ENDROOT
BRANCH   2  10
HETATM   10  N   UNL     1      42.337 -17.223   2.668  1.00  0.00    -0.319 N 
HETATM   11  C   UNL     1      43.227 -17.691   1.736  1.00  0.00     0.248 C 
HETATM   12  O   UNL     1      43.337 -17.347   0.562  1.00  0.00    -0.271 OA
HETATM   13  H   UNL     1      42.120 -17.766   3.500  1.00  0.00     0.169 HD
BRANCH  11  14
HETATM   14  C   UNL     1      44.135 -18.804   2.248  1.00  0.00     0.335 C 
BRANCH  14  15
HETATM   15  N   UNL     1      43.620 -19.374   3.542  1.00  0.00    -0.063 N 
HETATM   16  H   UNL     1      42.734 -18.931   3.810  1.00  0.00     0.278 HD
HETATM   17  H   UNL     1      43.407 -20.372   3.362  1.00  0.00     0.278 HD
BRANCH  15  18
HETATM   18  C   UNL     1      44.576 -19.336   4.689  1.00  0.00     0.272 C 
BRANCH  18  19
HETATM   19  C   UNL     1      43.966 -18.628   5.858  1.00  0.00    -0.015 A 
HETATM   20  C   UNL     1      42.789 -17.901   5.722  1.00  0.00     0.125 A 
HETATM   21  N   UNL     1      42.235 -17.181   6.718  1.00  0.00    -0.273 NA
HETATM   22  C   UNL     1      42.855 -17.195   7.918  1.00  0.00     0.116 A 
HETATM   23  C   UNL     1      44.025 -17.891   8.161  1.00  0.00     0.020 A 
HETATM   24  C   UNL     1      44.591 -18.614   7.115  1.00  0.00     0.012 A 
ENDBRANCH  18  19
ENDBRANCH  15  18
ENDBRANCH  14  15
ENDBRANCH  11  14
ENDBRANCH   2  10
BRANCH   1  25
HETATM   25  C   UNL     1      42.666 -14.197   3.776  1.00  0.00     0.259 C 
HETATM   26  N   UNL     1      42.338 -14.238   5.120  1.00  0.00    -0.322 N 
HETATM   27  H   UNL     1      41.343 -14.302   5.295  1.00  0.00     0.169 HD
HETATM   28  O   UNL     1      43.655 -13.684   3.268  1.00  0.00    -0.267 OA
BRANCH  26  29
HETATM   29  C   UNL     1      43.108 -13.648   6.144  1.00  0.00     0.041 A 
HETATM   30  C   UNL     1      42.739 -12.485   6.838  1.00  0.00    -0.035 A 
HETATM   31  C   UNL     1      43.573 -12.022   7.876  1.00  0.00     0.015 A 
HETATM   32  C   UNL     1      41.528 -11.661   6.500  1.00  0.00     0.050 C 
HETATM   33  C   UNL     1      44.779 -12.662   8.188  1.00  0.00    -0.061 A 
HETATM   34  C   UNL     1      45.655 -12.161   9.299  1.00  0.00     0.048 C 
HETATM   35  C   UNL     1      45.158 -13.784   7.451  1.00  0.00     0.009 A 
HETATM   36  C   UNL     1      44.337 -14.261   6.428  1.00  0.00     0.030 A 
ENDBRANCH  26  29
ENDBRANCH   1  25
BRANCH   8  37
HETATM   37  C   UNL     1      38.579 -12.232  -0.241  1.00  0.00    -0.047 C 
HETATM   38  C   UNL     1      39.989 -12.634  -0.702  1.00  0.00     0.015 C 
HETATM   39  C   UNL     1      37.603 -12.556  -1.396  1.00  0.00     0.015 C 
HETATM   40  C   UNL     1      38.562 -10.694  -0.063  1.00  0.00     0.015 C 
ENDBRANCH   8  37
TORSDOF 8
ENDMDL
