MODEL 1
REMARK VINA RESULT:      -9.2      0.000      0.000
REMARK  6 active torsions:
REMARK  status: ('A' for Active; 'I' for Inactive)
REMARK    1  A    between atoms: C_4  and  C_5 
REMARK    2  A    between atoms: C_5  and  C_6 
REMARK    3  A    between atoms: C_6  and  N_7 
REMARK    4  A    between atoms: C_16  and  C_17 
REMARK    5  A    between atoms: C_24  and  C_25 
REMARK    6  A    between atoms: C_24  and  C_29 
ROOT
HETATM    1  N   UNL     1      41.849 -16.882   1.985  1.00  0.00    -0.284 N 
HETATM    2  C   UNL     1      41.436 -16.170   0.860  1.00  0.00     0.331 A 
HETATM    3  O   UNL     1      41.346 -16.651  -0.263  1.00  0.00    -0.246 OA
HETATM    4  N   UNL     1      41.125 -14.862   1.069  1.00  0.00    -0.275 N 
HETATM    5  C   UNL     1      41.194 -14.215   2.252  1.00  0.00     0.262 A 
HETATM    6  O   UNL     1      40.927 -13.032   2.379  1.00  0.00    -0.267 OA
HETATM    7  C   UNL     1      41.627 -14.995   3.416  1.00  0.00     0.100 A 
HETATM    8  C   UNL     1      41.959 -16.281   3.227  1.00  0.00     0.128 A 
HETATM    9  N   UNL     1      42.413 -17.012   4.296  1.00  0.00    -0.326 N 
HETATM   10  C   UNL     1      42.553 -16.511   5.504  1.00  0.00     0.138 A 
HETATM   11  N   UNL     1      42.247 -15.268   5.782  1.00  0.00    -0.345 N 
HETATM   12  H   UNL     1      42.385 -14.923   6.733  1.00  0.00     0.163 HD
HETATM   13  C   UNL     1      41.656 -14.292   4.755  1.00  0.00     0.264 A 
HETATM   14  H   UNL     1      40.832 -14.336   0.253  1.00  0.00     0.173 HD
HETATM   15  H   UNL     1      42.694 -17.984   4.201  1.00  0.00     0.169 HD
ENDROOT
BRANCH   1  16
HETATM   16  C   UNL     1      42.156 -18.299   1.744  1.00  0.00     0.140 C 
BRANCH  16  17
HETATM   17  C   UNL     1      43.667 -18.568   1.698  1.00  0.00     0.059 C 
BRANCH  17  18
HETATM   18  C   UNL     1      44.053 -19.853   2.386  1.00  0.00    -0.057 A 
HETATM   19  C   UNL     1      44.531 -19.840   3.706  1.00  0.00     0.007 A 
HETATM   20  C   UNL     1      44.871 -21.029   4.351  1.00  0.00     0.001 A 
HETATM   21  C   UNL     1      44.721 -22.247   3.693  1.00  0.00     0.000 A 
HETATM   22  C   UNL     1      44.228 -22.276   2.391  1.00  0.00     0.001 A 
HETATM   23  C   UNL     1      43.894 -21.087   1.739  1.00  0.00     0.007 A 
ENDBRANCH  17  18
ENDBRANCH  16  17
ENDBRANCH   1  16
BRANCH  13  24
HETATM   24  C   UNL     1      40.263 -13.908   5.266  1.00  0.00     0.426 C 
HETATM   25  F   UNL     1      39.355 -14.789   4.764  1.00  0.00    -0.168 F 
HETATM   26  F   UNL     1      40.213 -14.045   6.614  1.00  0.00    -0.168 F 
HETATM   27  F   UNL     1      39.843 -12.678   4.954  1.00  0.00    -0.168 F 
ENDBRANCH  13  24
BRANCH  13  28
HETATM   28  C   UNL     1      42.504 -13.016   4.823  1.00  0.00     0.426 C 
HETATM   29  F   UNL     1      43.629 -13.178   4.081  1.00  0.00    -0.168 F 
HETATM   30  F   UNL     1      41.907 -11.882   4.448  1.00  0.00    -0.168 F 
HETATM   31  F   UNL     1      42.928 -12.844   6.106  1.00  0.00    -0.168 F 
ENDBRANCH  13  28
BRANCH  10  32
HETATM   32  C   UNL     1      43.068 -17.402   6.524  1.00  0.00     0.118 A 
HETATM   33  O   UNL     1      43.078 -18.763   6.365  1.00  0.00    -0.319 OA
HETATM   34  C   UNL     1      43.607 -19.302   7.492  1.00  0.00     0.142 A 
HETATM   35  C   UNL     1      43.942 -18.311   8.382  1.00  0.00     0.027 A 
HETATM   36  C   UNL     1      43.597 -17.083   7.761  1.00  0.00     0.043 A 
ENDBRANCH  10  32
TORSDOF 6
ENDMDL
MODEL 2
REMARK VINA RESULT:      -8.7      3.508      6.390
REMARK  6 active torsions:
REMARK  status: ('A' for Active; 'I' for Inactive)
REMARK    1  A    between atoms: C_4  and  C_5 
REMARK    2  A    between atoms: C_5  and  C_6 
REMARK    3  A    between atoms: C_6  and  N_7 
REMARK    4  A    between atoms: C_16  and  C_17 
REMARK    5  A    between atoms: C_24  and  C_25 
REMARK    6  A    between atoms: C_24  and  C_29 
ROOT
HETATM    1  N   UNL     1      43.197 -14.724   5.119  1.00  0.00    -0.284 N 
HETATM    2  C   UNL     1      42.921 -13.563   4.399  1.00  0.00     0.331 A 
HETATM    3  O   UNL     1      42.918 -12.438   4.885  1.00  0.00    -0.246 OA
HETATM    4  N   UNL     1      42.640 -13.735   3.079  1.00  0.00    -0.275 N 
HETATM    5  C   UNL     1      42.600 -14.920   2.432  1.00  0.00     0.262 A 
HETATM    6  O   UNL     1      42.318 -15.021   1.250  1.00  0.00    -0.267 OA
HETATM    7  C   UNL     1      42.901 -16.122   3.216  1.00  0.00     0.100 A 
HETATM    8  C   UNL     1      43.159 -15.974   4.524  1.00  0.00     0.128 A 
HETATM    9  N   UNL     1      43.394 -17.093   5.283  1.00  0.00    -0.326 N 
HETATM   10  C   UNL     1      43.369 -18.314   4.795  1.00  0.00     0.138 A 
HETATM   11  N   UNL     1      43.132 -18.551   3.529  1.00  0.00    -0.345 N 
HETATM   12  H   UNL     1      43.110 -19.519   3.200  1.00  0.00     0.163 HD
HETATM   13  C   UNL     1      42.911 -17.446   2.486  1.00  0.00     0.264 A 
HETATM   14  H   UNL     1      42.430 -12.895   2.553  1.00  0.00     0.173 HD
HETATM   15  H   UNL     1      43.577 -17.036   6.282  1.00  0.00     0.169 HD
ENDROOT
BRANCH   1  16
HETATM   16  C   UNL     1      43.523 -14.514   6.536  1.00  0.00     0.140 C 
BRANCH  16  17
HETATM   17  C   UNL     1      45.027 -14.298   6.761  1.00  0.00     0.059 C 
BRANCH  17  18
HETATM   18  C   UNL     1      45.317 -13.189   7.741  1.00  0.00    -0.057 A 
HETATM   19  C   UNL     1      46.536 -12.493   7.689  1.00  0.00     0.007 A 
HETATM   20  C   UNL     1      46.799 -11.455   8.583  1.00  0.00     0.001 A 
HETATM   21  C   UNL     1      45.844 -11.086   9.526  1.00  0.00     0.000 A 
HETATM   22  C   UNL     1      44.623 -11.755   9.574  1.00  0.00     0.001 A 
HETATM   23  C   UNL     1      44.359 -12.801   8.687  1.00  0.00     0.007 A 
ENDBRANCH  17  18
ENDBRANCH  16  17
ENDBRANCH   1  16
BRANCH  13  24
HETATM   24  C   UNL     1      44.052 -17.568   1.470  1.00  0.00     0.426 C 
HETATM   25  F   UNL     1      44.699 -18.747   1.678  1.00  0.00    -0.168 F 
HETATM   26  F   UNL     1      43.546 -17.634   0.214  1.00  0.00    -0.168 F 
HETATM   27  F   UNL     1      44.969 -16.596   1.501  1.00  0.00    -0.168 F 
ENDBRANCH  13  24
BRANCH  13  28
HETATM   28  C   UNL     1      41.625 -17.805   1.731  1.00  0.00     0.426 C 
HETATM   29  F   UNL     1      40.548 -17.457   2.479  1.00  0.00    -0.168 F 
HETATM   30  F   UNL     1      41.484 -17.280   0.512  1.00  0.00    -0.168 F 
HETATM   31  F   UNL     1      41.563 -19.159   1.598  1.00  0.00    -0.168 F 
ENDBRANCH  13  28
BRANCH  10  32
HETATM   32  C   UNL     1      43.612 -19.395   5.728  1.00  0.00     0.118 A 
HETATM   33  O   UNL     1      44.118 -20.603   5.327  1.00  0.00    -0.319 OA
HETATM   34  C   UNL     1      44.214 -21.391   6.427  1.00  0.00     0.142 A 
HETATM   35  C   UNL     1      43.779 -20.712   7.539  1.00  0.00     0.027 A 
HETATM   36  C   UNL     1      43.391 -19.422   7.093  1.00  0.00     0.043 A 
ENDBRANCH  10  32
TORSDOF 6
ENDMDL
MODEL 3
REMARK VINA RESULT:      -8.7      2.208      5.300
REMARK  6 active torsions:
REMARK  status: ('A' for Active; 'I' for Inactive)
REMARK    1  A    between atoms: C_4  and  C_5 
REMARK    2  A    between atoms: C_5  and  C_6 
REMARK    3  A    between atoms: C_6  and  N_7 
REMARK    4  A    between atoms: C_16  and  C_17 
REMARK    5  A    between atoms: C_24  and  C_25 
REMARK    6  A    between atoms: C_24  and  C_29 
ROOT
HETATM    1  N   UNL     1      41.375 -16.852   2.791  1.00  0.00    -0.284 N 
HETATM    2  C   UNL     1      41.186 -17.013   4.162  1.00  0.00     0.331 A 
HETATM    3  O   UNL     1      41.399 -18.057   4.767  1.00  0.00    -0.246 OA
HETATM    4  N   UNL     1      40.731 -15.919   4.831  1.00  0.00    -0.275 N 
HETATM    5  C   UNL     1      40.448 -14.720   4.278  1.00  0.00     0.262 A 
HETATM    6  O   UNL     1      40.018 -13.777   4.920  1.00  0.00    -0.267 OA
HETATM    7  C   UNL     1      40.664 -14.581   2.834  1.00  0.00     0.100 A 
HETATM    8  C   UNL     1      41.091 -15.656   2.153  1.00  0.00     0.128 A 
HETATM    9  N   UNL     1      41.251 -15.559   0.794  1.00  0.00    -0.326 N 
HETATM   10  C   UNL     1      40.995 -14.461   0.115  1.00  0.00     0.138 A 
HETATM   11  N   UNL     1      40.581 -13.364   0.697  1.00  0.00    -0.345 N 
HETATM   12  H   UNL     1      40.383 -12.541   0.125  1.00  0.00     0.163 HD
HETATM   13  C   UNL     1      40.400 -13.227   2.216  1.00  0.00     0.264 A 
HETATM   14  H   UNL     1      40.583 -16.033   5.827  1.00  0.00     0.173 HD
HETATM   15  H   UNL     1      41.555 -16.348   0.231  1.00  0.00     0.169 HD
ENDROOT
BRANCH   1  16
HETATM   16  C   UNL     1      41.891 -18.037   2.092  1.00  0.00     0.140 C 
BRANCH  16  17
HETATM   17  C   UNL     1      43.418 -18.162   2.207  1.00  0.00     0.059 C 
BRANCH  17  18
HETATM   18  C   UNL     1      43.861 -19.543   2.619  1.00  0.00    -0.057 A 
HETATM   19  C   UNL     1      44.424 -19.762   3.886  1.00  0.00     0.007 A 
HETATM   20  C   UNL     1      44.818 -21.042   4.277  1.00  0.00     0.001 A 
HETATM   21  C   UNL     1      44.638 -22.121   3.416  1.00  0.00     0.000 A 
HETATM   22  C   UNL     1      44.060 -21.920   2.164  1.00  0.00     0.001 A 
HETATM   23  C   UNL     1      43.673 -20.639   1.766  1.00  0.00     0.007 A 
ENDBRANCH  17  18
ENDBRANCH  16  17
ENDBRANCH   1  16
BRANCH  13  24
HETATM   24  C   UNL     1      41.386 -12.149   2.679  1.00  0.00     0.426 C 
HETATM   25  F   UNL     1      42.539 -12.753   3.075  1.00  0.00    -0.168 F 
HETATM   26  F   UNL     1      41.719 -11.350   1.636  1.00  0.00    -0.168 F 
HETATM   27  F   UNL     1      40.974 -11.372   3.686  1.00  0.00    -0.168 F 
ENDBRANCH  13  24
BRANCH  13  28
HETATM   28  C   UNL     1      38.996 -12.650   2.441  1.00  0.00     0.426 C 
HETATM   29  F   UNL     1      38.065 -13.572   2.089  1.00  0.00    -0.168 F 
HETATM   30  F   UNL     1      38.721 -12.216   3.673  1.00  0.00    -0.168 F 
HETATM   31  F   UNL     1      38.818 -11.599   1.593  1.00  0.00    -0.168 F 
ENDBRANCH  13  28
BRANCH  10  32
HETATM   32  C   UNL     1      41.189 -14.522  -1.319  1.00  0.00     0.118 A 
HETATM   33  O   UNL     1      41.656 -13.452  -2.037  1.00  0.00    -0.319 OA
HETATM   34  C   UNL     1      41.711 -13.827  -3.340  1.00  0.00     0.142 A 
HETATM   35  C   UNL     1      41.288 -15.127  -3.480  1.00  0.00     0.027 A 
HETATM   36  C   UNL     1      40.951 -15.579  -2.178  1.00  0.00     0.043 A 
ENDBRANCH  10  32
TORSDOF 6
ENDMDL
MODEL 4
REMARK VINA RESULT:      -8.7      2.508      5.320
REMARK  6 active torsions:
REMARK  status: ('A' for Active; 'I' for Inactive)
REMARK    1  A    between atoms: C_4  and  C_5 
REMARK    2  A    between atoms: C_5  and  C_6 
REMARK    3  A    between atoms: C_6  and  N_7 
REMARK    4  A    between atoms: C_16  and  C_17 
REMARK    5  A    between atoms: C_24  and  C_25 
REMARK    6  A    between atoms: C_24  and  C_29 
ROOT
HETATM    1  N   UNL     1      42.857 -14.948   2.343  1.00  0.00    -0.284 N 
HETATM    2  C   UNL     1      42.646 -13.613   2.683  1.00  0.00     0.331 A 
HETATM    3  O   UNL     1      42.496 -12.712   1.866  1.00  0.00    -0.246 OA
HETATM    4  N   UNL     1      42.617 -13.337   4.015  1.00  0.00    -0.275 N 
HETATM    5  C   UNL     1      42.781 -14.237   5.009  1.00  0.00     0.262 A 
HETATM    6  O   UNL     1      42.770 -13.932   6.189  1.00  0.00    -0.267 OA
HETATM    7  C   UNL     1      42.995 -15.634   4.618  1.00  0.00     0.100 A 
HETATM    8  C   UNL     1      43.050 -15.923   3.308  1.00  0.00     0.128 A 
HETATM    9  N   UNL     1      43.298 -17.216   2.924  1.00  0.00    -0.326 N 
HETATM   10  C   UNL     1      43.499 -18.195   3.779  1.00  0.00     0.138 A 
HETATM   11  N   UNL     1      43.457 -18.007   5.075  1.00  0.00    -0.345 N 
HETATM   12  H   UNL     1      43.633 -18.798   5.698  1.00  0.00     0.163 HD
HETATM   13  C   UNL     1      43.127 -16.656   5.725  1.00  0.00     0.264 A 
HETATM   14  H   UNL     1      42.473 -12.367   4.268  1.00  0.00     0.173 HD
HETATM   15  H   UNL     1      43.367 -17.482   1.946  1.00  0.00     0.169 HD
ENDROOT
BRANCH   1  16
HETATM   16  C   UNL     1      42.860 -15.229   0.901  1.00  0.00     0.140 C 
BRANCH  16  17
HETATM   17  C   UNL     1      41.617 -16.015   0.459  1.00  0.00     0.059 C 
BRANCH  17  18
HETATM   18  C   UNL     1      40.374 -15.163   0.409  1.00  0.00    -0.057 A 
HETATM   19  C   UNL     1      40.108 -14.355  -0.707  1.00  0.00     0.007 A 
HETATM   20  C   UNL     1      38.949 -13.579  -0.764  1.00  0.00     0.001 A 
HETATM   21  C   UNL     1      38.034 -13.615   0.285  1.00  0.00     0.000 A 
HETATM   22  C   UNL     1      38.276 -14.429   1.389  1.00  0.00     0.001 A 
HETATM   23  C   UNL     1      39.438 -15.200   1.453  1.00  0.00     0.007 A 
ENDBRANCH  17  18
ENDBRANCH  16  17
ENDBRANCH   1  16
BRANCH  13  24
HETATM   24  C   UNL     1      41.832 -16.857   6.519  1.00  0.00     0.426 C 
HETATM   25  F   UNL     1      40.996 -17.652   5.798  1.00  0.00    -0.168 F 
HETATM   26  F   UNL     1      42.095 -17.531   7.666  1.00  0.00    -0.168 F 
HETATM   27  F   UNL     1      41.158 -15.746   6.831  1.00  0.00    -0.168 F 
ENDBRANCH  13  24
BRANCH  13  28
HETATM   28  C   UNL     1      44.227 -16.385   6.759  1.00  0.00     0.426 C 
HETATM   29  F   UNL     1      45.165 -15.565   6.220  1.00  0.00    -0.168 F 
HETATM   30  F   UNL     1      43.833 -15.871   7.926  1.00  0.00    -0.168 F 
HETATM   31  F   UNL     1      44.868 -17.556   7.028  1.00  0.00    -0.168 F 
ENDBRANCH  13  28
BRANCH  10  32
HETATM   32  C   UNL     1      43.774 -19.503   3.220  1.00  0.00     0.118 A 
HETATM   33  O   UNL     1      44.502 -20.446   3.896  1.00  0.00    -0.319 OA
HETATM   34  C   UNL     1      44.588 -21.543   3.102  1.00  0.00     0.142 A 
HETATM   35  C   UNL     1      43.926 -21.327   1.918  1.00  0.00     0.027 A 
HETATM   36  C   UNL     1      43.398 -20.012   1.990  1.00  0.00     0.043 A 
ENDBRANCH  10  32
TORSDOF 6
ENDMDL
MODEL 5
REMARK VINA RESULT:      -8.6      3.384      6.415
REMARK  6 active torsions:
REMARK  status: ('A' for Active; 'I' for Inactive)
REMARK    1  A    between atoms: C_4  and  C_5 
REMARK    2  A    between atoms: C_5  and  C_6 
REMARK    3  A    between atoms: C_6  and  N_7 
REMARK    4  A    between atoms: C_16  and  C_17 
REMARK    5  A    between atoms: C_24  and  C_25 
REMARK    6  A    between atoms: C_24  and  C_29 
ROOT
HETATM    1  N   UNL     1      42.514 -14.725   3.567  1.00  0.00    -0.284 N 
HETATM    2  C   UNL     1      41.706 -15.563   2.801  1.00  0.00     0.331 A 
HETATM    3  O   UNL     1      41.135 -15.215   1.774  1.00  0.00    -0.246 OA
HETATM    4  N   UNL     1      41.567 -16.836   3.260  1.00  0.00    -0.275 N 
HETATM    5  C   UNL     1      42.133 -17.335   4.380  1.00  0.00     0.262 A 
HETATM    6  O   UNL     1      41.956 -18.480   4.761  1.00  0.00    -0.267 OA
HETATM    7  C   UNL     1      42.983 -16.430   5.160  1.00  0.00     0.100 A 
HETATM    8  C   UNL     1      43.114 -15.164   4.736  1.00  0.00     0.128 A 
HETATM    9  N   UNL     1      43.865 -14.289   5.480  1.00  0.00    -0.326 N 
HETATM   10  C   UNL     1      44.459 -14.627   6.604  1.00  0.00     0.138 A 
HETATM   11  N   UNL     1      44.391 -15.841   7.090  1.00  0.00    -0.345 N 
HETATM   12  H   UNL     1      44.859 -16.050   7.974  1.00  0.00     0.163 HD
HETATM   13  C   UNL     1      43.663 -16.996   6.387  1.00  0.00     0.264 A 
HETATM   14  H   UNL     1      40.973 -17.448   2.712  1.00  0.00     0.173 HD
HETATM   15  H   UNL     1      43.981 -13.316   5.211  1.00  0.00     0.169 HD
ENDROOT
BRANCH   1  16
HETATM   16  C   UNL     1      42.672 -13.363   3.041  1.00  0.00     0.140 C 
BRANCH  16  17
HETATM   17  C   UNL     1      41.360 -12.564   3.091  1.00  0.00     0.059 C 
BRANCH  17  18
HETATM   18  C   UNL     1      40.860 -12.350   4.497  1.00  0.00    -0.057 A 
HETATM   19  C   UNL     1      41.515 -11.453   5.357  1.00  0.00     0.007 A 
HETATM   20  C   UNL     1      41.043 -11.239   6.653  1.00  0.00     0.001 A 
HETATM   21  C   UNL     1      39.904 -11.902   7.099  1.00  0.00     0.000 A 
HETATM   22  C   UNL     1      39.234 -12.779   6.249  1.00  0.00     0.001 A 
HETATM   23  C   UNL     1      39.707 -13.002   4.954  1.00  0.00     0.007 A 
ENDBRANCH  17  18
ENDBRANCH  16  17
ENDBRANCH   1  16
BRANCH  13  24
HETATM   24  C   UNL     1      44.727 -18.048   6.056  1.00  0.00     0.426 C 
HETATM   25  F   UNL     1      44.919 -18.067   4.709  1.00  0.00    -0.168 F 
HETATM   26  F   UNL     1      45.915 -17.688   6.600  1.00  0.00    -0.168 F 
HETATM   27  F   UNL     1      44.453 -19.298   6.441  1.00  0.00    -0.168 F 
ENDBRANCH  13  24
BRANCH  13  28
HETATM   28  C   UNL     1      42.738 -17.633   7.431  1.00  0.00     0.426 C 
HETATM   29  F   UNL     1      41.483 -17.137   7.290  1.00  0.00    -0.168 F 
HETATM   30  F   UNL     1      42.671 -18.966   7.432  1.00  0.00    -0.168 F 
HETATM   31  F   UNL     1      43.152 -17.248   8.671  1.00  0.00    -0.168 F 
ENDBRANCH  13  28
BRANCH  10  32
HETATM   32  C   UNL     1      45.197 -13.585   7.290  1.00  0.00     0.118 A 
HETATM   33  O   UNL     1      46.407 -13.130   6.836  1.00  0.00    -0.319 OA
HETATM   34  C   UNL     1      46.834 -12.174   7.700  1.00  0.00     0.142 A 
HETATM   35  C   UNL     1      45.918 -12.001   8.709  1.00  0.00     0.027 A 
HETATM   36  C   UNL     1      44.860 -12.909   8.448  1.00  0.00     0.043 A 
ENDBRANCH  10  32
TORSDOF 6
ENDMDL
MODEL 6
REMARK VINA RESULT:      -8.4      2.248      2.857
REMARK  6 active torsions:
REMARK  status: ('A' for Active; 'I' for Inactive)
REMARK    1  A    between atoms: C_4  and  C_5 
REMARK    2  A    between atoms: C_5  and  C_6 
REMARK    3  A    between atoms: C_6  and  N_7 
REMARK    4  A    between atoms: C_16  and  C_17 
REMARK    5  A    between atoms: C_24  and  C_25 
REMARK    6  A    between atoms: C_24  and  C_29 
ROOT
HETATM    1  N   UNL     1      41.240 -16.278   3.259  1.00  0.00    -0.284 N 
HETATM    2  C   UNL     1      40.358 -16.585   2.224  1.00  0.00     0.331 A 
HETATM    3  O   UNL     1      40.249 -17.697   1.722  1.00  0.00    -0.246 OA
HETATM    4  N   UNL     1      39.592 -15.555   1.773  1.00  0.00    -0.275 N 
HETATM    5  C   UNL     1      39.628 -14.286   2.235  1.00  0.00     0.262 A 
HETATM    6  O   UNL     1      38.936 -13.393   1.776  1.00  0.00    -0.267 OA
HETATM    7  C   UNL     1      40.562 -13.998   3.327  1.00  0.00     0.100 A 
HETATM    8  C   UNL     1      41.342 -14.996   3.772  1.00  0.00     0.128 A 
HETATM    9  N   UNL     1      42.256 -14.733   4.761  1.00  0.00    -0.326 N 
HETATM   10  C   UNL     1      42.419 -13.541   5.292  1.00  0.00     0.138 A 
HETATM   11  N   UNL     1      41.698 -12.511   4.925  1.00  0.00    -0.345 N 
HETATM   12  H   UNL     1      41.871 -11.602   5.359  1.00  0.00     0.163 HD
HETATM   13  C   UNL     1      40.570 -12.593   3.886  1.00  0.00     0.264 A 
HETATM   14  H   UNL     1      38.956 -15.769   1.014  1.00  0.00     0.173 HD
HETATM   15  H   UNL     1      42.881 -15.449   5.119  1.00  0.00     0.169 HD
ENDROOT
BRANCH   1  16
HETATM   16  C   UNL     1      42.038 -17.409   3.750  1.00  0.00     0.140 C 
BRANCH  16  17
HETATM   17  C   UNL     1      43.292 -17.651   2.895  1.00  0.00     0.059 C 
BRANCH  17  18
HETATM   18  C   UNL     1      43.705 -19.101   2.861  1.00  0.00    -0.057 A 
HETATM   19  C   UNL     1      44.383 -19.675   3.949  1.00  0.00     0.007 A 
HETATM   20  C   UNL     1      44.749 -21.021   3.927  1.00  0.00     0.001 A 
HETATM   21  C   UNL     1      44.428 -21.814   2.830  1.00  0.00     0.000 A 
HETATM   22  C   UNL     1      43.737 -21.262   1.754  1.00  0.00     0.001 A 
HETATM   23  C   UNL     1      43.375 -19.913   1.768  1.00  0.00     0.007 A 
ENDBRANCH  17  18
ENDBRANCH  16  17
ENDBRANCH   1  16
BRANCH  13  24
HETATM   24  C   UNL     1      39.274 -12.225   4.616  1.00  0.00     0.426 C 
HETATM   25  F   UNL     1      38.831 -13.317   5.297  1.00  0.00    -0.168 F 
HETATM   26  F   UNL     1      39.525 -11.277   5.552  1.00  0.00    -0.168 F 
HETATM   27  F   UNL     1      38.269 -11.798   3.846  1.00  0.00    -0.168 F 
ENDBRANCH  13  24
BRANCH  13  28
HETATM   28  C   UNL     1      40.825 -11.471   2.872  1.00  0.00     0.426 C 
HETATM   29  F   UNL     1      41.781 -11.862   1.992  1.00  0.00    -0.168 F 
HETATM   30  F   UNL     1      39.765 -11.038   2.184  1.00  0.00    -0.168 F 
HETATM   31  F   UNL     1      41.344 -10.398   3.532  1.00  0.00    -0.168 F 
ENDBRANCH  13  28
BRANCH  10  32
HETATM   32  C   UNL     1      43.443 -13.415   6.310  1.00  0.00     0.118 A 
HETATM   33  O   UNL     1      43.301 -12.578   7.385  1.00  0.00    -0.319 OA
HETATM   34  C   UNL     1      44.428 -12.683   8.134  1.00  0.00     0.142 A 
HETATM   35  C   UNL     1      45.300 -13.577   7.562  1.00  0.00     0.027 A 
HETATM   36  C   UNL     1      44.667 -14.052   6.384  1.00  0.00     0.043 A 
ENDBRANCH  10  32
TORSDOF 6
ENDMDL
MODEL 7
REMARK VINA RESULT:      -8.3      3.052      4.732
REMARK  6 active torsions:
REMARK  status: ('A' for Active; 'I' for Inactive)
REMARK    1  A    between atoms: C_4  and  C_5 
REMARK    2  A    between atoms: C_5  and  C_6 
REMARK    3  A    between atoms: C_6  and  N_7 
REMARK    4  A    between atoms: C_16  and  C_17 
REMARK    5  A    between atoms: C_24  and  C_25 
REMARK    6  A    between atoms: C_24  and  C_29 
ROOT
HETATM    1  N   UNL     1      42.064 -15.805   1.930  1.00  0.00    -0.284 N 
HETATM    2  C   UNL     1      42.395 -16.421   0.724  1.00  0.00     0.331 A 
HETATM    3  O   UNL     1      43.242 -17.298   0.611  1.00  0.00    -0.246 OA
HETATM    4  N   UNL     1      41.712 -15.987  -0.370  1.00  0.00    -0.275 N 
HETATM    5  C   UNL     1      40.768 -15.021  -0.377  1.00  0.00     0.262 A 
HETATM    6  O   UNL     1      40.203 -14.652  -1.393  1.00  0.00    -0.267 OA
HETATM    7  C   UNL     1      40.439 -14.398   0.909  1.00  0.00     0.100 A 
HETATM    8  C   UNL     1      41.117 -14.797   1.996  1.00  0.00     0.128 A 
HETATM    9  N   UNL     1      40.856 -14.190   3.199  1.00  0.00    -0.326 N 
HETATM   10  C   UNL     1      39.978 -13.221   3.342  1.00  0.00     0.138 A 
HETATM   11  N   UNL     1      39.267 -12.773   2.337  1.00  0.00    -0.345 N 
HETATM   12  H   UNL     1      38.607 -12.010   2.497  1.00  0.00     0.163 HD
HETATM   13  C   UNL     1      39.345 -13.354   0.918  1.00  0.00     0.264 A 
HETATM   14  H   UNL     1      41.955 -16.424  -1.252  1.00  0.00     0.173 HD
HETATM   15  H   UNL     1      41.355 -14.444   4.048  1.00  0.00     0.169 HD
ENDROOT
BRANCH   1  16
HETATM   16  C   UNL     1      42.793 -16.305   3.103  1.00  0.00     0.140 C 
BRANCH  16  17
HETATM   17  C   UNL     1      42.141 -17.561   3.701  1.00  0.00     0.059 C 
BRANCH  17  18
HETATM   18  C   UNL     1      43.134 -18.664   3.969  1.00  0.00    -0.057 A 
HETATM   19  C   UNL     1      43.602 -19.471   2.920  1.00  0.00     0.007 A 
HETATM   20  C   UNL     1      44.536 -20.480   3.162  1.00  0.00     0.001 A 
HETATM   21  C   UNL     1      45.026 -20.683   4.449  1.00  0.00     0.000 A 
HETATM   22  C   UNL     1      44.585 -19.874   5.494  1.00  0.00     0.001 A 
HETATM   23  C   UNL     1      43.646 -18.869   5.258  1.00  0.00     0.007 A 
ENDBRANCH  17  18
ENDBRANCH  16  17
ENDBRANCH   1  16
BRANCH  13  24
HETATM   24  C   UNL     1      37.959 -13.928   0.603  1.00  0.00     0.426 C 
HETATM   25  F   UNL     1      37.765 -15.042   1.361  1.00  0.00    -0.168 F 
HETATM   26  F   UNL     1      37.000 -13.047   0.978  1.00  0.00    -0.168 F 
HETATM   27  F   UNL     1      37.742 -14.267  -0.671  1.00  0.00    -0.168 F 
ENDBRANCH  13  24
BRANCH  13  28
HETATM   28  C   UNL     1      39.544 -12.167  -0.032  1.00  0.00     0.426 C 
HETATM   29  F   UNL     1      40.871 -11.930  -0.191  1.00  0.00    -0.168 F 
HETATM   30  F   UNL     1      38.983 -12.269  -1.239  1.00  0.00    -0.168 F 
HETATM   31  F   UNL     1      39.035 -11.049   0.557  1.00  0.00    -0.168 F 
ENDBRANCH  13  28
BRANCH  10  32
HETATM   32  C   UNL     1      39.833 -12.663   4.671  1.00  0.00     0.118 A 
HETATM   33  O   UNL     1      40.019 -11.330   4.926  1.00  0.00    -0.319 OA
HETATM   34  C   UNL     1      39.823 -11.137   6.255  1.00  0.00     0.142 A 
HETATM   35  C   UNL     1      39.513 -12.327   6.868  1.00  0.00     0.027 A 
HETATM   36  C   UNL     1      39.517 -13.314   5.849  1.00  0.00     0.043 A 
ENDBRANCH  10  32
TORSDOF 6
ENDMDL
MODEL 8
REMARK VINA RESULT:      -8.0      3.577      6.646
REMARK  6 active torsions:
REMARK  status: ('A' for Active; 'I' for Inactive)
REMARK    1  A    between atoms: C_4  and  C_5 
REMARK    2  A    between atoms: C_5  and  C_6 
REMARK    3  A    between atoms: C_6  and  N_7 
REMARK    4  A    between atoms: C_16  and  C_17 
REMARK    5  A    between atoms: C_24  and  C_25 
REMARK    6  A    between atoms: C_24  and  C_29 
ROOT
HETATM    1  N   UNL     1      42.570 -14.735   3.611  1.00  0.00    -0.284 N 
HETATM    2  C   UNL     1      41.776 -15.559   2.815  1.00  0.00     0.331 A 
HETATM    3  O   UNL     1      41.217 -15.191   1.789  1.00  0.00    -0.246 OA
HETATM    4  N   UNL     1      41.639 -16.843   3.244  1.00  0.00    -0.275 N 
HETATM    5  C   UNL     1      42.192 -17.364   4.360  1.00  0.00     0.262 A 
HETATM    6  O   UNL     1      42.017 -18.518   4.712  1.00  0.00    -0.267 OA
HETATM    7  C   UNL     1      43.027 -16.472   5.171  1.00  0.00     0.100 A 
HETATM    8  C   UNL     1      43.157 -15.196   4.778  1.00  0.00     0.128 A 
HETATM    9  N   UNL     1      43.893 -14.335   5.552  1.00  0.00    -0.326 N 
HETATM   10  C   UNL     1      44.474 -14.695   6.676  1.00  0.00     0.138 A 
HETATM   11  N   UNL     1      44.406 -15.921   7.133  1.00  0.00    -0.345 N 
HETATM   12  H   UNL     1      44.864 -16.147   8.018  1.00  0.00     0.163 HD
HETATM   13  C   UNL     1      43.694 -17.062   6.394  1.00  0.00     0.264 A 
HETATM   14  H   UNL     1      41.055 -17.445   2.674  1.00  0.00     0.173 HD
HETATM   15  H   UNL     1      44.007 -13.355   5.306  1.00  0.00     0.169 HD
ENDROOT
BRANCH   1  16
HETATM   16  C   UNL     1      42.727 -13.360   3.118  1.00  0.00     0.140 C 
BRANCH  16  17
HETATM   17  C   UNL     1      41.738 -12.388   3.780  1.00  0.00     0.059 C 
BRANCH  17  18
HETATM   18  C   UNL     1      40.641 -11.945   2.844  1.00  0.00    -0.057 A 
HETATM   19  C   UNL     1      39.314 -12.348   3.060  1.00  0.00     0.007 A 
HETATM   20  C   UNL     1      38.294 -11.924   2.206  1.00  0.00     0.001 A 
HETATM   21  C   UNL     1      38.584 -11.079   1.139  1.00  0.00     0.000 A 
HETATM   22  C   UNL     1      39.894 -10.655   0.926  1.00  0.00     0.001 A 
HETATM   23  C   UNL     1      40.918 -11.083   1.773  1.00  0.00     0.007 A 
ENDBRANCH  17  18
ENDBRANCH  16  17
ENDBRANCH   1  16
BRANCH  13  24
HETATM   24  C   UNL     1      44.767 -18.102   6.054  1.00  0.00     0.426 C 
HETATM   25  F   UNL     1      44.957 -18.109   4.706  1.00  0.00    -0.168 F 
HETATM   26  F   UNL     1      45.954 -17.733   6.597  1.00  0.00    -0.168 F 
HETATM   27  F   UNL     1      44.507 -19.357   6.430  1.00  0.00    -0.168 F 
ENDBRANCH  13  24
BRANCH  13  28
HETATM   28  C   UNL     1      42.759 -17.728   7.411  1.00  0.00     0.426 C 
HETATM   29  F   UNL     1      41.518 -17.187   7.310  1.00  0.00    -0.168 F 
HETATM   30  F   UNL     1      42.650 -19.057   7.339  1.00  0.00    -0.168 F 
HETATM   31  F   UNL     1      43.195 -17.426   8.665  1.00  0.00    -0.168 F 
ENDBRANCH  13  28
BRANCH  10  32
HETATM   32  C   UNL     1      45.197 -13.665   7.395  1.00  0.00     0.118 A 
HETATM   33  O   UNL     1      44.780 -13.198   8.613  1.00  0.00    -0.319 OA
HETATM   34  C   UNL     1      45.658 -12.242   9.006  1.00  0.00     0.142 A 
HETATM   35  C   UNL     1      46.642 -12.081   8.061  1.00  0.00     0.027 A 
HETATM   36  C   UNL     1      46.349 -12.998   7.019  1.00  0.00     0.043 A 
ENDBRANCH  10  32
TORSDOF 6
ENDMDL
MODEL 9
REMARK VINA RESULT:      -7.8      2.601      3.799
REMARK  6 active torsions:
REMARK  status: ('A' for Active; 'I' for Inactive)
REMARK    1  A    between atoms: C_4  and  C_5 
REMARK    2  A    between atoms: C_5  and  C_6 
REMARK    3  A    between atoms: C_6  and  N_7 
REMARK    4  A    between atoms: C_16  and  C_17 
REMARK    5  A    between atoms: C_24  and  C_25 
REMARK    6  A    between atoms: C_24  and  C_29 
ROOT
HETATM    1  N   UNL     1      41.101 -15.905   3.216  1.00  0.00    -0.284 N 
HETATM    2  C   UNL     1      40.159 -16.118   2.211  1.00  0.00     0.331 A 
HETATM    3  O   UNL     1      40.037 -17.170   1.595  1.00  0.00    -0.246 OA
HETATM    4  N   UNL     1      39.346 -15.065   1.927  1.00  0.00    -0.275 N 
HETATM    5  C   UNL     1      39.389 -13.854   2.525  1.00  0.00     0.262 A 
HETATM    6  O   UNL     1      38.652 -12.934   2.214  1.00  0.00    -0.267 OA
HETATM    7  C   UNL     1      40.387 -13.665   3.582  1.00  0.00     0.100 A 
HETATM    8  C   UNL     1      41.213 -14.685   3.862  1.00  0.00     0.128 A 
HETATM    9  N   UNL     1      42.185 -14.510   4.814  1.00  0.00    -0.326 N 
HETATM   10  C   UNL     1      42.360 -13.380   5.464  1.00  0.00     0.138 A 
HETATM   11  N   UNL     1      41.598 -12.334   5.261  1.00  0.00    -0.345 N 
HETATM   12  H   UNL     1      41.782 -11.475   5.782  1.00  0.00     0.163 HD
HETATM   13  C   UNL     1      40.406 -12.330   4.293  1.00  0.00     0.264 A 
HETATM   14  H   UNL     1      38.665 -15.210   1.191  1.00  0.00     0.173 HD
HETATM   15  H   UNL     1      42.846 -15.245   5.049  1.00  0.00     0.169 HD
ENDROOT
BRANCH   1  16
HETATM   16  C   UNL     1      41.951 -17.063   3.526  1.00  0.00     0.140 C 
BRANCH  16  17
HETATM   17  C   UNL     1      41.508 -17.783   4.808  1.00  0.00     0.059 C 
BRANCH  17  18
HETATM   18  C   UNL     1      42.600 -17.851   5.846  1.00  0.00    -0.057 A 
HETATM   19  C   UNL     1      43.864 -18.367   5.518  1.00  0.00     0.007 A 
HETATM   20  C   UNL     1      44.882 -18.414   6.472  1.00  0.00     0.001 A 
HETATM   21  C   UNL     1      44.656 -17.930   7.757  1.00  0.00     0.000 A 
HETATM   22  C   UNL     1      43.413 -17.396   8.089  1.00  0.00     0.001 A 
HETATM   23  C   UNL     1      42.390 -17.355   7.140  1.00  0.00     0.007 A 
ENDBRANCH  17  18
ENDBRANCH  16  17
ENDBRANCH   1  16
BRANCH  13  24
HETATM   24  C   UNL     1      39.154 -12.079   5.140  1.00  0.00     0.426 C 
HETATM   25  F   UNL     1      39.456 -11.171   6.107  1.00  0.00    -0.168 F 
HETATM   26  F   UNL     1      38.189 -11.509   4.377  1.00  0.00    -0.168 F 
HETATM   27  F   UNL     1      38.632 -13.150   5.744  1.00  0.00    -0.168 F 
ENDBRANCH  13  24
BRANCH  13  28
HETATM   28  C   UNL     1      40.573 -11.097   3.396  1.00  0.00     0.426 C 
HETATM   29  F   UNL     1      41.372 -11.404   2.344  1.00  0.00    -0.168 F 
HETATM   30  F   UNL     1      39.451 -10.543   2.930  1.00  0.00    -0.168 F 
HETATM   31  F   UNL     1      41.236 -10.136   4.098  1.00  0.00    -0.168 F 
ENDBRANCH  13  28
BRANCH  10  32
HETATM   32  C   UNL     1      43.446 -13.341   6.422  1.00  0.00     0.118 A 
HETATM   33  O   UNL     1      43.442 -12.486   7.493  1.00  0.00    -0.319 OA
HETATM   34  C   UNL     1      44.595 -12.689   8.181  1.00  0.00     0.142 A 
HETATM   35  C   UNL     1      45.347 -13.664   7.573  1.00  0.00     0.027 A 
HETATM   36  C   UNL     1      44.609 -14.088   6.439  1.00  0.00     0.043 A 
ENDBRANCH  10  32
TORSDOF 6
ENDMDL
MODEL 10
REMARK VINA RESULT:      -7.6      2.595      6.147
REMARK  6 active torsions:
REMARK  status: ('A' for Active; 'I' for Inactive)
REMARK    1  A    between atoms: C_4  and  C_5 
REMARK    2  A    between atoms: C_5  and  C_6 
REMARK    3  A    between atoms: C_6  and  N_7 
REMARK    4  A    between atoms: C_16  and  C_17 
REMARK    5  A    between atoms: C_24  and  C_25 
REMARK    6  A    between atoms: C_24  and  C_29 
ROOT
HETATM    1  N   UNL     1      42.903 -16.341   2.108  1.00  0.00    -0.284 N 
HETATM    2  C   UNL     1      43.673 -17.456   1.782  1.00  0.00     0.331 A 
HETATM    3  O   UNL     1      43.933 -17.800   0.635  1.00  0.00    -0.246 OA
HETATM    4  N   UNL     1      44.141 -18.182   2.833  1.00  0.00    -0.275 N 
HETATM    5  C   UNL     1      43.914 -17.915   4.137  1.00  0.00     0.262 A 
HETATM    6  O   UNL     1      44.338 -18.614   5.042  1.00  0.00    -0.267 OA
HETATM    7  C   UNL     1      43.106 -16.731   4.447  1.00  0.00     0.100 A 
HETATM    8  C   UNL     1      42.616 -16.015   3.423  1.00  0.00     0.128 A 
HETATM    9  N   UNL     1      41.817 -14.933   3.693  1.00  0.00    -0.326 N 
HETATM   10  C   UNL     1      41.493 -14.564   4.913  1.00  0.00     0.138 A 
HETATM   11  N   UNL     1      41.930 -15.199   5.972  1.00  0.00    -0.345 N 
HETATM   12  H   UNL     1      41.640 -14.881   6.898  1.00  0.00     0.163 HD
HETATM   13  C   UNL     1      42.892 -16.394   5.906  1.00  0.00     0.264 A 
HETATM   14  H   UNL     1      44.694 -19.000   2.602  1.00  0.00     0.173 HD
HETATM   15  H   UNL     1      41.408 -14.369   2.953  1.00  0.00     0.169 HD
ENDROOT
BRANCH   1  16
HETATM   16  C   UNL     1      42.429 -15.557   0.960  1.00  0.00     0.140 C 
BRANCH  16  17
HETATM   17  C   UNL     1      40.995 -15.929   0.553  1.00  0.00     0.059 C 
BRANCH  17  18
HETATM   18  C   UNL     1      40.067 -14.741   0.532  1.00  0.00    -0.057 A 
HETATM   19  C   UNL     1      40.163 -13.780  -0.487  1.00  0.00     0.007 A 
HETATM   20  C   UNL     1      39.293 -12.689  -0.520  1.00  0.00     0.001 A 
HETATM   21  C   UNL     1      38.306 -12.555   0.453  1.00  0.00     0.000 A 
HETATM   22  C   UNL     1      38.187 -13.513   1.457  1.00  0.00     0.001 A 
HETATM   23  C   UNL     1      39.061 -14.601   1.498  1.00  0.00     0.007 A 
ENDBRANCH  17  18
ENDBRANCH  16  17
ENDBRANCH   1  16
BRANCH  13  24
HETATM   24  C   UNL     1      44.177 -15.963   6.621  1.00  0.00     0.426 C 
HETATM   25  F   UNL     1      44.678 -14.864   5.995  1.00  0.00    -0.168 F 
HETATM   26  F   UNL     1      43.890 -15.575   7.888  1.00  0.00    -0.168 F 
HETATM   27  F   UNL     1      45.152 -16.876   6.673  1.00  0.00    -0.168 F 
ENDBRANCH  13  24
BRANCH  13  28
HETATM   28  C   UNL     1      42.274 -17.504   6.765  1.00  0.00     0.426 C 
HETATM   29  F   UNL     1      41.751 -18.464   5.960  1.00  0.00    -0.168 F 
HETATM   30  F   UNL     1      43.080 -18.088   7.654  1.00  0.00    -0.168 F 
HETATM   31  F   UNL     1      41.221 -16.983   7.455  1.00  0.00    -0.168 F 
ENDBRANCH  13  28
BRANCH  10  32
HETATM   32  C   UNL     1      40.620 -13.414   5.037  1.00  0.00     0.118 A 
HETATM   33  O   UNL     1      40.590 -12.418   4.096  1.00  0.00    -0.319 OA
HETATM   34  C   UNL     1      39.687 -11.493   4.510  1.00  0.00     0.142 A 
HETATM   35  C   UNL     1      39.129 -11.874   5.706  1.00  0.00     0.027 A 
HETATM   36  C   UNL     1      39.727 -13.113   6.049  1.00  0.00     0.043 A 
ENDBRANCH  10  32
TORSDOF 6
ENDMDL
