MODEL 1
REMARK VINA RESULT:      -7.5      0.000      0.000
REMARK  6 active torsions:
REMARK  status: ('A' for Active; 'I' for Inactive)
REMARK    1  A    between atoms: N_4  and  C_5 
REMARK    2  A    between atoms: C_5  and  C_6 
REMARK    3  A    between atoms: C_6  and  C_7 
REMARK    4  A    between atoms: C_7  and  N_8 
REMARK       I    between atoms: N_8  and  C_9 
REMARK       I    between atoms: C_9  and  N_10 
REMARK    5  A    between atoms: N_10  and  C_11 
REMARK    6  A    between atoms: C_12  and  O_13 
ROOT
HETATM    1  N   UNL     1      44.361 -13.270   8.510  1.00  0.00    -0.343 N 
HETATM    2  C   UNL     1      44.625 -14.035   7.394  1.00  0.00     0.320 C 
HETATM    3  N   UNL     1      43.735 -15.087   7.306  1.00  0.00    -0.306 N 
HETATM    4  O   UNL     1      45.569 -13.819   6.644  1.00  0.00    -0.247 OA
HETATM    5  H   UNL     1      43.382 -13.209   8.771  1.00  0.00     0.164 HD
HETATM    6  H   UNL     1      43.560 -15.510   8.206  1.00  0.00     0.171 HD
ENDROOT
BRANCH   1   7
HETATM    7  C   UNL     1      45.181 -12.127   8.850  1.00  0.00     0.126 C 
BRANCH   7   8
HETATM    8  C   UNL     1      45.335 -11.882  10.353  1.00  0.00     0.041 C 
BRANCH   8   9
HETATM    9  C   UNL     1      44.798 -10.538  10.836  1.00  0.00     0.152 C 
BRANCH   9  10
HETATM   10  N   UNL     1      43.654 -10.665  11.716  1.00  0.00    -0.279 N 
HETATM   11  N   UNL     1      43.659 -10.051  12.918  1.00  0.00    -0.176 NA
HETATM   12  C   UNL     1      42.478 -10.398  13.456  1.00  0.00     0.074 A 
HETATM   13  C   UNL     1      42.104  -9.932  14.814  1.00  0.00     0.074 C 
HETATM   14  C   UNL     1      41.728 -11.217  12.580  1.00  0.00     0.077 A 
HETATM   15  C   UNL     1      42.513 -11.367  11.464  1.00  0.00     0.138 A 
HETATM   16 CL   UNL     1      40.191 -11.870  12.854  1.00  0.00    -0.081 Cl
ENDBRANCH   9  10
ENDBRANCH   8   9
ENDBRANCH   7   8
ENDBRANCH   1   7
BRANCH   3  17
HETATM   17  C   UNL     1      43.659 -15.925   6.169  1.00  0.00     0.071 A 
HETATM   18  C   UNL     1      43.028 -15.523   4.971  1.00  0.00     0.095 A 
HETATM   19  C   UNL     1      43.026 -16.395   3.876  1.00  0.00     0.041 A 
HETATM   20  C   UNL     1      43.621 -17.656   3.973  1.00  0.00     0.026 A 
HETATM   21  C   UNL     1      44.197 -18.060   5.174  1.00  0.00     0.036 A 
HETATM   22 CL   UNL     1      44.909 -19.622   5.295  1.00  0.00    -0.084 Cl
HETATM   23  C   UNL     1      44.206 -17.209   6.276  1.00  0.00     0.056 A 
BRANCH  18  24
HETATM   24  O   UNL     1      42.356 -14.327   4.996  1.00  0.00    -0.354 OA
HETATM   25  C   UNL     1      42.837 -13.289   4.154  1.00  0.00     0.210 C 
ENDBRANCH  18  24
ENDBRANCH   3  17
TORSDOF 6
ENDMDL
MODEL 2
REMARK VINA RESULT:      -7.3      6.607      8.236
REMARK  6 active torsions:
REMARK  status: ('A' for Active; 'I' for Inactive)
REMARK    1  A    between atoms: N_4  and  C_5 
REMARK    2  A    between atoms: C_5  and  C_6 
REMARK    3  A    between atoms: C_6  and  C_7 
REMARK    4  A    between atoms: C_7  and  N_8 
REMARK       I    between atoms: N_8  and  C_9 
REMARK       I    between atoms: C_9  and  N_10 
REMARK    5  A    between atoms: N_10  and  C_11 
REMARK    6  A    between atoms: C_12  and  O_13 
ROOT
HETATM    1  N   UNL     1      42.421 -16.491   0.122  1.00  0.00    -0.343 N 
HETATM    2  C   UNL     1      42.375 -17.314   1.227  1.00  0.00     0.320 C 
HETATM    3  N   UNL     1      43.652 -17.659   1.626  1.00  0.00    -0.306 N 
HETATM    4  O   UNL     1      41.328 -17.718   1.718  1.00  0.00    -0.247 OA
HETATM    5  H   UNL     1      43.217 -15.863   0.082  1.00  0.00     0.164 HD
HETATM    6  H   UNL     1      44.252 -17.863   0.840  1.00  0.00     0.171 HD
ENDROOT
BRANCH   1   7
HETATM    7  C   UNL     1      41.209 -16.021  -0.516  1.00  0.00     0.126 C 
BRANCH   7   8
HETATM    8  C   UNL     1      40.960 -14.517  -0.372  1.00  0.00     0.041 C 
BRANCH   8   9
HETATM    9  C   UNL     1      40.069 -14.131   0.805  1.00  0.00     0.152 C 
BRANCH   9  10
HETATM   10  N   UNL     1      40.730 -14.265   2.088  1.00  0.00    -0.279 N 
HETATM   11  N   UNL     1      42.017 -13.884   2.225  1.00  0.00    -0.176 NA
HETATM   12  C   UNL     1      42.298 -14.166   3.507  1.00  0.00     0.074 A 
HETATM   13  C   UNL     1      43.651 -13.909   4.057  1.00  0.00     0.074 C 
HETATM   14  C   UNL     1      41.175 -14.710   4.177  1.00  0.00     0.077 A 
HETATM   15  C   UNL     1      40.179 -14.757   3.234  1.00  0.00     0.138 A 
HETATM   16 CL   UNL     1      41.087 -15.197   5.795  1.00  0.00    -0.081 Cl
ENDBRANCH   9  10
ENDBRANCH   8   9
ENDBRANCH   7   8
ENDBRANCH   1   7
BRANCH   3  17
HETATM   17  C   UNL     1      43.909 -18.346   2.835  1.00  0.00     0.071 A 
HETATM   18  C   UNL     1      44.047 -19.750   2.896  1.00  0.00     0.095 A 
HETATM   19  C   UNL     1      44.339 -20.355   4.125  1.00  0.00     0.041 A 
HETATM   20  C   UNL     1      44.469 -19.581   5.281  1.00  0.00     0.026 A 
HETATM   21  C   UNL     1      44.283 -18.203   5.218  1.00  0.00     0.036 A 
HETATM   22 CL   UNL     1      44.423 -17.257   6.649  1.00  0.00    -0.084 Cl
HETATM   23  C   UNL     1      43.989 -17.583   4.006  1.00  0.00     0.056 A 
BRANCH  18  24
HETATM   24  O   UNL     1      43.777 -20.449   1.747  1.00  0.00    -0.354 OA
HETATM   25  C   UNL     1      44.054 -21.843   1.748  1.00  0.00     0.210 C 
ENDBRANCH  18  24
ENDBRANCH   3  17
TORSDOF 6
ENDMDL
MODEL 3
REMARK VINA RESULT:      -7.3      6.168      7.632
REMARK  6 active torsions:
REMARK  status: ('A' for Active; 'I' for Inactive)
REMARK    1  A    between atoms: N_4  and  C_5 
REMARK    2  A    between atoms: C_5  and  C_6 
REMARK    3  A    between atoms: C_6  and  C_7 
REMARK    4  A    between atoms: C_7  and  N_8 
REMARK       I    between atoms: N_8  and  C_9 
REMARK       I    between atoms: C_9  and  N_10 
REMARK    5  A    between atoms: N_10  and  C_11 
REMARK    6  A    between atoms: C_12  and  O_13 
ROOT
HETATM    1  N   UNL     1      40.983 -16.424   0.767  1.00  0.00    -0.343 N 
HETATM    2  C   UNL     1      42.133 -16.961   1.305  1.00  0.00     0.320 C 
HETATM    3  N   UNL     1      41.824 -17.921   2.249  1.00  0.00    -0.306 N 
HETATM    4  O   UNL     1      43.256 -16.568   1.011  1.00  0.00    -0.247 OA
HETATM    5  H   UNL     1      40.201 -17.066   0.689  1.00  0.00     0.164 HD
HETATM    6  H   UNL     1      41.049 -17.641   2.833  1.00  0.00     0.171 HD
ENDROOT
BRANCH   1   7
HETATM    7  C   UNL     1      41.036 -15.366  -0.219  1.00  0.00     0.126 C 
BRANCH   7   8
HETATM    8  C   UNL     1      40.688 -13.978   0.323  1.00  0.00     0.041 C 
BRANCH   8   9
HETATM    9  C   UNL     1      41.838 -13.266   1.030  1.00  0.00     0.152 C 
BRANCH   9  10
HETATM   10  N   UNL     1      41.906 -13.562   2.447  1.00  0.00    -0.279 N 
HETATM   11  N   UNL     1      40.816 -14.033   3.089  1.00  0.00    -0.176 NA
HETATM   12  C   UNL     1      41.230 -14.168   4.360  1.00  0.00     0.074 A 
HETATM   13  C   UNL     1      40.298 -14.649   5.408  1.00  0.00     0.074 C 
HETATM   14  C   UNL     1      42.588 -13.797   4.506  1.00  0.00     0.077 A 
HETATM   15  C   UNL     1      42.996 -13.414   3.253  1.00  0.00     0.138 A 
HETATM   16 CL   UNL     1      43.506 -13.820   5.927  1.00  0.00    -0.081 Cl
ENDBRANCH   9  10
ENDBRANCH   8   9
ENDBRANCH   7   8
ENDBRANCH   1   7
BRANCH   3  17
HETATM   17  C   UNL     1      42.805 -18.759   2.829  1.00  0.00     0.071 A 
HETATM   18  C   UNL     1      43.365 -18.504   4.100  1.00  0.00     0.095 A 
HETATM   19  C   UNL     1      44.304 -19.401   4.624  1.00  0.00     0.041 A 
HETATM   20  C   UNL     1      44.700 -20.521   3.888  1.00  0.00     0.026 A 
HETATM   21  C   UNL     1      44.178 -20.735   2.616  1.00  0.00     0.036 A 
HETATM   22 CL   UNL     1      44.685 -22.105   1.705  1.00  0.00    -0.084 Cl
HETATM   23  C   UNL     1      43.245 -19.854   2.076  1.00  0.00     0.056 A 
BRANCH  18  24
HETATM   24  O   UNL     1      43.023 -17.320   4.702  1.00  0.00    -0.354 OA
HETATM   25  C   UNL     1      42.849 -17.328   6.112  1.00  0.00     0.210 C 
ENDBRANCH  18  24
ENDBRANCH   3  17
TORSDOF 6
ENDMDL
MODEL 4
REMARK VINA RESULT:      -7.1      6.123      8.513
REMARK  6 active torsions:
REMARK  status: ('A' for Active; 'I' for Inactive)
REMARK    1  A    between atoms: N_4  and  C_5 
REMARK    2  A    between atoms: C_5  and  C_6 
REMARK    3  A    between atoms: C_6  and  C_7 
REMARK    4  A    between atoms: C_7  and  N_8 
REMARK       I    between atoms: N_8  and  C_9 
REMARK       I    between atoms: C_9  and  N_10 
REMARK    5  A    between atoms: N_10  and  C_11 
REMARK    6  A    between atoms: C_12  and  O_13 
ROOT
HETATM    1  N   UNL     1      42.963 -16.366   6.715  1.00  0.00    -0.343 N 
HETATM    2  C   UNL     1      41.926 -16.292   5.809  1.00  0.00     0.320 C 
HETATM    3  N   UNL     1      42.129 -15.250   4.926  1.00  0.00    -0.306 N 
HETATM    4  O   UNL     1      40.945 -17.024   5.855  1.00  0.00    -0.247 OA
HETATM    5  H   UNL     1      43.872 -16.095   6.356  1.00  0.00     0.164 HD
HETATM    6  H   UNL     1      42.485 -14.426   5.388  1.00  0.00     0.171 HD
ENDROOT
BRANCH   1   7
HETATM    7  C   UNL     1      42.967 -17.352   7.775  1.00  0.00     0.126 C 
BRANCH   7   8
HETATM    8  C   UNL     1      43.691 -18.654   7.424  1.00  0.00     0.041 C 
BRANCH   8   9
HETATM    9  C   UNL     1      44.877 -18.486   6.478  1.00  0.00     0.152 C 
BRANCH   9  10
HETATM   10  N   UNL     1      44.655 -19.081   5.176  1.00  0.00    -0.279 N 
HETATM   11  N   UNL     1      44.159 -18.330   4.169  1.00  0.00    -0.176 NA
HETATM   12  C   UNL     1      44.065 -19.194   3.145  1.00  0.00     0.074 A 
HETATM   13  C   UNL     1      43.530 -18.752   1.834  1.00  0.00     0.074 C 
HETATM   14  C   UNL     1      44.521 -20.483   3.509  1.00  0.00     0.077 A 
HETATM   15  C   UNL     1      44.897 -20.376   4.825  1.00  0.00     0.138 A 
HETATM   16 CL   UNL     1      44.583 -21.861   2.528  1.00  0.00    -0.081 Cl
ENDBRANCH   9  10
ENDBRANCH   8   9
ENDBRANCH   7   8
ENDBRANCH   1   7
BRANCH   3  17
HETATM   17  C   UNL     1      41.318 -15.054   3.784  1.00  0.00     0.071 A 
HETATM   18  C   UNL     1      40.198 -14.193   3.787  1.00  0.00     0.095 A 
HETATM   19  C   UNL     1      39.465 -14.023   2.606  1.00  0.00     0.041 A 
HETATM   20  C   UNL     1      39.823 -14.713   1.445  1.00  0.00     0.026 A 
HETATM   21  C   UNL     1      40.899 -15.596   1.467  1.00  0.00     0.036 A 
HETATM   22 CL   UNL     1      41.321 -16.461   0.040  1.00  0.00    -0.084 Cl
HETATM   23  C   UNL     1      41.638 -15.783   2.632  1.00  0.00     0.056 A 
BRANCH  18  24
HETATM   24  O   UNL     1      39.835 -13.654   4.995  1.00  0.00    -0.354 OA
HETATM   25  C   UNL     1      39.208 -12.379   4.980  1.00  0.00     0.210 C 
ENDBRANCH  18  24
ENDBRANCH   3  17
TORSDOF 6
ENDMDL
MODEL 5
REMARK VINA RESULT:      -7.1      6.934      8.801
REMARK  6 active torsions:
REMARK  status: ('A' for Active; 'I' for Inactive)
REMARK    1  A    between atoms: N_4  and  C_5 
REMARK    2  A    between atoms: C_5  and  C_6 
REMARK    3  A    between atoms: C_6  and  C_7 
REMARK    4  A    between atoms: C_7  and  N_8 
REMARK       I    between atoms: N_8  and  C_9 
REMARK       I    between atoms: C_9  and  N_10 
REMARK    5  A    between atoms: N_10  and  C_11 
REMARK    6  A    between atoms: C_12  and  O_13 
ROOT
HETATM    1  N   UNL     1      42.446 -15.685   4.231  1.00  0.00    -0.343 N 
HETATM    2  C   UNL     1      42.466 -17.064   4.214  1.00  0.00     0.320 C 
HETATM    3  N   UNL     1      43.715 -17.525   3.848  1.00  0.00    -0.306 N 
HETATM    4  O   UNL     1      41.475 -17.750   4.432  1.00  0.00    -0.247 OA
HETATM    5  H   UNL     1      43.317 -15.243   4.506  1.00  0.00     0.164 HD
HETATM    6  H   UNL     1      44.114 -16.981   3.096  1.00  0.00     0.171 HD
ENDROOT
BRANCH   1   7
HETATM    7  C   UNL     1      41.236 -14.955   4.546  1.00  0.00     0.126 C 
BRANCH   7   8
HETATM    8  C   UNL     1      40.979 -13.740   3.651  1.00  0.00     0.041 C 
BRANCH   8   9
HETATM    9  C   UNL     1      42.199 -13.257   2.872  1.00  0.00     0.152 C 
BRANCH   9  10
HETATM   10  N   UNL     1      42.045 -13.382   1.437  1.00  0.00    -0.279 N 
HETATM   11  N   UNL     1      42.387 -12.355   0.630  1.00  0.00    -0.176 NA
HETATM   12  C   UNL     1      42.096 -12.807  -0.600  1.00  0.00     0.074 A 
HETATM   13  C   UNL     1      42.312 -11.946  -1.789  1.00  0.00     0.074 C 
HETATM   14  C   UNL     1      41.587 -14.127  -0.563  1.00  0.00     0.077 A 
HETATM   15  C   UNL     1      41.570 -14.470   0.766  1.00  0.00     0.138 A 
HETATM   16 CL   UNL     1      41.102 -15.074  -1.879  1.00  0.00    -0.081 Cl
ENDBRANCH   9  10
ENDBRANCH   8   9
ENDBRANCH   7   8
ENDBRANCH   1   7
BRANCH   3  17
HETATM   17  C   UNL     1      44.072 -18.891   3.921  1.00  0.00     0.071 A 
HETATM   18  C   UNL     1      44.547 -19.489   5.109  1.00  0.00     0.095 A 
HETATM   19  C   UNL     1      44.845 -20.857   5.113  1.00  0.00     0.041 A 
HETATM   20  C   UNL     1      44.695 -21.617   3.950  1.00  0.00     0.026 A 
HETATM   21  C   UNL     1      44.272 -21.008   2.772  1.00  0.00     0.036 A 
HETATM   22 CL   UNL     1      44.111 -21.944   1.337  1.00  0.00    -0.084 Cl
HETATM   23  C   UNL     1      43.975 -19.647   2.747  1.00  0.00     0.056 A 
BRANCH  18  24
HETATM   24  O   UNL     1      44.790 -18.653   6.169  1.00  0.00    -0.354 OA
HETATM   25  C   UNL     1      44.011 -18.841   7.342  1.00  0.00     0.210 C 
ENDBRANCH  18  24
ENDBRANCH   3  17
TORSDOF 6
ENDMDL
MODEL 6
REMARK VINA RESULT:      -7.0      2.501      3.710
REMARK  6 active torsions:
REMARK  status: ('A' for Active; 'I' for Inactive)
REMARK    1  A    between atoms: N_4  and  C_5 
REMARK    2  A    between atoms: C_5  and  C_6 
REMARK    3  A    between atoms: C_6  and  C_7 
REMARK    4  A    between atoms: C_7  and  N_8 
REMARK       I    between atoms: N_8  and  C_9 
REMARK       I    between atoms: C_9  and  N_10 
REMARK    5  A    between atoms: N_10  and  C_11 
REMARK    6  A    between atoms: C_12  and  O_13 
ROOT
HETATM    1  N   UNL     1      41.504 -12.915   6.304  1.00  0.00    -0.343 N 
HETATM    2  C   UNL     1      41.473 -14.061   5.539  1.00  0.00     0.320 C 
HETATM    3  N   UNL     1      42.680 -14.728   5.617  1.00  0.00    -0.306 N 
HETATM    4  O   UNL     1      40.515 -14.376   4.844  1.00  0.00    -0.247 OA
HETATM    5  H   UNL     1      42.068 -12.971   7.146  1.00  0.00     0.164 HD
HETATM    6  H   UNL     1      43.466 -14.094   5.587  1.00  0.00     0.171 HD
ENDROOT
BRANCH   1   7
HETATM    7  C   UNL     1      40.371 -12.016   6.358  1.00  0.00     0.126 C 
BRANCH   7   8
HETATM    8  C   UNL     1      40.326 -11.128   7.604  1.00  0.00     0.041 C 
BRANCH   8   9
HETATM    9  C   UNL     1      41.557 -10.249   7.802  1.00  0.00     0.152 C 
BRANCH   9  10
HETATM   10  N   UNL     1      42.319 -10.595   8.985  1.00  0.00    -0.279 N 
HETATM   11  N   UNL     1      43.646 -10.825   8.888  1.00  0.00    -0.176 NA
HETATM   12  C   UNL     1      44.008 -11.132  10.144  1.00  0.00     0.074 A 
HETATM   13  C   UNL     1      45.415 -11.480  10.458  1.00  0.00     0.074 C 
HETATM   14  C   UNL     1      42.907 -11.077  11.031  1.00  0.00     0.077 A 
HETATM   15  C   UNL     1      41.833 -10.724  10.252  1.00  0.00     0.138 A 
HETATM   16 CL   UNL     1      42.917 -11.384  12.695  1.00  0.00    -0.081 Cl
ENDBRANCH   9  10
ENDBRANCH   8   9
ENDBRANCH   7   8
ENDBRANCH   1   7
BRANCH   3  17
HETATM   17  C   UNL     1      42.869 -16.022   5.078  1.00  0.00     0.071 A 
HETATM   18  C   UNL     1      42.589 -17.197   5.810  1.00  0.00     0.095 A 
HETATM   19  C   UNL     1      42.766 -18.442   5.195  1.00  0.00     0.041 A 
HETATM   20  C   UNL     1      43.236 -18.523   3.882  1.00  0.00     0.026 A 
HETATM   21  C   UNL     1      43.555 -17.360   3.187  1.00  0.00     0.036 A 
HETATM   22 CL   UNL     1      44.154 -17.465   1.577  1.00  0.00    -0.084 Cl
HETATM   23  C   UNL     1      43.389 -16.112   3.782  1.00  0.00     0.056 A 
BRANCH  18  24
HETATM   24  O   UNL     1      42.257 -17.040   7.132  1.00  0.00    -0.354 OA
HETATM   25  C   UNL     1      43.262 -17.318   8.097  1.00  0.00     0.210 C 
ENDBRANCH  18  24
ENDBRANCH   3  17
TORSDOF 6
ENDMDL
MODEL 7
REMARK VINA RESULT:      -6.9      6.149      8.330
REMARK  6 active torsions:
REMARK  status: ('A' for Active; 'I' for Inactive)
REMARK    1  A    between atoms: N_4  and  C_5 
REMARK    2  A    between atoms: C_5  and  C_6 
REMARK    3  A    between atoms: C_6  and  C_7 
REMARK    4  A    between atoms: C_7  and  N_8 
REMARK       I    between atoms: N_8  and  C_9 
REMARK       I    between atoms: C_9  and  N_10 
REMARK    5  A    between atoms: N_10  and  C_11 
REMARK    6  A    between atoms: C_12  and  O_13 
ROOT
HETATM    1  N   UNL     1      39.730 -14.883   5.255  1.00  0.00    -0.343 N 
HETATM    2  C   UNL     1      40.970 -15.478   5.342  1.00  0.00     0.320 C 
HETATM    3  N   UNL     1      40.853 -16.853   5.279  1.00  0.00    -0.306 N 
HETATM    4  O   UNL     1      42.005 -14.847   5.518  1.00  0.00    -0.247 OA
HETATM    5  H   UNL     1      39.056 -15.368   4.673  1.00  0.00     0.164 HD
HETATM    6  H   UNL     1      40.066 -17.190   5.816  1.00  0.00     0.171 HD
ENDROOT
BRANCH   1   7
HETATM    7  C   UNL     1      39.579 -13.445   5.338  1.00  0.00     0.126 C 
BRANCH   7   8
HETATM    8  C   UNL     1      39.349 -12.755   3.991  1.00  0.00     0.041 C 
BRANCH   8   9
HETATM    9  C   UNL     1      40.602 -12.605   3.133  1.00  0.00     0.152 C 
BRANCH   9  10
HETATM   10  N   UNL     1      40.622 -13.499   1.993  1.00  0.00    -0.279 N 
HETATM   11  N   UNL     1      41.081 -14.760   2.134  1.00  0.00    -0.176 NA
HETATM   12  C   UNL     1      40.976 -15.276   0.898  1.00  0.00     0.074 A 
HETATM   13  C   UNL     1      41.410 -16.668   0.624  1.00  0.00     0.074 C 
HETATM   14  C   UNL     1      40.433 -14.339  -0.012  1.00  0.00     0.077 A 
HETATM   15  C   UNL     1      40.212 -13.203   0.726  1.00  0.00     0.138 A 
HETATM   16 CL   UNL     1      40.126 -14.573  -1.660  1.00  0.00    -0.081 Cl
ENDBRANCH   9  10
ENDBRANCH   8   9
ENDBRANCH   7   8
ENDBRANCH   1   7
BRANCH   3  17
HETATM   17  C   UNL     1      41.974 -17.707   5.164  1.00  0.00     0.071 A 
HETATM   18  C   UNL     1      42.726 -18.127   6.283  1.00  0.00     0.095 A 
HETATM   19  C   UNL     1      43.802 -19.003   6.092  1.00  0.00     0.041 A 
HETATM   20  C   UNL     1      44.141 -19.438   4.808  1.00  0.00     0.026 A 
HETATM   21  C   UNL     1      43.423 -18.979   3.708  1.00  0.00     0.036 A 
HETATM   22 CL   UNL     1      43.859 -19.501   2.127  1.00  0.00    -0.084 Cl
HETATM   23  C   UNL     1      42.352 -18.105   3.876  1.00  0.00     0.056 A 
BRANCH  18  24
HETATM   24  O   UNL     1      42.413 -17.556   7.490  1.00  0.00    -0.354 OA
HETATM   25  C   UNL     1      43.483 -17.283   8.383  1.00  0.00     0.210 C 
ENDBRANCH  18  24
ENDBRANCH   3  17
TORSDOF 6
ENDMDL
MODEL 8
REMARK VINA RESULT:      -6.9      7.389      9.862
REMARK  6 active torsions:
REMARK  status: ('A' for Active; 'I' for Inactive)
REMARK    1  A    between atoms: N_4  and  C_5 
REMARK    2  A    between atoms: C_5  and  C_6 
REMARK    3  A    between atoms: C_6  and  C_7 
REMARK    4  A    between atoms: C_7  and  N_8 
REMARK       I    between atoms: N_8  and  C_9 
REMARK       I    between atoms: C_9  and  N_10 
REMARK    5  A    between atoms: N_10  and  C_11 
REMARK    6  A    between atoms: C_12  and  O_13 
ROOT
HETATM    1  N   UNL     1      41.408 -15.749   2.706  1.00  0.00    -0.343 N 
HETATM    2  C   UNL     1      42.537 -16.530   2.832  1.00  0.00     0.320 C 
HETATM    3  N   UNL     1      42.232 -17.726   3.451  1.00  0.00    -0.306 N 
HETATM    4  O   UNL     1      43.652 -16.155   2.491  1.00  0.00    -0.247 OA
HETATM    5  H   UNL     1      40.543 -16.258   2.561  1.00  0.00     0.164 HD
HETATM    6  H   UNL     1      41.588 -17.600   4.220  1.00  0.00     0.171 HD
ENDROOT
BRANCH   1   7
HETATM    7  C   UNL     1      41.471 -14.425   2.124  1.00  0.00     0.126 C 
BRANCH   7   8
HETATM    8  C   UNL     1      40.726 -14.283   0.794  1.00  0.00     0.041 C 
BRANCH   8   9
HETATM    9  C   UNL     1      41.539 -14.679  -0.434  1.00  0.00     0.152 C 
BRANCH   9  10
HETATM   10  N   UNL     1      41.976 -13.542  -1.220  1.00  0.00    -0.279 N 
HETATM   11  N   UNL     1      42.579 -12.498  -0.614  1.00  0.00    -0.176 NA
HETATM   12  C   UNL     1      42.818 -11.641  -1.621  1.00  0.00     0.074 A 
HETATM   13  C   UNL     1      43.464 -10.332  -1.358  1.00  0.00     0.074 C 
HETATM   14  C   UNL     1      42.377 -12.161  -2.861  1.00  0.00     0.077 A 
HETATM   15  C   UNL     1      41.842 -13.391  -2.568  1.00  0.00     0.138 A 
HETATM   16 CL   UNL     1      42.488 -11.420  -4.378  1.00  0.00    -0.081 Cl
ENDBRANCH   9  10
ENDBRANCH   8   9
ENDBRANCH   7   8
ENDBRANCH   1   7
BRANCH   3  17
HETATM   17  C   UNL     1      43.158 -18.790   3.548  1.00  0.00     0.071 A 
HETATM   18  C   UNL     1      44.014 -18.953   4.660  1.00  0.00     0.095 A 
HETATM   19  C   UNL     1      44.879 -20.053   4.700  1.00  0.00     0.041 A 
HETATM   20  C   UNL     1      44.913 -20.965   3.642  1.00  0.00     0.026 A 
HETATM   21  C   UNL     1      44.101 -20.768   2.530  1.00  0.00     0.036 A 
HETATM   22 CL   UNL     1      44.162 -21.883   1.220  1.00  0.00    -0.084 Cl
HETATM   23  C   UNL     1      43.236 -19.679   2.469  1.00  0.00     0.056 A 
BRANCH  18  24
HETATM   24  O   UNL     1      44.014 -17.948   5.594  1.00  0.00    -0.354 OA
HETATM   25  C   UNL     1      45.123 -17.876   6.478  1.00  0.00     0.210 C 
ENDBRANCH  18  24
ENDBRANCH   3  17
TORSDOF 6
ENDMDL
MODEL 9
REMARK VINA RESULT:      -6.7      7.366     10.126
REMARK  6 active torsions:
REMARK  status: ('A' for Active; 'I' for Inactive)
REMARK    1  A    between atoms: N_4  and  C_5 
REMARK    2  A    between atoms: C_5  and  C_6 
REMARK    3  A    between atoms: C_6  and  C_7 
REMARK    4  A    between atoms: C_7  and  N_8 
REMARK       I    between atoms: N_8  and  C_9 
REMARK       I    between atoms: C_9  and  N_10 
REMARK    5  A    between atoms: N_10  and  C_11 
REMARK    6  A    between atoms: C_12  and  O_13 
ROOT
HETATM    1  N   UNL     1      40.515 -16.354   3.062  1.00  0.00    -0.343 N 
HETATM    2  C   UNL     1      40.374 -15.212   2.303  1.00  0.00     0.320 C 
HETATM    3  N   UNL     1      39.490 -15.428   1.264  1.00  0.00    -0.306 N 
HETATM    4  O   UNL     1      41.013 -14.188   2.510  1.00  0.00    -0.247 OA
HETATM    5  H   UNL     1      39.684 -16.931   3.135  1.00  0.00     0.164 HD
HETATM    6  H   UNL     1      39.623 -16.333   0.836  1.00  0.00     0.171 HD
ENDROOT
BRANCH   1   7
HETATM    7  C   UNL     1      41.420 -16.400   4.191  1.00  0.00     0.126 C 
BRANCH   7   8
HETATM    8  C   UNL     1      42.839 -16.861   3.846  1.00  0.00     0.041 C 
BRANCH   8   9
HETATM    9  C   UNL     1      43.571 -17.564   4.985  1.00  0.00     0.152 C 
BRANCH   9  10
HETATM   10  N   UNL     1      43.998 -18.907   4.643  1.00  0.00    -0.279 N 
HETATM   11  N   UNL     1      43.961 -19.319   3.359  1.00  0.00    -0.176 NA
HETATM   12  C   UNL     1      44.395 -20.588   3.420  1.00  0.00     0.074 A 
HETATM   13  C   UNL     1      44.479 -21.415   2.191  1.00  0.00     0.074 C 
HETATM   14  C   UNL     1      44.721 -20.963   4.745  1.00  0.00     0.077 A 
HETATM   15  C   UNL     1      44.457 -19.855   5.510  1.00  0.00     0.138 A 
HETATM   16 CL   UNL     1      45.307 -22.461   5.269  1.00  0.00    -0.081 Cl
ENDBRANCH   9  10
ENDBRANCH   8   9
ENDBRANCH   7   8
ENDBRANCH   1   7
BRANCH   3  17
HETATM   17  C   UNL     1      39.021 -14.382   0.436  1.00  0.00     0.071 A 
HETATM   18  C   UNL     1      39.652 -14.033  -0.779  1.00  0.00     0.095 A 
HETATM   19  C   UNL     1      39.106 -13.009  -1.562  1.00  0.00     0.041 A 
HETATM   20  C   UNL     1      37.965 -12.324  -1.136  1.00  0.00     0.026 A 
HETATM   21  C   UNL     1      37.380 -12.643   0.085  1.00  0.00     0.036 A 
HETATM   22 CL   UNL     1      35.987 -11.782   0.615  1.00  0.00    -0.084 Cl
HETATM   23  C   UNL     1      37.909 -13.656   0.881  1.00  0.00     0.056 A 
BRANCH  18  24
HETATM   24  O   UNL     1      40.838 -14.661  -1.063  1.00  0.00    -0.354 OA
HETATM   25  C   UNL     1      40.883 -15.482  -2.221  1.00  0.00     0.210 C 
ENDBRANCH  18  24
ENDBRANCH   3  17
TORSDOF 6
ENDMDL
MODEL 10
REMARK VINA RESULT:      -6.6      7.130      9.997
REMARK  6 active torsions:
REMARK  status: ('A' for Active; 'I' for Inactive)
REMARK    1  A    between atoms: N_4  and  C_5 
REMARK    2  A    between atoms: C_5  and  C_6 
REMARK    3  A    between atoms: C_6  and  C_7 
REMARK    4  A    between atoms: C_7  and  N_8 
REMARK       I    between atoms: N_8  and  C_9 
REMARK       I    between atoms: C_9  and  N_10 
REMARK    5  A    between atoms: N_10  and  C_11 
REMARK    6  A    between atoms: C_12  and  O_13 
ROOT
HETATM    1  N   UNL     1      39.676 -14.853   3.371  1.00  0.00    -0.343 N 
HETATM    2  C   UNL     1      40.884 -15.439   3.681  1.00  0.00     0.320 C 
HETATM    3  N   UNL     1      40.737 -16.805   3.825  1.00  0.00    -0.306 N 
HETATM    4  O   UNL     1      41.912 -14.798   3.864  1.00  0.00    -0.247 OA
HETATM    5  H   UNL     1      39.052 -15.419   2.805  1.00  0.00     0.164 HD
HETATM    6  H   UNL     1      39.891 -17.043   4.323  1.00  0.00     0.171 HD
ENDROOT
BRANCH   1   7
HETATM    7  C   UNL     1      39.555 -13.419   3.207  1.00  0.00     0.126 C 
BRANCH   7   8
HETATM    8  C   UNL     1      39.675 -12.935   1.760  1.00  0.00     0.041 C 
BRANCH   8   9
HETATM    9  C   UNL     1      38.487 -13.292   0.872  1.00  0.00     0.152 C 
BRANCH   9  10
HETATM   10  N   UNL     1      38.879 -13.828  -0.416  1.00  0.00    -0.279 N 
HETATM   11  N   UNL     1      37.975 -13.909  -1.415  1.00  0.00    -0.176 NA
HETATM   12  C   UNL     1      38.667 -14.462  -2.425  1.00  0.00     0.074 A 
HETATM   13  C   UNL     1      38.008 -14.744  -3.723  1.00  0.00     0.074 C 
HETATM   14  C   UNL     1      40.011 -14.710  -2.060  1.00  0.00     0.077 A 
HETATM   15  C   UNL     1      40.117 -14.287  -0.759  1.00  0.00     0.138 A 
HETATM   16 CL   UNL     1      41.225 -15.388  -3.025  1.00  0.00    -0.081 Cl
ENDBRANCH   9  10
ENDBRANCH   8   9
ENDBRANCH   7   8
ENDBRANCH   1   7
BRANCH   3  17
HETATM   17  C   UNL     1      41.841 -17.677   3.966  1.00  0.00     0.071 A 
HETATM   18  C   UNL     1      42.549 -18.190   2.857  1.00  0.00     0.095 A 
HETATM   19  C   UNL     1      43.655 -19.019   3.078  1.00  0.00     0.041 A 
HETATM   20  C   UNL     1      44.041 -19.354   4.379  1.00  0.00     0.026 A 
HETATM   21  C   UNL     1      43.307 -18.881   5.463  1.00  0.00     0.036 A 
HETATM   22 CL   UNL     1      43.772 -19.314   7.062  1.00  0.00    -0.084 Cl
HETATM   23  C   UNL     1      42.201 -18.058   5.264  1.00  0.00     0.056 A 
BRANCH  18  24
HETATM   24  O   UNL     1      42.033 -17.923   1.615  1.00  0.00    -0.354 OA
HETATM   25  C   UNL     1      42.693 -16.941   0.829  1.00  0.00     0.210 C 
ENDBRANCH  18  24
ENDBRANCH   3  17
TORSDOF 6
ENDMDL
