MODEL 1
REMARK VINA RESULT:      -7.8      0.000      0.000
REMARK  6 active torsions:
REMARK  status: ('A' for Active; 'I' for Inactive)
REMARK    1  A    between atoms: C_2  and  N_3 
REMARK    2  A    between atoms: N_3  and  C_5 
REMARK    3  A    between atoms: N_3  and  C_17 
REMARK    4  A    between atoms: C_5  and  C_6 
REMARK       I    between atoms: C_6  and  N_7 
REMARK    5  A    between atoms: N_7  and  C_8 
REMARK    6  A    between atoms: C_17  and  C_18 
ROOT
HETATM    1  N   UNL     1      43.789 -15.911   5.970  1.00  0.00    -0.059 N 
HETATM    2  H   UNL     1      44.251 -16.065   5.066  1.00  0.00     0.280 HD
ENDROOT
BRANCH   1   3
HETATM    3  C   UNL     1      44.726 -15.063   6.821  1.00  0.00     0.231 C 
HETATM    4  C   UNL     1      44.122 -13.704   7.114  1.00  0.00     0.034 C 
ENDBRANCH   1   3
BRANCH   1   5
HETATM    5  C   UNL     1      43.550 -17.326   6.533  1.00  0.00     0.337 C 
BRANCH   5   6
HETATM    6  C   UNL     1      43.250 -18.392   5.476  1.00  0.00     0.248 C 
HETATM    7  N   UNL     1      44.377 -18.953   4.898  1.00  0.00    -0.325 N 
HETATM    8  H   UNL     1      45.256 -18.468   4.986  1.00  0.00     0.169 HD
HETATM    9  O   UNL     1      42.088 -18.599   5.138  1.00  0.00    -0.271 OA
BRANCH   7  10
HETATM   10  C   UNL     1      44.327 -19.897   3.841  1.00  0.00     0.046 A 
HETATM   11  C   UNL     1      44.457 -21.267   4.175  1.00  0.00    -0.035 A 
HETATM   12  C   UNL     1      44.717 -21.739   5.581  1.00  0.00     0.050 C 
HETATM   13  C   UNL     1      44.407 -22.231   3.157  1.00  0.00     0.009 A 
HETATM   14  C   UNL     1      44.223 -21.856   1.831  1.00  0.00     0.001 A 
HETATM   15  C   UNL     1      44.068 -20.512   1.508  1.00  0.00     0.009 A 
HETATM   16  C   UNL     1      44.090 -19.518   2.503  1.00  0.00    -0.035 A 
HETATM   17  C   UNL     1      43.807 -18.107   2.059  1.00  0.00     0.050 C 
ENDBRANCH   7  10
ENDBRANCH   5   6
ENDBRANCH   1   5
BRANCH   1  18
HETATM   18  C   UNL     1      42.499 -15.173   5.672  1.00  0.00     0.276 C 
BRANCH  18  19
HETATM   19  C   UNL     1      42.302 -14.746   4.238  1.00  0.00    -0.003 A 
HETATM   20  C   UNL     1      41.498 -15.481   3.334  1.00  0.00     0.069 A 
HETATM   21  C   UNL     1      41.275 -15.097   2.012  1.00  0.00     0.012 A 
HETATM   22  N   UNL     1      40.768 -16.641   3.474  1.00  0.00    -0.277 N 
HETATM   23  C   UNL     1      40.434 -16.096   1.475  1.00  0.00     0.152 A 
HETATM   24  C   UNL     1      41.859 -13.921   1.524  1.00  0.00     0.015 A 
HETATM   25  N   UNL     1      40.137 -17.041   2.366  1.00  0.00    -0.186 NA
HETATM   26  C   UNL     1      42.641 -13.156   2.386  1.00  0.00     0.002 A 
HETATM   27  C   UNL     1      42.850 -13.556   3.709  1.00  0.00     0.011 A 
HETATM   28  H   UNL     1      40.650 -17.221   4.295  1.00  0.00     0.189 HD
ENDBRANCH  18  19
ENDBRANCH   1  18
TORSDOF 6
ENDMDL
MODEL 2
REMARK VINA RESULT:      -7.8      1.438      2.655
REMARK  6 active torsions:
REMARK  status: ('A' for Active; 'I' for Inactive)
REMARK    1  A    between atoms: C_2  and  N_3 
REMARK    2  A    between atoms: N_3  and  C_5 
REMARK    3  A    between atoms: N_3  and  C_17 
REMARK    4  A    between atoms: C_5  and  C_6 
REMARK       I    between atoms: C_6  and  N_7 
REMARK    5  A    between atoms: N_7  and  C_8 
REMARK    6  A    between atoms: C_17  and  C_18 
ROOT
HETATM    1  N   UNL     1      43.349 -15.483   5.221  1.00  0.00    -0.059 N 
HETATM    2  H   UNL     1      43.799 -15.691   4.321  1.00  0.00     0.280 HD
ENDROOT
BRANCH   1   3
HETATM    3  C   UNL     1      44.025 -14.242   5.791  1.00  0.00     0.231 C 
HETATM    4  C   UNL     1      44.539 -14.493   7.195  1.00  0.00     0.034 C 
ENDBRANCH   1   3
BRANCH   1   5
HETATM    5  C   UNL     1      43.563 -16.751   6.070  1.00  0.00     0.337 C 
BRANCH   5   6
HETATM    6  C   UNL     1      43.293 -18.065   5.334  1.00  0.00     0.248 C 
HETATM    7  N   UNL     1      44.343 -18.503   4.543  1.00  0.00    -0.325 N 
HETATM    8  H   UNL     1      45.060 -17.842   4.287  1.00  0.00     0.169 HD
HETATM    9  O   UNL     1      42.177 -18.574   5.394  1.00  0.00    -0.271 OA
BRANCH   7  10
HETATM   10  C   UNL     1      44.273 -19.650   3.713  1.00  0.00     0.046 A 
HETATM   11  C   UNL     1      44.092 -19.447   2.324  1.00  0.00    -0.035 A 
HETATM   12  C   UNL     1      43.899 -18.080   1.721  1.00  0.00     0.050 C 
HETATM   13  C   UNL     1      44.024 -20.557   1.469  1.00  0.00     0.009 A 
HETATM   14  C   UNL     1      44.141 -21.849   1.970  1.00  0.00     0.001 A 
HETATM   15  C   UNL     1      44.347 -22.045   3.332  1.00  0.00     0.009 A 
HETATM   16  C   UNL     1      44.443 -20.957   4.217  1.00  0.00    -0.035 A 
HETATM   17  C   UNL     1      44.771 -21.275   5.652  1.00  0.00     0.050 C 
ENDBRANCH   7  10
ENDBRANCH   5   6
ENDBRANCH   1   5
BRANCH   1  18
HETATM   18  C   UNL     1      41.887 -15.220   4.917  1.00  0.00     0.276 C 
BRANCH  18  19
HETATM   19  C   UNL     1      41.477 -15.377   3.474  1.00  0.00    -0.003 A 
HETATM   20  C   UNL     1      41.762 -14.395   2.496  1.00  0.00     0.069 A 
HETATM   21  C   UNL     1      41.419 -14.523   1.150  1.00  0.00     0.012 A 
HETATM   22  N   UNL     1      42.399 -13.176   2.564  1.00  0.00    -0.277 N 
HETATM   23  C   UNL     1      41.877 -13.336   0.538  1.00  0.00     0.152 A 
HETATM   24  C   UNL     1      40.764 -15.681   0.709  1.00  0.00     0.015 A 
HETATM   25  N   UNL     1      42.463 -12.512   1.406  1.00  0.00    -0.186 NA
HETATM   26  C   UNL     1      40.484 -16.683   1.635  1.00  0.00     0.002 A 
HETATM   27  C   UNL     1      40.838 -16.537   2.979  1.00  0.00     0.011 A 
HETATM   28  H   UNL     1      42.820 -12.723   3.367  1.00  0.00     0.189 HD
ENDBRANCH  18  19
ENDBRANCH   1  18
TORSDOF 6
ENDMDL
MODEL 3
REMARK VINA RESULT:      -7.7      1.616      4.324
REMARK  6 active torsions:
REMARK  status: ('A' for Active; 'I' for Inactive)
REMARK    1  A    between atoms: C_2  and  N_3 
REMARK    2  A    between atoms: N_3  and  C_5 
REMARK    3  A    between atoms: N_3  and  C_17 
REMARK    4  A    between atoms: C_5  and  C_6 
REMARK       I    between atoms: C_6  and  N_7 
REMARK    5  A    between atoms: N_7  and  C_8 
REMARK    6  A    between atoms: C_17  and  C_18 
ROOT
HETATM    1  N   UNL     1      42.045 -16.422   1.158  1.00  0.00    -0.059 N 
HETATM    2  H   UNL     1      41.285 -16.973   1.576  1.00  0.00     0.280 HD
ENDROOT
BRANCH   1   3
HETATM    3  C   UNL     1      41.542 -15.898  -0.181  1.00  0.00     0.231 C 
HETATM    4  C   UNL     1      40.511 -14.803   0.010  1.00  0.00     0.034 C 
ENDBRANCH   1   3
BRANCH   1   5
HETATM    5  C   UNL     1      43.223 -17.408   1.035  1.00  0.00     0.337 C 
BRANCH   5   6
HETATM    6  C   UNL     1      43.117 -18.644   1.932  1.00  0.00     0.248 C 
HETATM    7  N   UNL     1      44.323 -19.062   2.471  1.00  0.00    -0.325 N 
HETATM    8  H   UNL     1      45.179 -18.734   2.049  1.00  0.00     0.169 HD
HETATM    9  O   UNL     1      42.044 -19.231   2.029  1.00  0.00    -0.271 OA
BRANCH   7  10
HETATM   10  C   UNL     1      44.465 -20.231   3.260  1.00  0.00     0.046 A 
HETATM   11  C   UNL     1      44.544 -20.071   4.664  1.00  0.00    -0.035 A 
HETATM   12  C   UNL     1      44.556 -18.720   5.329  1.00  0.00     0.050 C 
HETATM   13  C   UNL     1      44.678 -21.205   5.479  1.00  0.00     0.009 A 
HETATM   14  C   UNL     1      44.728 -22.479   4.924  1.00  0.00     0.001 A 
HETATM   15  C   UNL     1      44.622 -22.636   3.545  1.00  0.00     0.009 A 
HETATM   16  C   UNL     1      44.464 -21.525   2.698  1.00  0.00    -0.035 A 
HETATM   17  C   UNL     1      44.254 -21.812   1.234  1.00  0.00     0.050 C 
ENDBRANCH   7  10
ENDBRANCH   5   6
ENDBRANCH   1   5
BRANCH   1  18
HETATM   18  C   UNL     1      42.329 -15.286   2.120  1.00  0.00     0.276 C 
BRANCH  18  19
HETATM   19  C   UNL     1      42.212 -15.621   3.586  1.00  0.00    -0.003 A 
HETATM   20  C   UNL     1      43.012 -14.994   4.571  1.00  0.00     0.069 A 
HETATM   21  C   UNL     1      42.909 -15.263   5.936  1.00  0.00     0.012 A 
HETATM   22  N   UNL     1      43.997 -14.035   4.493  1.00  0.00    -0.277 N 
HETATM   23  C   UNL     1      43.876 -14.437   6.549  1.00  0.00     0.152 A 
HETATM   24  C   UNL     1      41.965 -16.194   6.390  1.00  0.00     0.015 A 
HETATM   25  N   UNL     1      44.545 -13.698   5.664  1.00  0.00    -0.186 NA
HETATM   26  C   UNL     1      41.142 -16.820   5.456  1.00  0.00     0.002 A 
HETATM   27  C   UNL     1      41.259 -16.535   4.092  1.00  0.00     0.011 A 
HETATM   28  H   UNL     1      44.356 -13.558   3.674  1.00  0.00     0.189 HD
ENDBRANCH  18  19
ENDBRANCH   1  18
TORSDOF 6
ENDMDL
MODEL 4
REMARK VINA RESULT:      -7.7      1.213      2.154
REMARK  6 active torsions:
REMARK  status: ('A' for Active; 'I' for Inactive)
REMARK    1  A    between atoms: C_2  and  N_3 
REMARK    2  A    between atoms: N_3  and  C_5 
REMARK    3  A    between atoms: N_3  and  C_17 
REMARK    4  A    between atoms: C_5  and  C_6 
REMARK       I    between atoms: C_6  and  N_7 
REMARK    5  A    between atoms: N_7  and  C_8 
REMARK    6  A    between atoms: C_17  and  C_18 
ROOT
HETATM    1  N   UNL     1      43.232 -15.634   5.624  1.00  0.00    -0.059 N 
HETATM    2  H   UNL     1      43.205 -15.778   4.607  1.00  0.00     0.280 HD
ENDROOT
BRANCH   1   3
HETATM    3  C   UNL     1      44.222 -14.509   5.898  1.00  0.00     0.231 C 
HETATM    4  C   UNL     1      44.426 -14.309   7.386  1.00  0.00     0.034 C 
ENDBRANCH   1   3
BRANCH   1   5
HETATM    5  C   UNL     1      43.666 -16.996   6.200  1.00  0.00     0.337 C 
BRANCH   5   6
HETATM    6  C   UNL     1      43.320 -18.201   5.322  1.00  0.00     0.248 C 
HETATM    7  N   UNL     1      44.409 -18.776   4.689  1.00  0.00    -0.325 N 
HETATM    8  H   UNL     1      45.261 -18.242   4.614  1.00  0.00     0.169 HD
HETATM    9  O   UNL     1      42.143 -18.505   5.148  1.00  0.00    -0.271 OA
BRANCH   7  10
HETATM   10  C   UNL     1      44.303 -19.848   3.766  1.00  0.00     0.046 A 
HETATM   11  C   UNL     1      44.096 -19.524   2.403  1.00  0.00    -0.035 A 
HETATM   12  C   UNL     1      43.915 -18.109   1.923  1.00  0.00     0.050 C 
HETATM   13  C   UNL     1      43.992 -20.557   1.459  1.00  0.00     0.009 A 
HETATM   14  C   UNL     1      44.096 -21.888   1.846  1.00  0.00     0.001 A 
HETATM   15  C   UNL     1      44.327 -22.203   3.182  1.00  0.00     0.009 A 
HETATM   16  C   UNL     1      44.460 -21.195   4.154  1.00  0.00    -0.035 A 
HETATM   17  C   UNL     1      44.812 -21.639   5.549  1.00  0.00     0.050 C 
ENDBRANCH   7  10
ENDBRANCH   5   6
ENDBRANCH   1   5
BRANCH   1  18
HETATM   18  C   UNL     1      41.828 -15.243   6.038  1.00  0.00     0.276 C 
BRANCH  18  19
HETATM   19  C   UNL     1      41.012 -14.519   4.996  1.00  0.00    -0.003 A 
HETATM   20  C   UNL     1      40.552 -15.156   3.819  1.00  0.00     0.069 A 
HETATM   21  C   UNL     1      39.774 -14.521   2.851  1.00  0.00     0.012 A 
HETATM   22  N   UNL     1      40.698 -16.440   3.341  1.00  0.00    -0.277 N 
HETATM   23  C   UNL     1      39.544 -15.501   1.861  1.00  0.00     0.152 A 
HETATM   24  C   UNL     1      39.403 -13.181   3.029  1.00  0.00     0.015 A 
HETATM   25  N   UNL     1      40.120 -16.666   2.158  1.00  0.00    -0.186 NA
HETATM   26  C   UNL     1      39.817 -12.522   4.184  1.00  0.00     0.002 A 
HETATM   27  C   UNL     1      40.594 -13.177   5.144  1.00  0.00     0.011 A 
HETATM   28  H   UNL     1      41.181 -17.223   3.765  1.00  0.00     0.189 HD
ENDBRANCH  18  19
ENDBRANCH   1  18
TORSDOF 6
ENDMDL
MODEL 5
REMARK VINA RESULT:      -7.6      1.689      2.323
REMARK  6 active torsions:
REMARK  status: ('A' for Active; 'I' for Inactive)
REMARK    1  A    between atoms: C_2  and  N_3 
REMARK    2  A    between atoms: N_3  and  C_5 
REMARK    3  A    between atoms: N_3  and  C_17 
REMARK    4  A    between atoms: C_5  and  C_6 
REMARK       I    between atoms: C_6  and  N_7 
REMARK    5  A    between atoms: N_7  and  C_8 
REMARK    6  A    between atoms: C_17  and  C_18 
ROOT
HETATM    1  N   UNL     1      43.428 -15.406   5.575  1.00  0.00    -0.059 N 
HETATM    2  H   UNL     1      43.925 -15.706   4.727  1.00  0.00     0.280 HD
ENDROOT
BRANCH   1   3
HETATM    3  C   UNL     1      43.964 -14.030   5.953  1.00  0.00     0.231 C 
HETATM    4  C   UNL     1      44.986 -14.126   7.068  1.00  0.00     0.034 C 
ENDBRANCH   1   3
BRANCH   1   5
HETATM    5  C   UNL     1      43.737 -16.498   6.618  1.00  0.00     0.337 C 
BRANCH   5   6
HETATM    6  C   UNL     1      44.430 -17.742   6.054  1.00  0.00     0.248 C 
HETATM    7  N   UNL     1      43.579 -18.625   5.410  1.00  0.00    -0.325 N 
HETATM    8  H   UNL     1      42.588 -18.553   5.583  1.00  0.00     0.169 HD
HETATM    9  O   UNL     1      45.620 -17.930   6.290  1.00  0.00    -0.271 OA
BRANCH   7  10
HETATM   10  C   UNL     1      43.998 -19.876   4.889  1.00  0.00     0.046 A 
HETATM   11  C   UNL     1      44.084 -20.967   5.788  1.00  0.00    -0.035 A 
HETATM   12  C   UNL     1      43.823 -20.826   7.264  1.00  0.00     0.050 C 
HETATM   13  C   UNL     1      44.488 -22.222   5.309  1.00  0.00     0.009 A 
HETATM   14  C   UNL     1      44.796 -22.406   3.966  1.00  0.00     0.001 A 
HETATM   15  C   UNL     1      44.684 -21.339   3.080  1.00  0.00     0.009 A 
HETATM   16  C   UNL     1      44.260 -20.072   3.517  1.00  0.00    -0.035 A 
HETATM   17  C   UNL     1      44.072 -19.016   2.460  1.00  0.00     0.050 C 
ENDBRANCH   7  10
ENDBRANCH   5   6
ENDBRANCH   1   5
BRANCH   1  18
HETATM   18  C   UNL     1      41.959 -15.342   5.211  1.00  0.00     0.276 C 
BRANCH  18  19
HETATM   19  C   UNL     1      41.627 -15.622   3.766  1.00  0.00    -0.003 A 
HETATM   20  C   UNL     1      41.849 -14.671   2.741  1.00  0.00     0.069 A 
HETATM   21  C   UNL     1      41.578 -14.910   1.395  1.00  0.00     0.012 A 
HETATM   22  N   UNL     1      42.355 -13.390   2.759  1.00  0.00    -0.277 N 
HETATM   23  C   UNL     1      41.936 -13.717   0.728  1.00  0.00     0.152 A 
HETATM   24  C   UNL     1      41.065 -16.153   1.000  1.00  0.00     0.015 A 
HETATM   25  N   UNL     1      42.398 -12.789   1.566  1.00  0.00    -0.186 NA
HETATM   26  C   UNL     1      40.851 -17.126   1.974  1.00  0.00     0.002 A 
HETATM   27  C   UNL     1      41.132 -16.868   3.319  1.00  0.00     0.011 A 
HETATM   28  H   UNL     1      42.693 -12.851   3.547  1.00  0.00     0.189 HD
ENDBRANCH  18  19
ENDBRANCH   1  18
TORSDOF 6
ENDMDL
MODEL 6
REMARK VINA RESULT:      -7.6      2.000      6.449
REMARK  6 active torsions:
REMARK  status: ('A' for Active; 'I' for Inactive)
REMARK    1  A    between atoms: C_2  and  N_3 
REMARK    2  A    between atoms: N_3  and  C_5 
REMARK    3  A    between atoms: N_3  and  C_17 
REMARK    4  A    between atoms: C_5  and  C_6 
REMARK       I    between atoms: C_6  and  N_7 
REMARK    5  A    between atoms: N_7  and  C_8 
REMARK    6  A    between atoms: C_17  and  C_18 
ROOT
HETATM    1  N   UNL     1      43.024 -17.140   5.718  1.00  0.00    -0.059 N 
HETATM    2  H   UNL     1      42.311 -17.365   5.014  1.00  0.00     0.280 HD
ENDROOT
BRANCH   1   3
HETATM    3  C   UNL     1      42.404 -17.387   7.088  1.00  0.00     0.231 C 
HETATM    4  C   UNL     1      43.454 -17.349   8.180  1.00  0.00     0.034 C 
ENDBRANCH   1   3
BRANCH   1   5
HETATM    5  C   UNL     1      43.381 -15.663   5.457  1.00  0.00     0.337 C 
BRANCH   5   6
HETATM    6  C   UNL     1      42.616 -15.018   4.298  1.00  0.00     0.248 C 
HETATM    7  N   UNL     1      41.238 -15.054   4.434  1.00  0.00    -0.325 N 
HETATM    8  H   UNL     1      40.836 -15.706   5.090  1.00  0.00     0.169 HD
HETATM    9  O   UNL     1      43.232 -14.623   3.312  1.00  0.00    -0.271 OA
BRANCH   7  10
HETATM   10  C   UNL     1      40.341 -14.589   3.439  1.00  0.00     0.046 A 
HETATM   11  C   UNL     1      39.938 -13.233   3.500  1.00  0.00    -0.035 A 
HETATM   12  C   UNL     1      40.364 -12.308   4.609  1.00  0.00     0.050 C 
HETATM   13  C   UNL     1      39.055 -12.733   2.530  1.00  0.00     0.009 A 
HETATM   14  C   UNL     1      38.582 -13.551   1.511  1.00  0.00     0.001 A 
HETATM   15  C   UNL     1      39.001 -14.876   1.437  1.00  0.00     0.009 A 
HETATM   16  C   UNL     1      39.902 -15.407   2.377  1.00  0.00    -0.035 A 
HETATM   17  C   UNL     1      40.372 -16.818   2.145  1.00  0.00     0.050 C 
ENDBRANCH   7  10
ENDBRANCH   5   6
ENDBRANCH   1   5
BRANCH   1  18
HETATM   18  C   UNL     1      44.187 -18.078   5.465  1.00  0.00     0.276 C 
BRANCH  18  19
HETATM   19  C   UNL     1      44.080 -18.940   4.231  1.00  0.00    -0.003 A 
HETATM   20  C   UNL     1      44.380 -20.323   4.247  1.00  0.00     0.069 A 
HETATM   21  C   UNL     1      44.264 -21.151   3.131  1.00  0.00     0.012 A 
HETATM   22  N   UNL     1      44.805 -21.168   5.249  1.00  0.00    -0.277 N 
HETATM   23  C   UNL     1      44.659 -22.431   3.579  1.00  0.00     0.152 A 
HETATM   24  C   UNL     1      43.821 -20.617   1.914  1.00  0.00     0.015 A 
HETATM   25  N   UNL     1      44.999 -22.434   4.867  1.00  0.00    -0.186 NA
HETATM   26  C   UNL     1      43.495 -19.263   1.859  1.00  0.00     0.002 A 
HETATM   27  C   UNL     1      43.615 -18.450   2.990  1.00  0.00     0.011 A 
HETATM   28  H   UNL     1      44.987 -20.958   6.222  1.00  0.00     0.189 HD
ENDBRANCH  18  19
ENDBRANCH   1  18
TORSDOF 6
ENDMDL
MODEL 7
REMARK VINA RESULT:      -7.4      2.804      4.312
REMARK  6 active torsions:
REMARK  status: ('A' for Active; 'I' for Inactive)
REMARK    1  A    between atoms: C_2  and  N_3 
REMARK    2  A    between atoms: N_3  and  C_5 
REMARK    3  A    between atoms: N_3  and  C_17 
REMARK    4  A    between atoms: C_5  and  C_6 
REMARK       I    between atoms: C_6  and  N_7 
REMARK    5  A    between atoms: N_7  and  C_8 
REMARK    6  A    between atoms: C_17  and  C_18 
ROOT
HETATM    1  N   UNL     1      42.498 -16.132   1.394  1.00  0.00    -0.059 N 
HETATM    2  H   UNL     1      43.131 -15.365   1.135  1.00  0.00     0.280 HD
ENDROOT
BRANCH   1   3
HETATM    3  C   UNL     1      42.290 -16.059   2.902  1.00  0.00     0.231 C 
HETATM    4  C   UNL     1      43.325 -15.165   3.556  1.00  0.00     0.034 C 
ENDBRANCH   1   3
BRANCH   1   5
HETATM    5  C   UNL     1      43.222 -17.411   0.930  1.00  0.00     0.337 C 
BRANCH   5   6
HETATM    6  C   UNL     1      43.109 -18.594   1.895  1.00  0.00     0.248 C 
HETATM    7  N   UNL     1      44.324 -19.060   2.370  1.00  0.00    -0.325 N 
HETATM    8  H   UNL     1      45.165 -18.807   1.874  1.00  0.00     0.169 HD
HETATM    9  O   UNL     1      42.013 -19.109   2.097  1.00  0.00    -0.271 OA
BRANCH   7  10
HETATM   10  C   UNL     1      44.454 -20.197   3.207  1.00  0.00     0.046 A 
HETATM   11  C   UNL     1      44.544 -19.979   4.603  1.00  0.00    -0.035 A 
HETATM   12  C   UNL     1      44.582 -18.602   5.210  1.00  0.00     0.050 C 
HETATM   13  C   UNL     1      44.667 -21.080   5.465  1.00  0.00     0.009 A 
HETATM   14  C   UNL     1      44.694 -22.376   4.964  1.00  0.00     0.001 A 
HETATM   15  C   UNL     1      44.576 -22.589   3.593  1.00  0.00     0.009 A 
HETATM   16  C   UNL     1      44.429 -21.513   2.701  1.00  0.00    -0.035 A 
HETATM   17  C   UNL     1      44.205 -21.859   1.252  1.00  0.00     0.050 C 
ENDBRANCH   7  10
ENDBRANCH   5   6
ENDBRANCH   1   5
BRANCH   1  18
HETATM   18  C   UNL     1      41.202 -15.888   0.649  1.00  0.00     0.276 C 
BRANCH  18  19
HETATM   19  C   UNL     1      41.324 -15.136  -0.653  1.00  0.00    -0.003 A 
HETATM   20  C   UNL     1      41.788 -13.801  -0.715  1.00  0.00     0.069 A 
HETATM   21  C   UNL     1      41.937 -13.089  -1.905  1.00  0.00     0.012 A 
HETATM   22  N   UNL     1      42.200 -12.916   0.258  1.00  0.00    -0.277 N 
HETATM   23  C   UNL     1      42.413 -11.817  -1.517  1.00  0.00     0.152 A 
HETATM   24  C   UNL     1      41.626 -13.704  -3.125  1.00  0.00     0.015 A 
HETATM   25  N   UNL     1      42.560 -11.712  -0.197  1.00  0.00    -0.186 NA
HETATM   26  C   UNL     1      41.186 -15.026  -3.112  1.00  0.00     0.002 A 
HETATM   27  C   UNL     1      41.046 -15.724  -1.908  1.00  0.00     0.011 A 
HETATM   28  H   UNL     1      42.263 -13.058   1.259  1.00  0.00     0.189 HD
ENDBRANCH  18  19
ENDBRANCH   1  18
TORSDOF 6
ENDMDL
MODEL 8
REMARK VINA RESULT:      -7.4      2.671      4.099
REMARK  6 active torsions:
REMARK  status: ('A' for Active; 'I' for Inactive)
REMARK    1  A    between atoms: C_2  and  N_3 
REMARK    2  A    between atoms: N_3  and  C_5 
REMARK    3  A    between atoms: N_3  and  C_17 
REMARK    4  A    between atoms: C_5  and  C_6 
REMARK       I    between atoms: C_6  and  N_7 
REMARK    5  A    between atoms: N_7  and  C_8 
REMARK    6  A    between atoms: C_17  and  C_18 
ROOT
HETATM    1  N   UNL     1      42.620 -16.085   1.382  1.00  0.00    -0.059 N 
HETATM    2  H   UNL     1      43.164 -15.346   0.920  1.00  0.00     0.280 HD
ENDROOT
BRANCH   1   3
HETATM    3  C   UNL     1      42.698 -15.836   2.883  1.00  0.00     0.231 C 
HETATM    4  C   UNL     1      41.315 -15.772   3.501  1.00  0.00     0.034 C 
ENDBRANCH   1   3
BRANCH   1   5
HETATM    5  C   UNL     1      43.289 -17.401   0.937  1.00  0.00     0.337 C 
BRANCH   5   6
HETATM    6  C   UNL     1      43.157 -18.554   1.935  1.00  0.00     0.248 C 
HETATM    7  N   UNL     1      44.365 -19.065   2.379  1.00  0.00    -0.325 N 
HETATM    8  H   UNL     1      45.199 -18.864   1.847  1.00  0.00     0.169 HD
HETATM    9  O   UNL     1      42.046 -19.011   2.188  1.00  0.00    -0.271 OA
BRANCH   7  10
HETATM   10  C   UNL     1      44.472 -20.187   3.239  1.00  0.00     0.046 A 
HETATM   11  C   UNL     1      44.554 -19.943   4.631  1.00  0.00    -0.035 A 
HETATM   12  C   UNL     1      44.606 -18.554   5.211  1.00  0.00     0.050 C 
HETATM   13  C   UNL     1      44.655 -21.028   5.516  1.00  0.00     0.009 A 
HETATM   14  C   UNL     1      44.667 -22.334   5.040  1.00  0.00     0.001 A 
HETATM   15  C   UNL     1      44.559 -22.573   3.674  1.00  0.00     0.009 A 
HETATM   16  C   UNL     1      44.434 -21.513   2.759  1.00  0.00    -0.035 A 
HETATM   17  C   UNL     1      44.217 -21.884   1.315  1.00  0.00     0.050 C 
ENDBRANCH   7  10
ENDBRANCH   5   6
ENDBRANCH   1   5
BRANCH   1  18
HETATM   18  C   UNL     1      41.199 -15.951   0.875  1.00  0.00     0.276 C 
BRANCH  18  19
HETATM   19  C   UNL     1      40.908 -14.721   0.051  1.00  0.00    -0.003 A 
HETATM   20  C   UNL     1      41.066 -14.698  -1.355  1.00  0.00     0.069 A 
HETATM   21  C   UNL     1      40.780 -13.586  -2.146  1.00  0.00     0.012 A 
HETATM   22  N   UNL     1      41.481 -15.653  -2.257  1.00  0.00    -0.277 N 
HETATM   23  C   UNL     1      41.077 -13.986  -3.467  1.00  0.00     0.152 A 
HETATM   24  C   UNL     1      40.299 -12.414  -1.547  1.00  0.00     0.015 A 
HETATM   25  N   UNL     1      41.515 -15.243  -3.529  1.00  0.00    -0.186 NA
HETATM   26  C   UNL     1      40.107 -12.400  -0.167  1.00  0.00     0.002 A 
HETATM   27  C   UNL     1      40.398 -13.526   0.609  1.00  0.00     0.011 A 
HETATM   28  H   UNL     1      41.760 -16.611  -2.084  1.00  0.00     0.189 HD
ENDBRANCH  18  19
ENDBRANCH   1  18
TORSDOF 6
ENDMDL
MODEL 9
REMARK VINA RESULT:      -7.3      2.632      4.384
REMARK  6 active torsions:
REMARK  status: ('A' for Active; 'I' for Inactive)
REMARK    1  A    between atoms: C_2  and  N_3 
REMARK    2  A    between atoms: N_3  and  C_5 
REMARK    3  A    between atoms: N_3  and  C_17 
REMARK    4  A    between atoms: C_5  and  C_6 
REMARK       I    between atoms: C_6  and  N_7 
REMARK    5  A    between atoms: N_7  and  C_8 
REMARK    6  A    between atoms: C_17  and  C_18 
ROOT
HETATM    1  N   UNL     1      41.078 -14.110   2.518  1.00  0.00    -0.059 N 
HETATM    2  H   UNL     1      41.338 -13.127   2.369  1.00  0.00     0.280 HD
ENDROOT
BRANCH   1   3
HETATM    3  C   UNL     1      39.578 -14.149   2.779  1.00  0.00     0.231 C 
HETATM    4  C   UNL     1      38.884 -15.125   1.850  1.00  0.00     0.034 C 
ENDBRANCH   1   3
BRANCH   1   5
HETATM    5  C   UNL     1      41.929 -14.561   3.721  1.00  0.00     0.337 C 
BRANCH   5   6
HETATM    6  C   UNL     1      42.124 -16.075   3.833  1.00  0.00     0.248 C 
HETATM    7  N   UNL     1      43.424 -16.500   3.615  1.00  0.00    -0.325 N 
HETATM    8  H   UNL     1      44.064 -15.875   3.147  1.00  0.00     0.169 HD
HETATM    9  O   UNL     1      41.147 -16.801   3.991  1.00  0.00    -0.271 OA
BRANCH   7  10
HETATM   10  C   UNL     1      43.808 -17.865   3.588  1.00  0.00     0.046 A 
HETATM   11  C   UNL     1      43.903 -18.497   2.324  1.00  0.00    -0.035 A 
HETATM   12  C   UNL     1      43.544 -17.800   1.038  1.00  0.00     0.050 C 
HETATM   13  C   UNL     1      44.286 -19.845   2.256  1.00  0.00     0.009 A 
HETATM   14  C   UNL     1      44.579 -20.560   3.411  1.00  0.00     0.001 A 
HETATM   15  C   UNL     1      44.512 -19.930   4.650  1.00  0.00     0.009 A 
HETATM   16  C   UNL     1      44.154 -18.574   4.757  1.00  0.00    -0.035 A 
HETATM   17  C   UNL     1      44.214 -17.963   6.132  1.00  0.00     0.050 C 
ENDBRANCH   7  10
ENDBRANCH   5   6
ENDBRANCH   1   5
BRANCH   1  18
HETATM   18  C   UNL     1      41.433 -14.844   1.241  1.00  0.00     0.276 C 
BRANCH  18  19
HETATM   19  C   UNL     1      41.688 -13.977   0.033  1.00  0.00    -0.003 A 
HETATM   20  C   UNL     1      41.473 -14.439  -1.288  1.00  0.00     0.069 A 
HETATM   21  C   UNL     1      41.674 -13.654  -2.422  1.00  0.00     0.012 A 
HETATM   22  N   UNL     1      41.038 -15.646  -1.789  1.00  0.00    -0.277 N 
HETATM   23  C   UNL     1      41.353 -14.491  -3.513  1.00  0.00     0.152 A 
HETATM   24  C   UNL     1      42.103 -12.327  -2.281  1.00  0.00     0.015 A 
HETATM   25  N   UNL     1      40.977 -15.709  -3.123  1.00  0.00    -0.186 NA
HETATM   26  C   UNL     1      42.305 -11.825  -0.997  1.00  0.00     0.002 A 
HETATM   27  C   UNL     1      42.096 -12.628   0.128  1.00  0.00     0.011 A 
HETATM   28  H   UNL     1      40.764 -16.481  -1.286  1.00  0.00     0.189 HD
ENDBRANCH  18  19
ENDBRANCH   1  18
TORSDOF 6
ENDMDL
MODEL 10
REMARK VINA RESULT:      -7.2      2.679      5.036
REMARK  6 active torsions:
REMARK  status: ('A' for Active; 'I' for Inactive)
REMARK    1  A    between atoms: C_2  and  N_3 
REMARK    2  A    between atoms: N_3  and  C_5 
REMARK    3  A    between atoms: N_3  and  C_17 
REMARK    4  A    between atoms: C_5  and  C_6 
REMARK       I    between atoms: C_6  and  N_7 
REMARK    5  A    between atoms: N_7  and  C_8 
REMARK    6  A    between atoms: C_17  and  C_18 
ROOT
HETATM    1  N   UNL     1      43.373 -14.737   7.055  1.00  0.00    -0.059 N 
HETATM    2  H   UNL     1      42.655 -14.275   7.627  1.00  0.00     0.280 HD
ENDROOT
BRANCH   1   3
HETATM    3  C   UNL     1      42.867 -14.755   5.618  1.00  0.00     0.231 C 
HETATM    4  C   UNL     1      43.759 -13.930   4.711  1.00  0.00     0.034 C 
ENDBRANCH   1   3
BRANCH   1   5
HETATM    5  C   UNL     1      43.527 -16.139   7.675  1.00  0.00     0.337 C 
BRANCH   5   6
HETATM    6  C   UNL     1      44.231 -17.160   6.778  1.00  0.00     0.248 C 
HETATM    7  N   UNL     1      43.401 -18.151   6.282  1.00  0.00    -0.325 N 
HETATM    8  H   UNL     1      42.511 -18.304   6.731  1.00  0.00     0.169 HD
HETATM    9  O   UNL     1      45.451 -17.110   6.646  1.00  0.00    -0.271 OA
BRANCH   7  10
HETATM   10  C   UNL     1      43.862 -19.241   5.500  1.00  0.00     0.046 A 
HETATM   11  C   UNL     1      44.016 -20.492   6.144  1.00  0.00    -0.035 A 
HETATM   12  C   UNL     1      43.782 -20.682   7.619  1.00  0.00     0.050 C 
HETATM   13  C   UNL     1      44.464 -21.596   5.403  1.00  0.00     0.009 A 
HETATM   14  C   UNL     1      44.750 -21.475   4.048  1.00  0.00     0.001 A 
HETATM   15  C   UNL     1      44.571 -20.250   3.411  1.00  0.00     0.009 A 
HETATM   16  C   UNL     1      44.102 -19.127   4.115  1.00  0.00    -0.035 A 
HETATM   17  C   UNL     1      43.844 -17.881   3.310  1.00  0.00     0.050 C 
ENDBRANCH   7  10
ENDBRANCH   5   6
ENDBRANCH   1   5
BRANCH   1  18
HETATM   18  C   UNL     1      44.627 -13.897   7.184  1.00  0.00     0.276 C 
BRANCH  18  19
HETATM   19  C   UNL     1      44.577 -12.793   8.212  1.00  0.00    -0.003 A 
HETATM   20  C   UNL     1      43.493 -11.887   8.296  1.00  0.00     0.069 A 
HETATM   21  C   UNL     1      43.405 -10.875   9.251  1.00  0.00     0.012 A 
HETATM   22  N   UNL     1      42.332 -11.759   7.565  1.00  0.00    -0.277 N 
HETATM   23  C   UNL     1      42.187 -10.215   8.979  1.00  0.00     0.152 A 
HETATM   24  C   UNL     1      44.426 -10.725  10.199  1.00  0.00     0.015 A 
HETATM   25  N   UNL     1      41.542 -10.750   7.942  1.00  0.00    -0.186 NA
HETATM   26  C   UNL     1      45.502 -11.609  10.166  1.00  0.00     0.002 A 
HETATM   27  C   UNL     1      45.571 -12.620   9.202  1.00  0.00     0.011 A 
HETATM   28  H   UNL     1      42.006 -12.322   6.789  1.00  0.00     0.189 HD
ENDBRANCH  18  19
ENDBRANCH   1  18
TORSDOF 6
ENDMDL
