MODEL 1
REMARK VINA RESULT:      -8.0      0.000      0.000
REMARK  8 active torsions:
REMARK  status: ('A' for Active; 'I' for Inactive)
REMARK    1  A    between atoms: O_2  and  C_3 
REMARK    2  A    between atoms: C_4  and  O_5 
REMARK    3  A    between atoms: C_6  and  C_7 
REMARK    4  A    between atoms: C_7  and  C_8 
REMARK    5  A    between atoms: C_11  and  C_12 
REMARK    6  A    between atoms: C_12  and  N_13 
REMARK    7  A    between atoms: C_16  and  N_17 
REMARK       I    between atoms: N_17  and  C_18 
REMARK       I    between atoms: C_18  and  N_19 
REMARK    8  A    between atoms: N_19  and  C_20 
ROOT
HETATM    1  N   UNL     1      41.565 -14.925   4.247  1.00  0.00    -0.065 N 
HETATM    2  H   UNL     1      42.541 -14.962   3.920  1.00  0.00     0.280 HD
HETATM    3  C   UNL     1      41.631 -14.393   5.673  1.00  0.00     0.260 C 
HETATM    4  C   UNL     1      40.722 -13.153   5.671  1.00  0.00     0.113 C 
HETATM    5  C   UNL     1      40.863 -12.624   4.251  1.00  0.00     0.054 C 
HETATM    6  C   UNL     1      40.841 -13.890   3.416  1.00  0.00     0.237 C 
ENDROOT
BRANCH   1   7
HETATM    7  C   UNL     1      40.996 -16.309   4.099  1.00  0.00     0.273 C 
BRANCH   7   8
HETATM    8  C   UNL     1      42.004 -17.400   4.338  1.00  0.00    -0.029 A 
HETATM    9  C   UNL     1      42.665 -17.999   3.252  1.00  0.00     0.019 A 
HETATM   10  C   UNL     1      43.628 -19.000   3.455  1.00  0.00    -0.018 A 
HETATM   11  C   UNL     1      43.928 -19.373   4.766  1.00  0.00     0.105 A 
HETATM   12  C   UNL     1      43.273 -18.803   5.867  1.00  0.00     0.102 A 
HETATM   13  C   UNL     1      42.310 -17.819   5.647  1.00  0.00     0.048 A 
BRANCH  10  14
HETATM   14  C   UNL     1      44.328 -19.622   2.268  1.00  0.00     0.068 C 
BRANCH  14  15
HETATM   15  C   UNL     1      43.633 -20.867   1.792  1.00  0.00    -0.032 C 
HETATM   16  C   UNL     1      44.190 -22.084   1.760  1.00  0.00     0.007 C 
ENDBRANCH  14  15
ENDBRANCH  10  14
BRANCH  11  17
HETATM   17  O   UNL     1      44.886 -20.328   4.986  1.00  0.00    -0.357 OA
HETATM   18  H   UNL     1      44.477 -20.988   5.581  1.00  0.00     0.218 HD
ENDBRANCH  11  17
BRANCH  12  19
HETATM   19  O   UNL     1      43.675 -19.281   7.087  1.00  0.00    -0.353 OA
HETATM   20  C   UNL     1      43.987 -18.325   8.093  1.00  0.00     0.210 C 
ENDBRANCH  12  19
ENDBRANCH   7   8
ENDBRANCH   1   7
BRANCH   4  21
HETATM   21  N   UNL     1      40.974 -12.177   6.714  1.00  0.00    -0.337 N 
HETATM   22  C   UNL     1      40.013 -11.822   7.641  1.00  0.00     0.321 C 
HETATM   23  N   UNL     1      40.507 -10.904   8.535  1.00  0.00    -0.309 N 
HETATM   24  O   UNL     1      38.883 -12.289   7.595  1.00  0.00    -0.247 OA
HETATM   25  H   UNL     1      41.340 -10.410   8.251  1.00  0.00     0.170 HD
HETATM   26  H   UNL     1      41.927 -12.092   7.049  1.00  0.00     0.164 HD
BRANCH  23  27
HETATM   27  C   UNL     1      39.882 -10.430   9.706  1.00  0.00     0.036 A 
HETATM   28  C   UNL     1      40.254 -10.820  10.995  1.00  0.00     0.032 A 
HETATM   29  C   UNL     1      39.605 -10.279  12.110  1.00  0.00     0.044 A 
HETATM   30  C   UNL     1      38.586  -9.353  11.933  1.00  0.00     0.116 A 
HETATM   31  F   UNL     1      37.969  -8.836  13.002  1.00  0.00    -0.206 F 
HETATM   32  C   UNL     1      38.204  -8.952  10.661  1.00  0.00     0.044 A 
HETATM   33  C   UNL     1      38.856  -9.487   9.547  1.00  0.00     0.032 A 
ENDBRANCH  23  27
ENDBRANCH   4  21
TORSDOF 8
ENDMDL
MODEL 2
REMARK VINA RESULT:      -7.9      3.502      4.498
REMARK  8 active torsions:
REMARK  status: ('A' for Active; 'I' for Inactive)
REMARK    1  A    between atoms: O_2  and  C_3 
REMARK    2  A    between atoms: C_4  and  O_5 
REMARK    3  A    between atoms: C_6  and  C_7 
REMARK    4  A    between atoms: C_7  and  C_8 
REMARK    5  A    between atoms: C_11  and  C_12 
REMARK    6  A    between atoms: C_12  and  N_13 
REMARK    7  A    between atoms: C_16  and  N_17 
REMARK       I    between atoms: N_17  and  C_18 
REMARK       I    between atoms: C_18  and  N_19 
REMARK    8  A    between atoms: N_19  and  C_20 
ROOT
HETATM    1  N   UNL     1      43.862 -14.188   5.361  1.00  0.00    -0.065 N 
HETATM    2  H   UNL     1      43.776 -15.212   5.285  1.00  0.00     0.280 HD
HETATM    3  C   UNL     1      43.196 -13.819   6.681  1.00  0.00     0.260 C 
HETATM    4  C   UNL     1      44.276 -13.057   7.465  1.00  0.00     0.113 C 
HETATM    5  C   UNL     1      45.570 -13.697   6.983  1.00  0.00     0.054 C 
HETATM    6  C   UNL     1      45.332 -13.858   5.494  1.00  0.00     0.237 C 
ENDROOT
BRANCH   1   7
HETATM    7  C   UNL     1      43.231 -13.598   4.131  1.00  0.00     0.273 C 
BRANCH   7   8
HETATM    8  C   UNL     1      42.593 -14.625   3.234  1.00  0.00    -0.029 A 
HETATM    9  C   UNL     1      43.377 -15.629   2.643  1.00  0.00     0.019 A 
HETATM   10  C   UNL     1      42.798 -16.613   1.825  1.00  0.00    -0.018 A 
HETATM   11  C   UNL     1      41.416 -16.578   1.628  1.00  0.00     0.105 A 
HETATM   12  C   UNL     1      40.612 -15.579   2.194  1.00  0.00     0.102 A 
HETATM   13  C   UNL     1      41.205 -14.603   2.994  1.00  0.00     0.048 A 
BRANCH  10  14
HETATM   14  C   UNL     1      43.666 -17.685   1.208  1.00  0.00     0.068 C 
BRANCH  14  15
HETATM   15  C   UNL     1      43.900 -18.833   2.151  1.00  0.00    -0.032 C 
HETATM   16  C   UNL     1      43.473 -20.085   1.945  1.00  0.00     0.007 C 
ENDBRANCH  14  15
ENDBRANCH  10  14
BRANCH  11  17
HETATM   17  O   UNL     1      40.827 -17.545   0.857  1.00  0.00    -0.357 OA
HETATM   18  H   UNL     1      40.163 -17.085   0.307  1.00  0.00     0.218 HD
ENDBRANCH  11  17
BRANCH  12  19
HETATM   19  O   UNL     1      39.277 -15.680   1.901  1.00  0.00    -0.353 OA
HETATM   20  C   UNL     1      38.618 -14.507   1.439  1.00  0.00     0.210 C 
ENDBRANCH  12  19
ENDBRANCH   7   8
ENDBRANCH   1   7
BRANCH   4  21
HETATM   21  N   UNL     1      44.112 -13.023   8.906  1.00  0.00    -0.337 N 
HETATM   22  C   UNL     1      43.737 -11.876   9.580  1.00  0.00     0.321 C 
HETATM   23  N   UNL     1      43.624 -12.112  10.928  1.00  0.00    -0.309 N 
HETATM   24  O   UNL     1      43.568 -10.819   8.988  1.00  0.00    -0.247 OA
HETATM   25  H   UNL     1      44.086 -12.940  11.275  1.00  0.00     0.170 HD
HETATM   26  H   UNL     1      43.831 -13.884   9.361  1.00  0.00     0.164 HD
BRANCH  23  27
HETATM   27  C   UNL     1      43.115 -11.237  11.908  1.00  0.00     0.036 A 
HETATM   28  C   UNL     1      43.828 -10.150  12.422  1.00  0.00     0.032 A 
HETATM   29  C   UNL     1      43.240  -9.308  13.372  1.00  0.00     0.044 A 
HETATM   30  C   UNL     1      41.945  -9.555  13.807  1.00  0.00     0.116 A 
HETATM   31  F   UNL     1      41.386  -8.747  14.714  1.00  0.00    -0.206 F 
HETATM   32  C   UNL     1      41.221 -10.629  13.307  1.00  0.00     0.044 A 
HETATM   33  C   UNL     1      41.805 -11.467  12.354  1.00  0.00     0.032 A 
ENDBRANCH  23  27
ENDBRANCH   4  21
TORSDOF 8
ENDMDL
MODEL 3
REMARK VINA RESULT:      -7.9      6.080     10.399
REMARK  8 active torsions:
REMARK  status: ('A' for Active; 'I' for Inactive)
REMARK    1  A    between atoms: O_2  and  C_3 
REMARK    2  A    between atoms: C_4  and  O_5 
REMARK    3  A    between atoms: C_6  and  C_7 
REMARK    4  A    between atoms: C_7  and  C_8 
REMARK    5  A    between atoms: C_11  and  C_12 
REMARK    6  A    between atoms: C_12  and  N_13 
REMARK    7  A    between atoms: C_16  and  N_17 
REMARK       I    between atoms: N_17  and  C_18 
REMARK       I    between atoms: C_18  and  N_19 
REMARK    8  A    between atoms: N_19  and  C_20 
ROOT
HETATM    1  N   UNL     1      42.028 -12.976   2.217  1.00  0.00    -0.065 N 
HETATM    2  H   UNL     1      42.774 -12.331   1.917  1.00  0.00     0.280 HD
HETATM    3  C   UNL     1      42.673 -14.356   2.257  1.00  0.00     0.260 C 
HETATM    4  C   UNL     1      42.434 -14.859   3.689  1.00  0.00     0.113 C 
HETATM    5  C   UNL     1      42.435 -13.577   4.510  1.00  0.00     0.054 C 
HETATM    6  C   UNL     1      41.653 -12.616   3.637  1.00  0.00     0.237 C 
ENDROOT
BRANCH   1   7
HETATM    7  C   UNL     1      40.891 -12.821   1.245  1.00  0.00     0.273 C 
BRANCH   7   8
HETATM    8  C   UNL     1      41.338 -12.716  -0.188  1.00  0.00    -0.029 A 
HETATM    9  C   UNL     1      41.968 -11.547  -0.646  1.00  0.00     0.019 A 
HETATM   10  C   UNL     1      42.417 -11.438  -1.972  1.00  0.00    -0.018 A 
HETATM   11  C   UNL     1      42.238 -12.531  -2.822  1.00  0.00     0.105 A 
HETATM   12  C   UNL     1      41.599 -13.704  -2.395  1.00  0.00     0.102 A 
HETATM   13  C   UNL     1      41.149 -13.790  -1.078  1.00  0.00     0.048 A 
BRANCH  10  14
HETATM   14  C   UNL     1      43.097 -10.170  -2.434  1.00  0.00     0.068 C 
BRANCH  14  15
HETATM   15  C   UNL     1      43.946  -9.559  -1.354  1.00  0.00    -0.032 C 
HETATM   16  C   UNL     1      43.983  -8.253  -1.063  1.00  0.00     0.007 C 
ENDBRANCH  14  15
ENDBRANCH  10  14
BRANCH  11  17
HETATM   17  O   UNL     1      42.694 -12.456  -4.111  1.00  0.00    -0.357 OA
HETATM   18  H   UNL     1      43.580 -12.047  -4.060  1.00  0.00     0.218 HD
ENDBRANCH  11  17
BRANCH  12  19
HETATM   19  O   UNL     1      41.495 -14.682  -3.349  1.00  0.00    -0.353 OA
HETATM   20  C   UNL     1      40.421 -15.606  -3.224  1.00  0.00     0.210 C 
ENDBRANCH  12  19
ENDBRANCH   7   8
ENDBRANCH   1   7
BRANCH   4  21
HETATM   21  N   UNL     1      43.340 -15.888   4.163  1.00  0.00    -0.337 N 
HETATM   22  C   UNL     1      43.123 -17.231   3.921  1.00  0.00     0.321 C 
HETATM   23  N   UNL     1      44.135 -17.995   4.447  1.00  0.00    -0.309 N 
HETATM   24  O   UNL     1      42.124 -17.616   3.328  1.00  0.00    -0.247 OA
HETATM   25  H   UNL     1      44.707 -17.553   5.152  1.00  0.00     0.170 HD
HETATM   26  H   UNL     1      44.316 -15.635   4.263  1.00  0.00     0.164 HD
BRANCH  23  27
HETATM   27  C   UNL     1      44.344 -19.378   4.267  1.00  0.00     0.036 A 
HETATM   28  C   UNL     1      44.537 -20.275   5.321  1.00  0.00     0.032 A 
HETATM   29  C   UNL     1      44.707 -21.639   5.063  1.00  0.00     0.044 A 
HETATM   30  C   UNL     1      44.683 -22.102   3.755  1.00  0.00     0.116 A 
HETATM   31  F   UNL     1      44.843 -23.408   3.512  1.00  0.00    -0.206 F 
HETATM   32  C   UNL     1      44.491 -21.227   2.695  1.00  0.00     0.044 A 
HETATM   33  C   UNL     1      44.316 -19.864   2.952  1.00  0.00     0.032 A 
ENDBRANCH  23  27
ENDBRANCH   4  21
TORSDOF 8
ENDMDL
MODEL 4
REMARK VINA RESULT:      -7.8      5.275      9.469
REMARK  8 active torsions:
REMARK  status: ('A' for Active; 'I' for Inactive)
REMARK    1  A    between atoms: O_2  and  C_3 
REMARK    2  A    between atoms: C_4  and  O_5 
REMARK    3  A    between atoms: C_6  and  C_7 
REMARK    4  A    between atoms: C_7  and  C_8 
REMARK    5  A    between atoms: C_11  and  C_12 
REMARK    6  A    between atoms: C_12  and  N_13 
REMARK    7  A    between atoms: C_16  and  N_17 
REMARK       I    between atoms: N_17  and  C_18 
REMARK       I    between atoms: C_18  and  N_19 
REMARK    8  A    between atoms: N_19  and  C_20 
ROOT
HETATM    1  N   UNL     1      42.119 -12.344   3.796  1.00  0.00    -0.065 N 
HETATM    2  H   UNL     1      42.813 -11.597   3.945  1.00  0.00     0.280 HD
HETATM    3  C   UNL     1      42.927 -13.588   3.446  1.00  0.00     0.260 C 
HETATM    4  C   UNL     1      42.494 -14.640   4.479  1.00  0.00     0.113 C 
HETATM    5  C   UNL     1      42.167 -13.803   5.708  1.00  0.00     0.054 C 
HETATM    6  C   UNL     1      41.439 -12.610   5.120  1.00  0.00     0.237 C 
ENDROOT
BRANCH   1   7
HETATM    7  C   UNL     1      41.174 -11.865   2.729  1.00  0.00     0.273 C 
BRANCH   7   8
HETATM    8  C   UNL     1      41.527 -12.356   1.351  1.00  0.00    -0.029 A 
HETATM    9  C   UNL     1      41.189 -13.661   0.960  1.00  0.00     0.019 A 
HETATM   10  C   UNL     1      41.484 -14.131  -0.330  1.00  0.00    -0.018 A 
HETATM   11  C   UNL     1      42.108 -13.258  -1.223  1.00  0.00     0.105 A 
HETATM   12  C   UNL     1      42.470 -11.955  -0.855  1.00  0.00     0.102 A 
HETATM   13  C   UNL     1      42.180 -11.509   0.434  1.00  0.00     0.048 A 
BRANCH  10  14
HETATM   14  C   UNL     1      41.101 -15.539  -0.724  1.00  0.00     0.068 C 
BRANCH  14  15
HETATM   15  C   UNL     1      41.498 -16.544   0.321  1.00  0.00    -0.032 C 
HETATM   16  C   UNL     1      42.760 -16.830   0.661  1.00  0.00     0.007 C 
ENDBRANCH  14  15
ENDBRANCH  10  14
BRANCH  11  17
HETATM   17  O   UNL     1      42.379 -13.687  -2.496  1.00  0.00    -0.357 OA
HETATM   18  H   UNL     1      42.917 -12.982  -2.909  1.00  0.00     0.218 HD
ENDBRANCH  11  17
BRANCH  12  19
HETATM   19  O   UNL     1      43.081 -11.226  -1.842  1.00  0.00    -0.353 OA
HETATM   20  C   UNL     1      43.660  -9.981  -1.472  1.00  0.00     0.210 C 
ENDBRANCH  12  19
ENDBRANCH   7   8
ENDBRANCH   1   7
BRANCH   4  21
HETATM   21  N   UNL     1      43.426 -15.727   4.711  1.00  0.00    -0.337 N 
HETATM   22  C   UNL     1      43.125 -17.037   4.395  1.00  0.00     0.321 C 
HETATM   23  N   UNL     1      44.180 -17.868   4.683  1.00  0.00    -0.309 N 
HETATM   24  O   UNL     1      42.031 -17.346   3.941  1.00  0.00    -0.247 OA
HETATM   25  H   UNL     1      44.872 -17.503   5.321  1.00  0.00     0.170 HD
HETATM   26  H   UNL     1      44.414 -15.505   4.673  1.00  0.00     0.164 HD
BRANCH  23  27
HETATM   27  C   UNL     1      44.307 -19.233   4.356  1.00  0.00     0.036 A 
HETATM   28  C   UNL     1      44.238 -19.726   3.050  1.00  0.00     0.032 A 
HETATM   29  C   UNL     1      44.406 -21.092   2.803  1.00  0.00     0.044 A 
HETATM   30  C   UNL     1      44.640 -21.961   3.860  1.00  0.00     0.116 A 
HETATM   31  F   UNL     1      44.803 -23.268   3.620  1.00  0.00    -0.206 F 
HETATM   32  C   UNL     1      44.714 -21.490   5.163  1.00  0.00     0.044 A 
HETATM   33  C   UNL     1      44.552 -20.125   5.411  1.00  0.00     0.032 A 
ENDBRANCH  23  27
ENDBRANCH   4  21
TORSDOF 8
ENDMDL
MODEL 5
REMARK VINA RESULT:      -7.8      5.609      9.294
REMARK  8 active torsions:
REMARK  status: ('A' for Active; 'I' for Inactive)
REMARK    1  A    between atoms: O_2  and  C_3 
REMARK    2  A    between atoms: C_4  and  O_5 
REMARK    3  A    between atoms: C_6  and  C_7 
REMARK    4  A    between atoms: C_7  and  C_8 
REMARK    5  A    between atoms: C_11  and  C_12 
REMARK    6  A    between atoms: C_12  and  N_13 
REMARK    7  A    between atoms: C_16  and  N_17 
REMARK       I    between atoms: N_17  and  C_18 
REMARK       I    between atoms: C_18  and  N_19 
REMARK    8  A    between atoms: N_19  and  C_20 
ROOT
HETATM    1  N   UNL     1      40.476 -13.105   2.825  1.00  0.00    -0.065 N 
HETATM    2  H   UNL     1      41.013 -12.225   2.852  1.00  0.00     0.280 HD
HETATM    3  C   UNL     1      41.499 -14.215   3.029  1.00  0.00     0.260 C 
HETATM    4  C   UNL     1      40.986 -15.000   4.247  1.00  0.00     0.113 C 
HETATM    5  C   UNL     1      40.283 -13.934   5.074  1.00  0.00     0.054 C 
HETATM    6  C   UNL     1      39.555 -13.118   4.025  1.00  0.00     0.237 C 
ENDROOT
BRANCH   1   7
HETATM    7  C   UNL     1      39.742 -13.134   1.513  1.00  0.00     0.273 C 
BRANCH   7   8
HETATM    8  C   UNL     1      40.653 -13.191   0.317  1.00  0.00    -0.029 A 
HETATM    9  C   UNL     1      40.488 -14.198  -0.648  1.00  0.00     0.019 A 
HETATM   10  C   UNL     1      41.310 -14.253  -1.785  1.00  0.00    -0.018 A 
HETATM   11  C   UNL     1      42.287 -13.268  -1.942  1.00  0.00     0.105 A 
HETATM   12  C   UNL     1      42.483 -12.260  -0.988  1.00  0.00     0.102 A 
HETATM   13  C   UNL     1      41.665 -12.228   0.141  1.00  0.00     0.048 A 
BRANCH  10  14
HETATM   14  C   UNL     1      41.104 -15.344  -2.811  1.00  0.00     0.068 C 
BRANCH  14  15
HETATM   15  C   UNL     1      39.844 -15.140  -3.606  1.00  0.00    -0.032 C 
HETATM   16  C   UNL     1      39.018 -16.122  -3.987  1.00  0.00     0.007 C 
ENDBRANCH  14  15
ENDBRANCH  10  14
BRANCH  11  17
HETATM   17  O   UNL     1      43.080 -13.287  -3.059  1.00  0.00    -0.357 OA
HETATM   18  H   UNL     1      42.518 -13.626  -3.783  1.00  0.00     0.218 HD
ENDBRANCH  11  17
BRANCH  12  19
HETATM   19  O   UNL     1      43.485 -11.374  -1.284  1.00  0.00    -0.353 OA
HETATM   20  C   UNL     1      43.167  -9.988  -1.238  1.00  0.00     0.210 C 
ENDBRANCH  12  19
ENDBRANCH   7   8
ENDBRANCH   1   7
BRANCH   4  21
HETATM   21  N   UNL     1      41.977 -15.777   4.967  1.00  0.00    -0.337 N 
HETATM   22  C   UNL     1      42.117 -17.141   4.792  1.00  0.00     0.321 C 
HETATM   23  N   UNL     1      43.140 -17.634   5.563  1.00  0.00    -0.309 N 
HETATM   24  O   UNL     1      41.374 -17.764   4.046  1.00  0.00    -0.247 OA
HETATM   25  H   UNL     1      43.440 -17.050   6.330  1.00  0.00     0.170 HD
HETATM   26  H   UNL     1      42.831 -15.303   5.237  1.00  0.00     0.164 HD
BRANCH  23  27
HETATM   27  C   UNL     1      43.681 -18.935   5.536  1.00  0.00     0.036 A 
HETATM   28  C   UNL     1      43.552 -19.850   6.585  1.00  0.00     0.032 A 
HETATM   29  C   UNL     1      44.090 -21.135   6.469  1.00  0.00     0.044 A 
HETATM   30  C   UNL     1      44.756 -21.502   5.307  1.00  0.00     0.116 A 
HETATM   31  F   UNL     1      45.268 -22.734   5.199  1.00  0.00    -0.206 F 
HETATM   32  C   UNL     1      44.893 -20.609   4.254  1.00  0.00     0.044 A 
HETATM   33  C   UNL     1      44.351 -19.326   4.367  1.00  0.00     0.032 A 
ENDBRANCH  23  27
ENDBRANCH   4  21
TORSDOF 8
ENDMDL
MODEL 6
REMARK VINA RESULT:      -7.7      6.134      8.781
REMARK  8 active torsions:
REMARK  status: ('A' for Active; 'I' for Inactive)
REMARK    1  A    between atoms: O_2  and  C_3 
REMARK    2  A    between atoms: C_4  and  O_5 
REMARK    3  A    between atoms: C_6  and  C_7 
REMARK    4  A    between atoms: C_7  and  C_8 
REMARK    5  A    between atoms: C_11  and  C_12 
REMARK    6  A    between atoms: C_12  and  N_13 
REMARK    7  A    between atoms: C_16  and  N_17 
REMARK       I    between atoms: N_17  and  C_18 
REMARK       I    between atoms: C_18  and  N_19 
REMARK    8  A    between atoms: N_19  and  C_20 
ROOT
HETATM    1  N   UNL     1      42.280 -15.384   2.702  1.00  0.00    -0.065 N 
HETATM    2  H   UNL     1      41.938 -15.409   3.674  1.00  0.00     0.280 HD
HETATM    3  C   UNL     1      41.110 -15.850   1.845  1.00  0.00     0.260 C 
HETATM    4  C   UNL     1      40.884 -14.713   0.837  1.00  0.00     0.113 C 
HETATM    5  C   UNL     1      41.302 -13.474   1.615  1.00  0.00     0.054 C 
HETATM    6  C   UNL     1      42.546 -13.938   2.346  1.00  0.00     0.237 C 
ENDROOT
BRANCH   1   7
HETATM    7  C   UNL     1      43.510 -16.245   2.642  1.00  0.00     0.273 C 
BRANCH   7   8
HETATM    8  C   UNL     1      43.533 -17.331   3.685  1.00  0.00    -0.029 A 
HETATM    9  C   UNL     1      44.058 -18.596   3.374  1.00  0.00     0.019 A 
HETATM   10  C   UNL     1      44.113 -19.614   4.339  1.00  0.00    -0.018 A 
HETATM   11  C   UNL     1      43.649 -19.331   5.625  1.00  0.00     0.105 A 
HETATM   12  C   UNL     1      43.107 -18.082   5.959  1.00  0.00     0.102 A 
HETATM   13  C   UNL     1      43.049 -17.086   4.984  1.00  0.00     0.048 A 
BRANCH  10  14
HETATM   14  C   UNL     1      44.690 -20.964   3.977  1.00  0.00     0.068 C 
BRANCH  14  15
HETATM   15  C   UNL     1      44.758 -21.166   2.489  1.00  0.00    -0.032 C 
HETATM   16  C   UNL     1      43.892 -21.902   1.781  1.00  0.00     0.007 C 
ENDBRANCH  14  15
ENDBRANCH  10  14
BRANCH  11  17
HETATM   17  O   UNL     1      43.721 -20.301   6.589  1.00  0.00    -0.357 OA
HETATM   18  H   UNL     1      43.339 -21.107   6.189  1.00  0.00     0.218 HD
ENDBRANCH  11  17
BRANCH  12  19
HETATM   19  O   UNL     1      42.690 -17.964   7.259  1.00  0.00    -0.353 OA
HETATM   20  C   UNL     1      43.417 -17.078   8.102  1.00  0.00     0.210 C 
ENDBRANCH  12  19
ENDBRANCH   7   8
ENDBRANCH   1   7
BRANCH   4  21
HETATM   21  N   UNL     1      39.563 -14.643   0.240  1.00  0.00    -0.337 N 
HETATM   22  C   UNL     1      39.346 -14.095  -1.009  1.00  0.00     0.321 C 
HETATM   23  N   UNL     1      38.020 -14.175  -1.358  1.00  0.00    -0.309 N 
HETATM   24  O   UNL     1      40.261 -13.602  -1.654  1.00  0.00    -0.247 OA
HETATM   25  H   UNL     1      37.370 -14.329  -0.601  1.00  0.00     0.170 HD
HETATM   26  H   UNL     1      38.899 -15.362   0.501  1.00  0.00     0.164 HD
BRANCH  23  27
HETATM   27  C   UNL     1      37.445 -13.869  -2.608  1.00  0.00     0.036 A 
HETATM   28  C   UNL     1      37.099 -14.834  -3.557  1.00  0.00     0.032 A 
HETATM   29  C   UNL     1      36.502 -14.453  -4.764  1.00  0.00     0.044 A 
HETATM   30  C   UNL     1      36.255 -13.110  -5.017  1.00  0.00     0.116 A 
HETATM   31  F   UNL     1      35.681 -12.749  -6.171  1.00  0.00    -0.206 F 
HETATM   32  C   UNL     1      36.590 -12.138  -4.086  1.00  0.00     0.044 A 
HETATM   33  C   UNL     1      37.182 -12.518  -2.878  1.00  0.00     0.032 A 
ENDBRANCH  23  27
ENDBRANCH   4  21
TORSDOF 8
ENDMDL
MODEL 7
REMARK VINA RESULT:      -7.7      6.424      9.507
REMARK  8 active torsions:
REMARK  status: ('A' for Active; 'I' for Inactive)
REMARK    1  A    between atoms: O_2  and  C_3 
REMARK    2  A    between atoms: C_4  and  O_5 
REMARK    3  A    between atoms: C_6  and  C_7 
REMARK    4  A    between atoms: C_7  and  C_8 
REMARK    5  A    between atoms: C_11  and  C_12 
REMARK    6  A    between atoms: C_12  and  N_13 
REMARK    7  A    between atoms: C_16  and  N_17 
REMARK       I    between atoms: N_17  and  C_18 
REMARK       I    between atoms: C_18  and  N_19 
REMARK    8  A    between atoms: N_19  and  C_20 
ROOT
HETATM    1  N   UNL     1      38.139 -12.142   0.824  1.00  0.00    -0.065 N 
HETATM    2  H   UNL     1      37.622 -11.572   1.510  1.00  0.00     0.280 HD
HETATM    3  C   UNL     1      39.136 -12.957   1.637  1.00  0.00     0.260 C 
HETATM    4  C   UNL     1      38.840 -14.420   1.270  1.00  0.00     0.113 C 
HETATM    5  C   UNL     1      37.345 -14.408   0.983  1.00  0.00     0.054 C 
HETATM    6  C   UNL     1      37.161 -13.118   0.207  1.00  0.00     0.237 C 
ENDROOT
BRANCH   1   7
HETATM    7  C   UNL     1      38.740 -11.194  -0.176  1.00  0.00     0.273 C 
BRANCH   7   8
HETATM    8  C   UNL     1      39.954 -11.748  -0.873  1.00  0.00    -0.029 A 
HETATM    9  C   UNL     1      39.816 -12.784  -1.811  1.00  0.00     0.019 A 
HETATM   10  C   UNL     1      40.932 -13.297  -2.492  1.00  0.00    -0.018 A 
HETATM   11  C   UNL     1      42.183 -12.737  -2.226  1.00  0.00     0.105 A 
HETATM   12  C   UNL     1      42.351 -11.713  -1.284  1.00  0.00     0.102 A 
HETATM   13  C   UNL     1      41.233 -11.224  -0.608  1.00  0.00     0.048 A 
BRANCH  10  14
HETATM   14  C   UNL     1      40.752 -14.407  -3.502  1.00  0.00     0.068 C 
BRANCH  14  15
HETATM   15  C   UNL     1      39.381 -15.019  -3.429  1.00  0.00    -0.032 C 
HETATM   16  C   UNL     1      38.979 -16.074  -4.148  1.00  0.00     0.007 C 
ENDBRANCH  14  15
ENDBRANCH  10  14
BRANCH  11  17
HETATM   17  O   UNL     1      43.280 -13.204  -2.900  1.00  0.00    -0.357 OA
HETATM   18  H   UNL     1      43.645 -13.928  -2.354  1.00  0.00     0.218 HD
ENDBRANCH  11  17
BRANCH  12  19
HETATM   19  O   UNL     1      43.641 -11.275  -1.132  1.00  0.00    -0.353 OA
HETATM   20  C   UNL     1      43.868  -9.873  -1.199  1.00  0.00     0.210 C 
ENDBRANCH  12  19
ENDBRANCH   7   8
ENDBRANCH   1   7
BRANCH   4  21
HETATM   21  N   UNL     1      39.269 -15.418   2.231  1.00  0.00    -0.337 N 
HETATM   22  C   UNL     1      40.455 -16.112   2.094  1.00  0.00     0.321 C 
HETATM   23  N   UNL     1      40.645 -16.975   3.146  1.00  0.00    -0.309 N 
HETATM   24  O   UNL     1      41.182 -15.944   1.124  1.00  0.00    -0.247 OA
HETATM   25  H   UNL     1      39.823 -17.205   3.686  1.00  0.00     0.170 HD
HETATM   26  H   UNL     1      38.964 -15.298   3.190  1.00  0.00     0.164 HD
BRANCH  23  27
HETATM   27  C   UNL     1      41.800 -17.728   3.436  1.00  0.00     0.036 A 
HETATM   28  C   UNL     1      42.547 -18.403   2.467  1.00  0.00     0.032 A 
HETATM   29  C   UNL     1      43.702 -19.105   2.831  1.00  0.00     0.044 A 
HETATM   30  C   UNL     1      44.104 -19.131   4.159  1.00  0.00     0.116 A 
HETATM   31  F   UNL     1      45.210 -19.801   4.504  1.00  0.00    -0.206 F 
HETATM   32  C   UNL     1      43.375 -18.465   5.135  1.00  0.00     0.044 A 
HETATM   33  C   UNL     1      42.225 -17.760   4.772  1.00  0.00     0.032 A 
ENDBRANCH  23  27
ENDBRANCH   4  21
TORSDOF 8
ENDMDL
MODEL 8
REMARK VINA RESULT:      -7.7      6.612      8.809
REMARK  8 active torsions:
REMARK  status: ('A' for Active; 'I' for Inactive)
REMARK    1  A    between atoms: O_2  and  C_3 
REMARK    2  A    between atoms: C_4  and  O_5 
REMARK    3  A    between atoms: C_6  and  C_7 
REMARK    4  A    between atoms: C_7  and  C_8 
REMARK    5  A    between atoms: C_11  and  C_12 
REMARK    6  A    between atoms: C_12  and  N_13 
REMARK    7  A    between atoms: C_16  and  N_17 
REMARK       I    between atoms: N_17  and  C_18 
REMARK       I    between atoms: C_18  and  N_19 
REMARK    8  A    between atoms: N_19  and  C_20 
ROOT
HETATM    1  N   UNL     1      41.903 -16.636   2.555  1.00  0.00    -0.065 N 
HETATM    2  H   UNL     1      41.696 -17.642   2.465  1.00  0.00     0.280 HD
HETATM    3  C   UNL     1      42.474 -16.214   1.207  1.00  0.00     0.260 C 
HETATM    4  C   UNL     1      41.572 -15.060   0.744  1.00  0.00     0.113 C 
HETATM    5  C   UNL     1      40.220 -15.414   1.347  1.00  0.00     0.054 C 
HETATM    6  C   UNL     1      40.588 -15.910   2.731  1.00  0.00     0.237 C 
ENDROOT
BRANCH   1   7
HETATM    7  C   UNL     1      42.830 -16.479   3.728  1.00  0.00     0.273 C 
BRANCH   7   8
HETATM    8  C   UNL     1      43.329 -17.788   4.278  1.00  0.00    -0.029 A 
HETATM    9  C   UNL     1      43.979 -18.704   3.434  1.00  0.00     0.019 A 
HETATM   10  C   UNL     1      44.477 -19.919   3.932  1.00  0.00    -0.018 A 
HETATM   11  C   UNL     1      44.326 -20.186   5.294  1.00  0.00     0.105 A 
HETATM   12  C   UNL     1      43.668 -19.297   6.155  1.00  0.00     0.102 A 
HETATM   13  C   UNL     1      43.170 -18.100   5.641  1.00  0.00     0.048 A 
BRANCH  10  14
HETATM   14  C   UNL     1      45.178 -20.882   3.002  1.00  0.00     0.068 C 
BRANCH  14  15
HETATM   15  C   UNL     1      44.254 -21.960   2.507  1.00  0.00    -0.032 C 
HETATM   16  C   UNL     1      43.559 -21.901   1.364  1.00  0.00     0.007 C 
ENDBRANCH  14  15
ENDBRANCH  10  14
BRANCH  11  17
HETATM   17  O   UNL     1      44.830 -21.353   5.805  1.00  0.00    -0.357 OA
HETATM   18  H   UNL     1      44.975 -21.942   5.038  1.00  0.00     0.218 HD
ENDBRANCH  11  17
BRANCH  12  19
HETATM   19  O   UNL     1      43.596 -19.706   7.461  1.00  0.00    -0.353 OA
HETATM   20  C   UNL     1      44.246 -18.901   8.436  1.00  0.00     0.210 C 
ENDBRANCH  12  19
ENDBRANCH   7   8
ENDBRANCH   1   7
BRANCH   4  21
HETATM   21  N   UNL     1      41.554 -14.798  -0.683  1.00  0.00    -0.337 N 
HETATM   22  C   UNL     1      41.258 -13.552  -1.202  1.00  0.00     0.321 C 
HETATM   23  N   UNL     1      41.336 -13.558  -2.573  1.00  0.00    -0.309 N 
HETATM   24  O   UNL     1      40.953 -12.617  -0.473  1.00  0.00    -0.247 OA
HETATM   25  H   UNL     1      41.300 -14.464  -3.016  1.00  0.00     0.170 HD
HETATM   26  H   UNL     1      42.170 -15.355  -1.264  1.00  0.00     0.164 HD
BRANCH  23  27
HETATM   27  C   UNL     1      41.258 -12.448  -3.438  1.00  0.00     0.036 A 
HETATM   28  C   UNL     1      40.054 -11.899  -3.886  1.00  0.00     0.032 A 
HETATM   29  C   UNL     1      40.059 -10.776  -4.720  1.00  0.00     0.044 A 
HETATM   30  C   UNL     1      41.265 -10.207  -5.105  1.00  0.00     0.116 A 
HETATM   31  F   UNL     1      41.267  -9.132  -5.901  1.00  0.00    -0.206 F 
HETATM   32  C   UNL     1      42.471 -10.738  -4.669  1.00  0.00     0.044 A 
HETATM   33  C   UNL     1      42.468 -11.857  -3.831  1.00  0.00     0.032 A 
ENDBRANCH  23  27
ENDBRANCH   4  21
TORSDOF 8
ENDMDL
MODEL 9
REMARK VINA RESULT:      -7.6      5.561      8.267
REMARK  8 active torsions:
REMARK  status: ('A' for Active; 'I' for Inactive)
REMARK    1  A    between atoms: O_2  and  C_3 
REMARK    2  A    between atoms: C_4  and  O_5 
REMARK    3  A    between atoms: C_6  and  C_7 
REMARK    4  A    between atoms: C_7  and  C_8 
REMARK    5  A    between atoms: C_11  and  C_12 
REMARK    6  A    between atoms: C_12  and  N_13 
REMARK    7  A    between atoms: C_16  and  N_17 
REMARK       I    between atoms: N_17  and  C_18 
REMARK       I    between atoms: C_18  and  N_19 
REMARK    8  A    between atoms: N_19  and  C_20 
ROOT
HETATM    1  N   UNL     1      41.575 -14.477   5.128  1.00  0.00    -0.065 N 
HETATM    2  H   UNL     1      41.170 -13.651   5.592  1.00  0.00     0.280 HD
HETATM    3  C   UNL     1      40.953 -14.511   3.737  1.00  0.00     0.260 C 
HETATM    4  C   UNL     1      42.150 -14.512   2.773  1.00  0.00     0.113 C 
HETATM    5  C   UNL     1      43.204 -13.717   3.529  1.00  0.00     0.054 C 
HETATM    6  C   UNL     1      43.056 -14.226   4.950  1.00  0.00     0.237 C 
ENDROOT
BRANCH   1   7
HETATM    7  C   UNL     1      41.275 -15.665   5.999  1.00  0.00     0.273 C 
BRANCH   7   8
HETATM    8  C   UNL     1      42.218 -16.818   5.786  1.00  0.00    -0.029 A 
HETATM    9  C   UNL     1      42.272 -17.463   4.539  1.00  0.00     0.019 A 
HETATM   10  C   UNL     1      43.164 -18.523   4.310  1.00  0.00    -0.018 A 
HETATM   11  C   UNL     1      44.012 -18.909   5.350  1.00  0.00     0.105 A 
HETATM   12  C   UNL     1      43.969 -18.293   6.608  1.00  0.00     0.102 A 
HETATM   13  C   UNL     1      43.069 -17.249   6.822  1.00  0.00     0.048 A 
BRANCH  10  14
HETATM   14  C   UNL     1      43.204 -19.194   2.956  1.00  0.00     0.068 C 
BRANCH  14  15
HETATM   15  C   UNL     1      43.137 -18.198   1.832  1.00  0.00    -0.032 C 
HETATM   16  C   UNL     1      44.166 -17.449   1.418  1.00  0.00     0.007 C 
ENDBRANCH  14  15
ENDBRANCH  10  14
BRANCH  11  17
HETATM   17  O   UNL     1      44.910 -19.922   5.138  1.00  0.00    -0.357 OA
HETATM   18  H   UNL     1      44.386 -20.748   5.126  1.00  0.00     0.218 HD
ENDBRANCH  11  17
BRANCH  12  19
HETATM   19  O   UNL     1      44.860 -18.789   7.524  1.00  0.00    -0.353 OA
HETATM   20  C   UNL     1      44.437 -18.854   8.880  1.00  0.00     0.210 C 
ENDBRANCH  12  19
ENDBRANCH   7   8
ENDBRANCH   1   7
BRANCH   4  21
HETATM   21  N   UNL     1      41.883 -14.045   1.426  1.00  0.00    -0.337 N 
HETATM   22  C   UNL     1      41.160 -14.791   0.515  1.00  0.00     0.321 C 
HETATM   23  N   UNL     1      41.022 -14.118  -0.674  1.00  0.00    -0.309 N 
HETATM   24  O   UNL     1      40.746 -15.908   0.795  1.00  0.00    -0.247 OA
HETATM   25  H   UNL     1      41.670 -13.360  -0.833  1.00  0.00     0.170 HD
HETATM   26  H   UNL     1      41.819 -13.043   1.287  1.00  0.00     0.164 HD
BRANCH  23  27
HETATM   27  C   UNL     1      40.224 -14.484  -1.776  1.00  0.00     0.036 A 
HETATM   28  C   UNL     1      40.600 -15.446  -2.719  1.00  0.00     0.032 A 
HETATM   29  C   UNL     1      39.737 -15.777  -3.769  1.00  0.00     0.044 A 
HETATM   30  C   UNL     1      38.505 -15.147  -3.875  1.00  0.00     0.116 A 
HETATM   31  F   UNL     1      37.681 -15.468  -4.880  1.00  0.00    -0.206 F 
HETATM   32  C   UNL     1      38.114 -14.191  -2.948  1.00  0.00     0.044 A 
HETATM   33  C   UNL     1      38.972 -13.863  -1.895  1.00  0.00     0.032 A 
ENDBRANCH  23  27
ENDBRANCH   4  21
TORSDOF 8
ENDMDL
MODEL 10
REMARK VINA RESULT:      -7.6      6.553     10.311
REMARK  8 active torsions:
REMARK  status: ('A' for Active; 'I' for Inactive)
REMARK    1  A    between atoms: O_2  and  C_3 
REMARK    2  A    between atoms: C_4  and  O_5 
REMARK    3  A    between atoms: C_6  and  C_7 
REMARK    4  A    between atoms: C_7  and  C_8 
REMARK    5  A    between atoms: C_11  and  C_12 
REMARK    6  A    between atoms: C_12  and  N_13 
REMARK    7  A    between atoms: C_16  and  N_17 
REMARK       I    between atoms: N_17  and  C_18 
REMARK       I    between atoms: C_18  and  N_19 
REMARK    8  A    between atoms: N_19  and  C_20 
ROOT
HETATM    1  N   UNL     1      40.408 -14.328   2.082  1.00  0.00    -0.065 N 
HETATM    2  H   UNL     1      40.485 -14.125   3.090  1.00  0.00     0.280 HD
HETATM    3  C   UNL     1      41.720 -14.999   1.698  1.00  0.00     0.260 C 
HETATM    4  C   UNL     1      41.307 -16.342   1.075  1.00  0.00     0.113 C 
HETATM    5  C   UNL     1      40.026 -16.689   1.821  1.00  0.00     0.054 C 
HETATM    6  C   UNL     1      39.311 -15.355   1.903  1.00  0.00     0.237 C 
ENDROOT
BRANCH   1   7
HETATM    7  C   UNL     1      40.119 -13.026   1.389  1.00  0.00     0.273 C 
BRANCH   7   8
HETATM    8  C   UNL     1      40.848 -12.869   0.081  1.00  0.00    -0.029 A 
HETATM    9  C   UNL     1      40.356 -13.491  -1.078  1.00  0.00     0.019 A 
HETATM   10  C   UNL     1      41.004 -13.335  -2.314  1.00  0.00    -0.018 A 
HETATM   11  C   UNL     1      42.144 -12.530  -2.365  1.00  0.00     0.105 A 
HETATM   12  C   UNL     1      42.665 -11.910  -1.220  1.00  0.00     0.102 A 
HETATM   13  C   UNL     1      42.014 -12.085   0.000  1.00  0.00     0.048 A 
BRANCH  10  14
HETATM   14  C   UNL     1      40.448 -14.011  -3.547  1.00  0.00     0.068 C 
BRANCH  14  15
HETATM   15  C   UNL     1      40.101 -15.451  -3.292  1.00  0.00    -0.032 C 
HETATM   16  C   UNL     1      39.188 -16.147  -3.980  1.00  0.00     0.007 C 
ENDBRANCH  14  15
ENDBRANCH  10  14
BRANCH  11  17
HETATM   17  O   UNL     1      42.776 -12.342  -3.566  1.00  0.00    -0.357 OA
HETATM   18  H   UNL     1      43.583 -11.828  -3.368  1.00  0.00     0.218 HD
ENDBRANCH  11  17
BRANCH  12  19
HETATM   19  O   UNL     1      43.791 -11.159  -1.434  1.00  0.00    -0.353 OA
HETATM   20  C   UNL     1      43.680  -9.751  -1.266  1.00  0.00     0.210 C 
ENDBRANCH  12  19
ENDBRANCH   7   8
ENDBRANCH   1   7
BRANCH   4  21
HETATM   21  N   UNL     1      42.316 -17.384   1.077  1.00  0.00    -0.337 N 
HETATM   22  C   UNL     1      42.607 -18.127   2.205  1.00  0.00     0.321 C 
HETATM   23  N   UNL     1      43.575 -19.065   1.940  1.00  0.00    -0.309 N 
HETATM   24  O   UNL     1      42.050 -17.907   3.272  1.00  0.00    -0.247 OA
HETATM   25  H   UNL     1      44.130 -18.909   1.111  1.00  0.00     0.170 HD
HETATM   26  H   UNL     1      42.482 -17.870   0.204  1.00  0.00     0.164 HD
BRANCH  23  27
HETATM   27  C   UNL     1      44.016 -20.101   2.787  1.00  0.00     0.036 A 
HETATM   28  C   UNL     1      44.050 -21.447   2.412  1.00  0.00     0.032 A 
HETATM   29  C   UNL     1      44.531 -22.414   3.300  1.00  0.00     0.044 A 
HETATM   30  C   UNL     1      44.975 -22.035   4.560  1.00  0.00     0.116 A 
HETATM   31  F   UNL     1      45.438 -22.962   5.406  1.00  0.00    -0.206 F 
HETATM   32  C   UNL     1      44.951 -20.703   4.950  1.00  0.00     0.044 A 
HETATM   33  C   UNL     1      44.475 -19.735   4.061  1.00  0.00     0.032 A 
ENDBRANCH  23  27
ENDBRANCH   4  21
TORSDOF 8
ENDMDL
