MODEL 1
REMARK VINA RESULT:      -7.7      0.000      0.000
REMARK  3 active torsions:
REMARK  status: ('A' for Active; 'I' for Inactive)
REMARK       I    between atoms: C_2  and  N_3 
REMARK    1  A    between atoms: N_3  and  C_4 
REMARK    2  A    between atoms: C_7  and  N_8 
REMARK       I    between atoms: N_8  and  C_9 
REMARK    3  A    between atoms: C_9  and  C_10 
ROOT
HETATM    1  C   UNL     1      43.754 -17.914   4.726  1.00  0.00     0.034 A 
HETATM    2  C   UNL     1      44.543 -18.012   5.876  1.00  0.00     0.032 A 
HETATM    3  C   UNL     1      44.663 -16.934   6.763  1.00  0.00     0.032 A 
HETATM    4  C   UNL     1      43.993 -15.738   6.512  1.00  0.00     0.035 A 
HETATM    5  C   UNL     1      43.229 -15.629   5.347  1.00  0.00     0.032 A 
HETATM    6  C   UNL     1      43.108 -16.708   4.462  1.00  0.00     0.032 A 
ENDROOT
BRANCH   4   7
HETATM    7  N   UNL     1      44.014 -14.631   7.376  1.00  0.00    -0.322 N 
HETATM    8  C   UNL     1      44.925 -13.595   7.419  1.00  0.00     0.274 C 
HETATM    9  O   UNL     1      45.860 -13.393   6.653  1.00  0.00    -0.266 OA
HETATM   10  H   UNL     1      43.311 -14.597   8.112  1.00  0.00     0.169 HD
BRANCH   8  11
HETATM   11  C   UNL     1      44.694 -12.668   8.576  1.00  0.00     0.126 A 
HETATM   12  N   UNL     1      45.602 -12.740   9.592  1.00  0.00    -0.255 NA
HETATM   13  C   UNL     1      45.428 -11.888  10.624  1.00  0.00     0.119 A 
HETATM   14  C   UNL     1      44.397 -10.968  10.690  1.00  0.00     0.043 A 
HETATM   15  C   UNL     1      43.494 -10.926   9.634  1.00  0.00     0.037 A 
HETATM   16 CL   UNL     1      42.201  -9.792   9.669  1.00  0.00    -0.084 Cl
HETATM   17  C   UNL     1      43.627 -11.784   8.554  1.00  0.00     0.061 A 
ENDBRANCH   8  11
ENDBRANCH   4   7
BRANCH   1  18
HETATM   18  N   UNL     1      43.650 -19.061   3.914  1.00  0.00    -0.328 N 
HETATM   19  C   UNL     1      43.909 -19.160   2.558  1.00  0.00     0.218 C 
HETATM   20  C   UNL     1      43.616 -20.543   2.032  1.00  0.00     0.117 C 
HETATM   21  O   UNL     1      44.311 -18.273   1.814  1.00  0.00    -0.274 OA
HETATM   22  H   UNL     1      43.315 -19.898   4.374  1.00  0.00     0.169 HD
ENDBRANCH   1  18
TORSDOF 3
ENDMDL
MODEL 2
REMARK VINA RESULT:      -7.1      6.339      8.686
REMARK  3 active torsions:
REMARK  status: ('A' for Active; 'I' for Inactive)
REMARK       I    between atoms: C_2  and  N_3 
REMARK    1  A    between atoms: N_3  and  C_4 
REMARK    2  A    between atoms: C_7  and  N_8 
REMARK       I    between atoms: N_8  and  C_9 
REMARK    3  A    between atoms: C_9  and  C_10 
ROOT
HETATM    1  C   UNL     1      39.784 -14.389   0.177  1.00  0.00     0.034 A 
HETATM    2  C   UNL     1      39.391 -14.824   1.446  1.00  0.00     0.032 A 
HETATM    3  C   UNL     1      40.090 -15.841   2.108  1.00  0.00     0.032 A 
HETATM    4  C   UNL     1      41.195 -16.442   1.509  1.00  0.00     0.035 A 
HETATM    5  C   UNL     1      41.570 -16.029   0.228  1.00  0.00     0.032 A 
HETATM    6  C   UNL     1      40.873 -15.010  -0.433  1.00  0.00     0.032 A 
ENDROOT
BRANCH   4   7
HETATM    7  N   UNL     1      41.983 -17.427   2.126  1.00  0.00    -0.322 N 
HETATM    8  C   UNL     1      42.941 -17.266   3.108  1.00  0.00     0.274 C 
HETATM    9  O   UNL     1      43.238 -16.232   3.697  1.00  0.00    -0.266 OA
HETATM   10  H   UNL     1      41.899 -18.381   1.782  1.00  0.00     0.169 HD
BRANCH   8  11
HETATM   11  C   UNL     1      43.673 -18.538   3.418  1.00  0.00     0.126 A 
HETATM   12  N   UNL     1      44.245 -18.613   4.655  1.00  0.00    -0.255 NA
HETATM   13  C   UNL     1      44.878 -19.765   4.963  1.00  0.00     0.119 A 
HETATM   14  C   UNL     1      44.964 -20.844   4.101  1.00  0.00     0.043 A 
HETATM   15  C   UNL     1      44.368 -20.726   2.850  1.00  0.00     0.037 A 
HETATM   16 CL   UNL     1      44.443 -22.046   1.748  1.00  0.00    -0.084 Cl
HETATM   17  C   UNL     1      43.711 -19.562   2.486  1.00  0.00     0.061 A 
ENDBRANCH   8  11
ENDBRANCH   4   7
BRANCH   1  18
HETATM   18  N   UNL     1      39.056 -13.328  -0.397  1.00  0.00    -0.328 N 
HETATM   19  C   UNL     1      38.199 -13.383  -1.482  1.00  0.00     0.218 C 
HETATM   20  C   UNL     1      37.660 -12.021  -1.840  1.00  0.00     0.117 C 
HETATM   21  O   UNL     1      37.887 -14.375  -2.131  1.00  0.00    -0.274 OA
HETATM   22  H   UNL     1      39.206 -12.416   0.016  1.00  0.00     0.169 HD
ENDBRANCH   1  18
TORSDOF 3
ENDMDL
MODEL 3
REMARK VINA RESULT:      -7.1      7.037      8.878
REMARK  3 active torsions:
REMARK  status: ('A' for Active; 'I' for Inactive)
REMARK       I    between atoms: C_2  and  N_3 
REMARK    1  A    between atoms: N_3  and  C_4 
REMARK    2  A    between atoms: C_7  and  N_8 
REMARK       I    between atoms: N_8  and  C_9 
REMARK    3  A    between atoms: C_9  and  C_10 
ROOT
HETATM    1  C   UNL     1      43.627 -18.762   3.090  1.00  0.00     0.034 A 
HETATM    2  C   UNL     1      42.333 -18.248   3.219  1.00  0.00     0.032 A 
HETATM    3  C   UNL     1      41.788 -17.411   2.236  1.00  0.00     0.032 A 
HETATM    4  C   UNL     1      42.532 -17.074   1.107  1.00  0.00     0.035 A 
HETATM    5  C   UNL     1      43.836 -17.562   0.992  1.00  0.00     0.032 A 
HETATM    6  C   UNL     1      44.380 -18.401   1.973  1.00  0.00     0.032 A 
ENDROOT
BRANCH   4   7
HETATM    7  N   UNL     1      42.041 -16.289   0.050  1.00  0.00    -0.322 N 
HETATM    8  C   UNL     1      41.735 -14.942   0.054  1.00  0.00     0.274 C 
HETATM    9  O   UNL     1      41.908 -14.142   0.966  1.00  0.00    -0.266 OA
HETATM   10  H   UNL     1      41.819 -16.763  -0.823  1.00  0.00     0.169 HD
BRANCH   8  11
HETATM   11  C   UNL     1      41.102 -14.489  -1.228  1.00  0.00     0.126 A 
HETATM   12  N   UNL     1      41.219 -13.159  -1.515  1.00  0.00    -0.255 NA
HETATM   13  C   UNL     1      40.684 -12.741  -2.682  1.00  0.00     0.119 A 
HETATM   14  C   UNL     1      40.045 -13.581  -3.575  1.00  0.00     0.043 A 
HETATM   15  C   UNL     1      39.947 -14.928  -3.244  1.00  0.00     0.037 A 
HETATM   16 CL   UNL     1      39.167 -16.013  -4.329  1.00  0.00    -0.084 Cl
HETATM   17  C   UNL     1      40.475 -15.406  -2.056  1.00  0.00     0.061 A 
ENDBRANCH   8  11
ENDBRANCH   4   7
BRANCH   1  18
HETATM   18  N   UNL     1      44.079 -19.634   4.099  1.00  0.00    -0.328 N 
HETATM   19  C   UNL     1      44.512 -20.941   3.953  1.00  0.00     0.218 C 
HETATM   20  C   UNL     1      44.852 -21.570   5.281  1.00  0.00     0.117 C 
HETATM   21  O   UNL     1      44.613 -21.575   2.909  1.00  0.00    -0.274 OA
HETATM   22  H   UNL     1      44.052 -19.269   5.043  1.00  0.00     0.169 HD
ENDBRANCH   1  18
TORSDOF 3
ENDMDL
MODEL 4
REMARK VINA RESULT:      -6.9      6.840      8.643
REMARK  3 active torsions:
REMARK  status: ('A' for Active; 'I' for Inactive)
REMARK       I    between atoms: C_2  and  N_3 
REMARK    1  A    between atoms: N_3  and  C_4 
REMARK    2  A    between atoms: C_7  and  N_8 
REMARK       I    between atoms: N_8  and  C_9 
REMARK    3  A    between atoms: C_9  and  C_10 
ROOT
HETATM    1  C   UNL     1      43.594 -18.675   3.050  1.00  0.00     0.034 A 
HETATM    2  C   UNL     1      42.303 -18.150   3.166  1.00  0.00     0.032 A 
HETATM    3  C   UNL     1      41.796 -17.265   2.206  1.00  0.00     0.032 A 
HETATM    4  C   UNL     1      42.575 -16.890   1.113  1.00  0.00     0.035 A 
HETATM    5  C   UNL     1      43.875 -17.390   1.012  1.00  0.00     0.032 A 
HETATM    6  C   UNL     1      44.382 -18.277   1.971  1.00  0.00     0.032 A 
ENDROOT
BRANCH   4   7
HETATM    7  N   UNL     1      42.123 -16.054   0.078  1.00  0.00    -0.322 N 
HETATM    8  C   UNL     1      41.782 -14.718   0.143  1.00  0.00     0.274 C 
HETATM    9  O   UNL     1      41.884 -13.969   1.109  1.00  0.00    -0.266 OA
HETATM   10  H   UNL     1      41.961 -16.480  -0.833  1.00  0.00     0.169 HD
BRANCH   8  11
HETATM   11  C   UNL     1      41.210 -14.202  -1.144  1.00  0.00     0.126 A 
HETATM   12  N   UNL     1      39.931 -14.589  -1.427  1.00  0.00    -0.255 NA
HETATM   13  C   UNL     1      39.389 -14.105  -2.565  1.00  0.00     0.119 A 
HETATM   14  C   UNL     1      40.056 -13.255  -3.429  1.00  0.00     0.043 A 
HETATM   15  C   UNL     1      41.356 -12.886  -3.104  1.00  0.00     0.037 A 
HETATM   16 CL   UNL     1      42.222 -11.824  -4.145  1.00  0.00    -0.084 Cl
HETATM   17  C   UNL     1      41.959 -13.359  -1.949  1.00  0.00     0.061 A 
ENDBRANCH   8  11
ENDBRANCH   4   7
BRANCH   1  18
HETATM   18  N   UNL     1      44.008 -19.596   4.033  1.00  0.00    -0.328 N 
HETATM   19  C   UNL     1      44.530 -20.862   3.836  1.00  0.00     0.218 C 
HETATM   20  C   UNL     1      44.790 -21.571   5.142  1.00  0.00     0.117 C 
HETATM   21  O   UNL     1      44.761 -21.410   2.764  1.00  0.00    -0.274 OA
HETATM   22  H   UNL     1      43.876 -19.304   4.994  1.00  0.00     0.169 HD
ENDBRANCH   1  18
TORSDOF 3
ENDMDL
MODEL 5
REMARK VINA RESULT:      -6.9      6.805      8.675
REMARK  3 active torsions:
REMARK  status: ('A' for Active; 'I' for Inactive)
REMARK       I    between atoms: C_2  and  N_3 
REMARK    1  A    between atoms: N_3  and  C_4 
REMARK    2  A    between atoms: C_7  and  N_8 
REMARK       I    between atoms: N_8  and  C_9 
REMARK    3  A    between atoms: C_9  and  C_10 
ROOT
HETATM    1  C   UNL     1      43.664 -18.834   2.963  1.00  0.00     0.034 A 
HETATM    2  C   UNL     1      42.377 -18.340   3.201  1.00  0.00     0.032 A 
HETATM    3  C   UNL     1      41.740 -17.511   2.270  1.00  0.00     0.032 A 
HETATM    4  C   UNL     1      42.382 -17.160   1.084  1.00  0.00     0.035 A 
HETATM    5  C   UNL     1      43.679 -17.628   0.859  1.00  0.00     0.032 A 
HETATM    6  C   UNL     1      44.316 -18.459   1.789  1.00  0.00     0.032 A 
ENDROOT
BRANCH   4   7
HETATM    7  N   UNL     1      41.792 -16.381   0.074  1.00  0.00    -0.322 N 
HETATM    8  C   UNL     1      41.518 -15.028   0.087  1.00  0.00     0.274 C 
HETATM    9  O   UNL     1      41.809 -14.217   0.958  1.00  0.00    -0.266 OA
HETATM   10  H   UNL     1      41.464 -16.863  -0.760  1.00  0.00     0.169 HD
BRANCH   8  11
HETATM   11  C   UNL     1      40.755 -14.580  -1.125  1.00  0.00     0.126 A 
HETATM   12  N   UNL     1      41.134 -15.139  -2.311  1.00  0.00    -0.255 NA
HETATM   13  C   UNL     1      40.435 -14.773  -3.406  1.00  0.00     0.119 A 
HETATM   14  C   UNL     1      39.378 -13.882  -3.375  1.00  0.00     0.043 A 
HETATM   15  C   UNL     1      39.024 -13.335  -2.148  1.00  0.00     0.037 A 
HETATM   16 CL   UNL     1      37.709 -12.228  -2.060  1.00  0.00    -0.084 Cl
HETATM   17  C   UNL     1      39.714 -13.676  -0.995  1.00  0.00     0.061 A 
ENDBRANCH   8  11
ENDBRANCH   4   7
BRANCH   1  18
HETATM   18  N   UNL     1      44.213 -19.701   3.929  1.00  0.00    -0.328 N 
HETATM   19  C   UNL     1      44.567 -21.028   3.766  1.00  0.00     0.218 C 
HETATM   20  C   UNL     1      45.057 -21.640   5.054  1.00  0.00     0.117 C 
HETATM   21  O   UNL     1      44.500 -21.692   2.738  1.00  0.00    -0.274 OA
HETATM   22  H   UNL     1      44.328 -19.311   4.857  1.00  0.00     0.169 HD
ENDBRANCH   1  18
TORSDOF 3
ENDMDL
MODEL 6
REMARK VINA RESULT:      -6.8      6.099      9.317
REMARK  3 active torsions:
REMARK  status: ('A' for Active; 'I' for Inactive)
REMARK       I    between atoms: C_2  and  N_3 
REMARK    1  A    between atoms: N_3  and  C_4 
REMARK    2  A    between atoms: C_7  and  N_8 
REMARK       I    between atoms: N_8  and  C_9 
REMARK    3  A    between atoms: C_9  and  C_10 
ROOT
HETATM    1  C   UNL     1      43.192 -17.846   3.350  1.00  0.00     0.034 A 
HETATM    2  C   UNL     1      43.908 -17.754   2.153  1.00  0.00     0.032 A 
HETATM    3  C   UNL     1      43.286 -17.325   0.973  1.00  0.00     0.032 A 
HETATM    4  C   UNL     1      41.936 -16.981   0.973  1.00  0.00     0.035 A 
HETATM    5  C   UNL     1      41.213 -17.101   2.163  1.00  0.00     0.032 A 
HETATM    6  C   UNL     1      41.835 -17.528   3.343  1.00  0.00     0.032 A 
ENDROOT
BRANCH   4   7
HETATM    7  N   UNL     1      41.252 -16.488  -0.151  1.00  0.00    -0.322 N 
HETATM    8  C   UNL     1      41.248 -15.202  -0.654  1.00  0.00     0.274 C 
HETATM    9  O   UNL     1      41.910 -14.246  -0.264  1.00  0.00    -0.266 OA
HETATM   10  H   UNL     1      40.627 -17.126  -0.638  1.00  0.00     0.169 HD
BRANCH   8  11
HETATM   11  C   UNL     1      40.284 -15.028  -1.791  1.00  0.00     0.126 A 
HETATM   12  N   UNL     1      40.376 -15.944  -2.799  1.00  0.00    -0.255 NA
HETATM   13  C   UNL     1      39.493 -15.822  -3.812  1.00  0.00     0.119 A 
HETATM   14  C   UNL     1      38.524 -14.836  -3.867  1.00  0.00     0.043 A 
HETATM   15  C   UNL     1      38.465 -13.923  -2.821  1.00  0.00     0.037 A 
HETATM   16 CL   UNL     1      37.270 -12.685  -2.843  1.00  0.00    -0.084 Cl
HETATM   17  C   UNL     1      39.352 -14.003  -1.760  1.00  0.00     0.061 A 
ENDBRANCH   8  11
ENDBRANCH   4   7
BRANCH   1  18
HETATM   18  N   UNL     1      43.905 -18.239   4.501  1.00  0.00    -0.328 N 
HETATM   19  C   UNL     1      44.172 -17.482   5.627  1.00  0.00     0.218 C 
HETATM   20  C   UNL     1      45.024 -18.234   6.619  1.00  0.00     0.117 C 
HETATM   21  O   UNL     1      43.809 -16.333   5.851  1.00  0.00    -0.274 OA
HETATM   22  H   UNL     1      44.292 -19.175   4.481  1.00  0.00     0.169 HD
ENDBRANCH   1  18
TORSDOF 3
ENDMDL
MODEL 7
REMARK VINA RESULT:      -6.4      3.401      4.021
REMARK  3 active torsions:
REMARK  status: ('A' for Active; 'I' for Inactive)
REMARK       I    between atoms: C_2  and  N_3 
REMARK    1  A    between atoms: N_3  and  C_4 
REMARK    2  A    between atoms: C_7  and  N_8 
REMARK       I    between atoms: N_8  and  C_9 
REMARK    3  A    between atoms: C_9  and  C_10 
ROOT
HETATM    1  C   UNL     1      44.075 -18.646   2.943  1.00  0.00     0.034 A 
HETATM    2  C   UNL     1      43.677 -18.396   4.260  1.00  0.00     0.032 A 
HETATM    3  C   UNL     1      43.146 -17.153   4.629  1.00  0.00     0.032 A 
HETATM    4  C   UNL     1      43.003 -16.140   3.683  1.00  0.00     0.035 A 
HETATM    5  C   UNL     1      43.428 -16.379   2.374  1.00  0.00     0.032 A 
HETATM    6  C   UNL     1      43.958 -17.622   2.005  1.00  0.00     0.032 A 
ENDROOT
BRANCH   4   7
HETATM    7  N   UNL     1      42.428 -14.888   3.956  1.00  0.00    -0.322 N 
HETATM    8  C   UNL     1      43.055 -13.729   4.370  1.00  0.00     0.274 C 
HETATM    9  O   UNL     1      44.259 -13.541   4.505  1.00  0.00    -0.266 OA
HETATM   10  H   UNL     1      41.414 -14.816   3.907  1.00  0.00     0.169 HD
BRANCH   8  11
HETATM   11  C   UNL     1      42.086 -12.630   4.694  1.00  0.00     0.126 A 
HETATM   12  N   UNL     1      41.530 -11.989   3.624  1.00  0.00    -0.255 NA
HETATM   13  C   UNL     1      40.630 -11.021   3.898  1.00  0.00     0.119 A 
HETATM   14  C   UNL     1      40.257 -10.664   5.182  1.00  0.00     0.043 A 
HETATM   15  C   UNL     1      40.848 -11.341   6.242  1.00  0.00     0.037 A 
HETATM   16 CL   UNL     1      40.409 -10.936   7.856  1.00  0.00    -0.084 Cl
HETATM   17  C   UNL     1      41.781 -12.340   6.013  1.00  0.00     0.061 A 
ENDBRANCH   8  11
ENDBRANCH   4   7
BRANCH   1  18
HETATM   18  N   UNL     1      44.554 -19.938   2.648  1.00  0.00    -0.328 N 
HETATM   19  C   UNL     1      43.851 -20.989   2.085  1.00  0.00     0.218 C 
HETATM   20  C   UNL     1      44.693 -22.237   1.988  1.00  0.00     0.117 C 
HETATM   21  O   UNL     1      42.685 -20.984   1.708  1.00  0.00    -0.274 OA
HETATM   22  H   UNL     1      45.514 -20.123   2.909  1.00  0.00     0.169 HD
ENDBRANCH   1  18
TORSDOF 3
ENDMDL
MODEL 8
REMARK VINA RESULT:      -6.4      5.879      7.982
REMARK  3 active torsions:
REMARK  status: ('A' for Active; 'I' for Inactive)
REMARK       I    between atoms: C_2  and  N_3 
REMARK    1  A    between atoms: N_3  and  C_4 
REMARK    2  A    between atoms: C_7  and  N_8 
REMARK       I    between atoms: N_8  and  C_9 
REMARK    3  A    between atoms: C_9  and  C_10 
ROOT
HETATM    1  C   UNL     1      40.054 -14.798   0.407  1.00  0.00     0.034 A 
HETATM    2  C   UNL     1      41.275 -15.320  -0.031  1.00  0.00     0.032 A 
HETATM    3  C   UNL     1      41.985 -16.244   0.747  1.00  0.00     0.032 A 
HETATM    4  C   UNL     1      41.484 -16.660   1.978  1.00  0.00     0.035 A 
HETATM    5  C   UNL     1      40.279 -16.116   2.430  1.00  0.00     0.032 A 
HETATM    6  C   UNL     1      39.568 -15.194   1.652  1.00  0.00     0.032 A 
ENDROOT
BRANCH   4   7
HETATM    7  N   UNL     1      42.102 -17.624   2.792  1.00  0.00    -0.322 N 
HETATM    8  C   UNL     1      42.982 -17.424   3.837  1.00  0.00     0.274 C 
HETATM    9  O   UNL     1      43.338 -16.354   4.317  1.00  0.00    -0.266 OA
HETATM   10  H   UNL     1      41.944 -18.603   2.564  1.00  0.00     0.169 HD
BRANCH   8  11
HETATM   11  C   UNL     1      43.540 -18.707   4.378  1.00  0.00     0.126 A 
HETATM   12  N   UNL     1      44.276 -19.455   3.504  1.00  0.00    -0.255 NA
HETATM   13  C   UNL     1      44.814 -20.596   3.986  1.00  0.00     0.119 A 
HETATM   14  C   UNL     1      44.657 -21.024   5.292  1.00  0.00     0.043 A 
HETATM   15  C   UNL     1      43.899 -20.234   6.148  1.00  0.00     0.037 A 
HETATM   16 CL   UNL     1      43.683 -20.723   7.784  1.00  0.00    -0.084 Cl
HETATM   17  C   UNL     1      43.323 -19.056   5.701  1.00  0.00     0.061 A 
ENDBRANCH   8  11
ENDBRANCH   4   7
BRANCH   1  18
HETATM   18  N   UNL     1      39.383 -13.911  -0.458  1.00  0.00    -0.328 N 
HETATM   19  C   UNL     1      39.622 -12.560  -0.632  1.00  0.00     0.218 C 
HETATM   20  C   UNL     1      38.647 -11.938  -1.600  1.00  0.00     0.117 C 
HETATM   21  O   UNL     1      40.488 -11.884  -0.087  1.00  0.00    -0.274 OA
HETATM   22  H   UNL     1      38.616 -14.308  -0.988  1.00  0.00     0.169 HD
ENDBRANCH   1  18
TORSDOF 3
ENDMDL
MODEL 9
REMARK VINA RESULT:      -6.3      5.822      6.517
REMARK  3 active torsions:
REMARK  status: ('A' for Active; 'I' for Inactive)
REMARK       I    between atoms: C_2  and  N_3 
REMARK    1  A    between atoms: N_3  and  C_4 
REMARK    2  A    between atoms: C_7  and  N_8 
REMARK       I    between atoms: N_8  and  C_9 
REMARK    3  A    between atoms: C_9  and  C_10 
ROOT
HETATM    1  C   UNL     1      43.812 -19.002   2.958  1.00  0.00     0.034 A 
HETATM    2  C   UNL     1      42.856 -18.389   3.774  1.00  0.00     0.032 A 
HETATM    3  C   UNL     1      42.326 -17.134   3.445  1.00  0.00     0.032 A 
HETATM    4  C   UNL     1      42.746 -16.473   2.293  1.00  0.00     0.035 A 
HETATM    5  C   UNL     1      43.722 -17.071   1.494  1.00  0.00     0.032 A 
HETATM    6  C   UNL     1      44.251 -18.327   1.821  1.00  0.00     0.032 A 
ENDROOT
BRANCH   4   7
HETATM    7  N   UNL     1      42.224 -15.241   1.862  1.00  0.00    -0.322 N 
HETATM    8  C   UNL     1      42.592 -13.970   2.258  1.00  0.00     0.274 C 
HETATM    9  O   UNL     1      43.508 -13.660   3.010  1.00  0.00    -0.266 OA
HETATM   10  H   UNL     1      41.434 -15.264   1.221  1.00  0.00     0.169 HD
BRANCH   8  11
HETATM   11  C   UNL     1      41.709 -12.905   1.678  1.00  0.00     0.126 A 
HETATM   12  N   UNL     1      41.373 -11.883   2.518  1.00  0.00    -0.255 NA
HETATM   13  C   UNL     1      40.608 -10.899   2.001  1.00  0.00     0.119 A 
HETATM   14  C   UNL     1      40.165 -10.882   0.690  1.00  0.00     0.043 A 
HETATM   15  C   UNL     1      40.530 -11.942  -0.132  1.00  0.00     0.037 A 
HETATM   16 CL   UNL     1      40.010 -11.960  -1.772  1.00  0.00    -0.084 Cl
HETATM   17  C   UNL     1      41.311 -12.979   0.353  1.00  0.00     0.061 A 
ENDBRANCH   8  11
ENDBRANCH   4   7
BRANCH   1  18
HETATM   18  N   UNL     1      44.256 -20.285   3.336  1.00  0.00    -0.328 N 
HETATM   19  C   UNL     1      44.114 -21.468   2.631  1.00  0.00     0.218 C 
HETATM   20  C   UNL     1      44.662 -22.646   3.398  1.00  0.00     0.117 C 
HETATM   21  O   UNL     1      43.602 -21.616   1.528  1.00  0.00    -0.274 OA
HETATM   22  H   UNL     1      44.701 -20.349   4.243  1.00  0.00     0.169 HD
ENDBRANCH   1  18
TORSDOF 3
ENDMDL
MODEL 10
REMARK VINA RESULT:      -6.3      5.278      8.450
REMARK  3 active torsions:
REMARK  status: ('A' for Active; 'I' for Inactive)
REMARK       I    between atoms: C_2  and  N_3 
REMARK    1  A    between atoms: N_3  and  C_4 
REMARK    2  A    between atoms: C_7  and  N_8 
REMARK       I    between atoms: N_8  and  C_9 
REMARK    3  A    between atoms: C_9  and  C_10 
ROOT
HETATM    1  C   UNL     1      40.691 -12.716   4.403  1.00  0.00     0.034 A 
HETATM    2  C   UNL     1      42.086 -12.685   4.318  1.00  0.00     0.032 A 
HETATM    3  C   UNL     1      42.831 -13.869   4.245  1.00  0.00     0.032 A 
HETATM    4  C   UNL     1      42.189 -15.106   4.257  1.00  0.00     0.035 A 
HETATM    5  C   UNL     1      40.797 -15.139   4.372  1.00  0.00     0.032 A 
HETATM    6  C   UNL     1      40.052 -13.955   4.443  1.00  0.00     0.032 A 
ENDROOT
BRANCH   4   7
HETATM    7  N   UNL     1      42.855 -16.337   4.131  1.00  0.00    -0.322 N 
HETATM    8  C   UNL     1      43.132 -17.046   2.978  1.00  0.00     0.274 C 
HETATM    9  O   UNL     1      42.921 -16.700   1.822  1.00  0.00    -0.266 OA
HETATM   10  H   UNL     1      43.126 -16.815   4.987  1.00  0.00     0.169 HD
BRANCH   8  11
HETATM   11  C   UNL     1      43.739 -18.389   3.257  1.00  0.00     0.126 A 
HETATM   12  N   UNL     1      44.312 -18.544   4.486  1.00  0.00    -0.255 NA
HETATM   13  C   UNL     1      44.832 -19.758   4.765  1.00  0.00     0.119 A 
HETATM   14  C   UNL     1      44.804 -20.823   3.883  1.00  0.00     0.043 A 
HETATM   15  C   UNL     1      44.212 -20.624   2.642  1.00  0.00     0.037 A 
HETATM   16 CL   UNL     1      44.147 -21.922   1.515  1.00  0.00    -0.084 Cl
HETATM   17  C   UNL     1      43.668 -19.394   2.306  1.00  0.00     0.061 A 
ENDBRANCH   8  11
ENDBRANCH   4   7
BRANCH   1  18
HETATM   18  N   UNL     1      40.017 -11.479   4.423  1.00  0.00    -0.328 N 
HETATM   19  C   UNL     1      38.921 -11.104   3.666  1.00  0.00     0.218 C 
HETATM   20  C   UNL     1      38.527  -9.670   3.922  1.00  0.00     0.117 C 
HETATM   21  O   UNL     1      38.309 -11.791   2.856  1.00  0.00    -0.274 OA
HETATM   22  H   UNL     1      40.403 -10.776   5.041  1.00  0.00     0.169 HD
ENDBRANCH   1  18
TORSDOF 3
ENDMDL
