MODEL 1
REMARK VINA RESULT:      -7.3      0.000      0.000
REMARK  4 active torsions:
REMARK  status: ('A' for Active; 'I' for Inactive)
REMARK    1  A    between atoms: C_2  and  N_3 
REMARK    2  A    between atoms: C_2  and  C_13 
REMARK       I    between atoms: N_3  and  C_4 
REMARK    3  A    between atoms: C_4  and  C_5 
REMARK    4  A    between atoms: C_6  and  C_7 
ROOT
HETATM    1  C   UNL     1      42.423 -16.127   5.367  1.00  0.00     0.040 C 
HETATM    2  C   UNL     1      43.222 -16.284   4.076  1.00  0.00     0.150 C 
ENDROOT
BRANCH   2   3
HETATM    3  N   UNL     1      42.470 -15.814   2.930  1.00  0.00    -0.346 N 
HETATM    4  C   UNL     1      42.630 -14.557   2.420  1.00  0.00     0.241 C 
HETATM    5  O   UNL     1      43.439 -13.743   2.849  1.00  0.00    -0.269 OA
HETATM    6  H   UNL     1      41.766 -16.452   2.574  1.00  0.00     0.163 HD
BRANCH   4   7
HETATM    7  C   UNL     1      41.714 -14.267   1.291  1.00  0.00     0.075 C 
HETATM    8  C   UNL     1      41.668 -15.104   0.243  1.00  0.00     0.017 C 
BRANCH   8   9
HETATM    9  C   UNL     1      40.842 -14.954  -0.919  1.00  0.00    -0.029 A 
HETATM   10  C   UNL     1      39.756 -14.101  -0.928  1.00  0.00     0.061 A 
HETATM   11  S   UNL     1      38.932 -14.101  -2.428  1.00  0.00    -0.113 SA
HETATM   12  C   UNL     1      40.024 -15.240  -3.086  1.00  0.00     0.050 A 
HETATM   13  C   UNL     1      40.994 -15.613  -2.179  1.00  0.00     0.019 A 
ENDBRANCH   8   9
ENDBRANCH   4   7
ENDBRANCH   2   3
BRANCH   2  14
HETATM   14  C   UNL     1      43.543 -17.727   3.827  1.00  0.00     0.127 A 
HETATM   15  N   UNL     1      44.155 -18.555   4.657  1.00  0.00    -0.231 NA
HETATM   16  C   UNL     1      44.234 -19.753   3.987  1.00  0.00     0.085 A 
HETATM   17  C   UNL     1      43.652 -19.659   2.729  1.00  0.00     0.062 A 
HETATM   18  C   UNL     1      44.796 -20.972   4.394  1.00  0.00     0.034 A 
HETATM   19  N   UNL     1      43.211 -18.363   2.655  1.00  0.00    -0.341 N 
HETATM   20  C   UNL     1      43.594 -20.725   1.829  1.00  0.00     0.032 A 
HETATM   21  H   UNL     1      42.731 -17.946   1.871  1.00  0.00     0.167 HD
HETATM   22  C   UNL     1      44.162 -21.934   2.250  1.00  0.00     0.002 A 
HETATM   23  C   UNL     1      44.753 -22.058   3.510  1.00  0.00     0.002 A 
ENDBRANCH   2  14
TORSDOF 4
ENDMDL
MODEL 2
REMARK VINA RESULT:      -7.2      1.096      2.006
REMARK  4 active torsions:
REMARK  status: ('A' for Active; 'I' for Inactive)
REMARK    1  A    between atoms: C_2  and  N_3 
REMARK    2  A    between atoms: C_2  and  C_13 
REMARK       I    between atoms: N_3  and  C_4 
REMARK    3  A    between atoms: C_4  and  C_5 
REMARK    4  A    between atoms: C_6  and  C_7 
ROOT
HETATM    1  C   UNL     1      42.682 -16.449   5.869  1.00  0.00     0.040 C 
HETATM    2  C   UNL     1      43.368 -16.412   4.505  1.00  0.00     0.150 C 
ENDROOT
BRANCH   2   3
HETATM    3  N   UNL     1      42.545 -15.738   3.521  1.00  0.00    -0.346 N 
HETATM    4  C   UNL     1      42.881 -14.519   3.004  1.00  0.00     0.241 C 
HETATM    5  O   UNL     1      43.909 -13.916   3.287  1.00  0.00    -0.269 OA
HETATM    6  H   UNL     1      41.668 -16.195   3.292  1.00  0.00     0.163 HD
BRANCH   4   7
HETATM    7  C   UNL     1      41.866 -13.987   2.064  1.00  0.00     0.075 C 
HETATM    8  C   UNL     1      40.783 -14.724   1.770  1.00  0.00     0.017 C 
BRANCH   8   9
HETATM    9  C   UNL     1      39.725 -14.349   0.878  1.00  0.00    -0.029 A 
HETATM   10  C   UNL     1      39.976 -14.010  -0.437  1.00  0.00     0.061 A 
HETATM   11  S   UNL     1      38.552 -13.599  -1.293  1.00  0.00    -0.113 SA
HETATM   12  C   UNL     1      37.582 -13.876   0.087  1.00  0.00     0.050 A 
HETATM   13  C   UNL     1      38.329 -14.270   1.176  1.00  0.00     0.019 A 
ENDBRANCH   8   9
ENDBRANCH   4   7
ENDBRANCH   2   3
BRANCH   2  14
HETATM   14  C   UNL     1      43.607 -17.803   3.998  1.00  0.00     0.127 A 
HETATM   15  N   UNL     1      43.264 -18.282   2.815  1.00  0.00    -0.231 NA
HETATM   16  C   UNL     1      43.674 -19.594   2.818  1.00  0.00     0.085 A 
HETATM   17  C   UNL     1      44.288 -19.920   4.021  1.00  0.00     0.062 A 
HETATM   18  C   UNL     1      43.553 -20.574   1.821  1.00  0.00     0.034 A 
HETATM   19  N   UNL     1      44.242 -18.761   4.751  1.00  0.00    -0.341 N 
HETATM   20  C   UNL     1      44.800 -21.189   4.302  1.00  0.00     0.032 A 
HETATM   21  H   UNL     1      44.605 -18.635   5.684  1.00  0.00     0.167 HD
HETATM   22  C   UNL     1      44.668 -22.156   3.297  1.00  0.00     0.002 A 
HETATM   23  C   UNL     1      44.056 -21.856   2.077  1.00  0.00     0.002 A 
ENDBRANCH   2  14
TORSDOF 4
ENDMDL
MODEL 3
REMARK VINA RESULT:      -7.1      2.418      2.703
REMARK  4 active torsions:
REMARK  status: ('A' for Active; 'I' for Inactive)
REMARK    1  A    between atoms: C_2  and  N_3 
REMARK    2  A    between atoms: C_2  and  C_13 
REMARK       I    between atoms: N_3  and  C_4 
REMARK    3  A    between atoms: C_4  and  C_5 
REMARK    4  A    between atoms: C_6  and  C_7 
ROOT
HETATM    1  C   UNL     1      43.265 -17.270   7.250  1.00  0.00     0.040 C 
HETATM    2  C   UNL     1      43.918 -17.099   5.879  1.00  0.00     0.150 C 
ENDROOT
BRANCH   2   3
HETATM    3  N   UNL     1      43.100 -16.284   5.005  1.00  0.00    -0.346 N 
HETATM    4  C   UNL     1      43.214 -14.923   4.962  1.00  0.00     0.241 C 
HETATM    5  O   UNL     1      44.031 -14.284   5.613  1.00  0.00    -0.269 OA
HETATM    6  H   UNL     1      42.388 -16.780   4.478  1.00  0.00     0.163 HD
BRANCH   4   7
HETATM    7  C   UNL     1      42.237 -14.287   4.046  1.00  0.00     0.075 C 
HETATM    8  C   UNL     1      41.100 -14.931   3.737  1.00  0.00     0.017 C 
BRANCH   8   9
HETATM    9  C   UNL     1      40.069 -14.450   2.866  1.00  0.00    -0.029 A 
HETATM   10  C   UNL     1      39.755 -13.106   2.792  1.00  0.00     0.061 A 
HETATM   11  S   UNL     1      38.490 -12.787   1.684  1.00  0.00    -0.113 SA
HETATM   12  C   UNL     1      38.352 -14.444   1.286  1.00  0.00     0.050 A 
HETATM   13  C   UNL     1      39.250 -15.222   1.986  1.00  0.00     0.019 A 
ENDBRANCH   8   9
ENDBRANCH   4   7
ENDBRANCH   2   3
BRANCH   2  14
HETATM   14  C   UNL     1      44.087 -18.429   5.207  1.00  0.00     0.127 A 
HETATM   15  N   UNL     1      44.456 -19.562   5.779  1.00  0.00    -0.231 NA
HETATM   16  C   UNL     1      44.484 -20.492   4.767  1.00  0.00     0.085 A 
HETATM   17  C   UNL     1      44.115 -19.919   3.555  1.00  0.00     0.062 A 
HETATM   18  C   UNL     1      44.819 -21.853   4.808  1.00  0.00     0.034 A 
HETATM   19  N   UNL     1      43.858 -18.608   3.864  1.00  0.00    -0.341 N 
HETATM   20  C   UNL     1      44.058 -20.631   2.356  1.00  0.00     0.032 A 
HETATM   21  H   UNL     1      43.558 -17.896   3.214  1.00  0.00     0.167 HD
HETATM   22  C   UNL     1      44.399 -21.989   2.415  1.00  0.00     0.002 A 
HETATM   23  C   UNL     1      44.773 -22.592   3.618  1.00  0.00     0.002 A 
ENDBRANCH   2  14
TORSDOF 4
ENDMDL
MODEL 4
REMARK VINA RESULT:      -7.1      3.118      3.864
REMARK  4 active torsions:
REMARK  status: ('A' for Active; 'I' for Inactive)
REMARK    1  A    between atoms: C_2  and  N_3 
REMARK    2  A    between atoms: C_2  and  C_13 
REMARK       I    between atoms: N_3  and  C_4 
REMARK    3  A    between atoms: C_4  and  C_5 
REMARK    4  A    between atoms: C_6  and  C_7 
ROOT
HETATM    1  C   UNL     1      43.612 -17.789   7.686  1.00  0.00     0.040 C 
HETATM    2  C   UNL     1      44.353 -17.317   6.436  1.00  0.00     0.150 C 
ENDROOT
BRANCH   2   3
HETATM    3  N   UNL     1      43.746 -16.124   5.884  1.00  0.00    -0.346 N 
HETATM    4  C   UNL     1      44.123 -14.869   6.272  1.00  0.00     0.241 C 
HETATM    5  O   UNL     1      45.020 -14.642   7.074  1.00  0.00    -0.269 OA
HETATM    6  H   UNL     1      42.973 -16.277   5.243  1.00  0.00     0.163 HD
BRANCH   4   7
HETATM    7  C   UNL     1      43.326 -13.798   5.628  1.00  0.00     0.075 C 
HETATM    8  C   UNL     1      42.896 -13.958   4.366  1.00  0.00     0.017 C 
BRANCH   8   9
HETATM    9  C   UNL     1      42.126 -13.012   3.612  1.00  0.00    -0.029 A 
HETATM   10  C   UNL     1      41.229 -12.159   4.225  1.00  0.00     0.061 A 
HETATM   11  S   UNL     1      40.434 -11.132   3.111  1.00  0.00    -0.113 SA
HETATM   12  C   UNL     1      41.286 -11.813   1.796  1.00  0.00     0.050 A 
HETATM   13  C   UNL     1      42.156 -12.804   2.198  1.00  0.00     0.019 A 
ENDBRANCH   8   9
ENDBRANCH   4   7
ENDBRANCH   2   3
BRANCH   2  14
HETATM   14  C   UNL     1      44.305 -18.367   5.367  1.00  0.00     0.127 A 
HETATM   15  N   UNL     1      43.901 -18.206   4.119  1.00  0.00    -0.231 NA
HETATM   16  C   UNL     1      44.023 -19.443   3.532  1.00  0.00     0.085 A 
HETATM   17  C   UNL     1      44.520 -20.375   4.434  1.00  0.00     0.062 A 
HETATM   18  C   UNL     1      43.724 -19.848   2.222  1.00  0.00     0.034 A 
HETATM   19  N   UNL     1      44.701 -19.663   5.592  1.00  0.00    -0.341 N 
HETATM   20  C   UNL     1      44.743 -21.715   4.109  1.00  0.00     0.032 A 
HETATM   21  H   UNL     1      45.057 -20.032   6.462  1.00  0.00     0.167 HD
HETATM   22  C   UNL     1      44.436 -22.102   2.798  1.00  0.00     0.002 A 
HETATM   23  C   UNL     1      43.936 -21.186   1.869  1.00  0.00     0.002 A 
ENDBRANCH   2  14
TORSDOF 4
ENDMDL
MODEL 5
REMARK VINA RESULT:      -6.8      2.221      3.624
REMARK  4 active torsions:
REMARK  status: ('A' for Active; 'I' for Inactive)
REMARK    1  A    between atoms: C_2  and  N_3 
REMARK    2  A    between atoms: C_2  and  C_13 
REMARK       I    between atoms: N_3  and  C_4 
REMARK    3  A    between atoms: C_4  and  C_5 
REMARK    4  A    between atoms: C_6  and  C_7 
ROOT
HETATM    1  C   UNL     1      43.624 -20.071   1.734  1.00  0.00     0.040 C 
HETATM    2  C   UNL     1      42.639 -19.037   2.277  1.00  0.00     0.150 C 
ENDROOT
BRANCH   2   3
HETATM    3  N   UNL     1      42.683 -17.812   1.504  1.00  0.00    -0.346 N 
HETATM    4  C   UNL     1      41.573 -17.042   1.298  1.00  0.00     0.241 C 
HETATM    5  O   UNL     1      40.472 -17.288   1.775  1.00  0.00    -0.269 OA
HETATM    6  H   UNL     1      43.573 -17.599   1.065  1.00  0.00     0.163 HD
BRANCH   4   7
HETATM    7  C   UNL     1      41.832 -15.871   0.427  1.00  0.00     0.075 C 
HETATM    8  C   UNL     1      41.154 -15.738  -0.725  1.00  0.00     0.017 C 
BRANCH   8   9
HETATM    9  C   UNL     1      41.300 -14.670  -1.669  1.00  0.00    -0.029 A 
HETATM   10  C   UNL     1      41.864 -13.461  -1.311  1.00  0.00     0.061 A 
HETATM   11  S   UNL     1      41.923 -12.351  -2.613  1.00  0.00    -0.113 SA
HETATM   12  C   UNL     1      41.200 -13.480  -3.674  1.00  0.00     0.050 A 
HETATM   13  C   UNL     1      40.917 -14.675  -3.047  1.00  0.00     0.019 A 
ENDBRANCH   8   9
ENDBRANCH   4   7
ENDBRANCH   2   3
BRANCH   2  14
HETATM   14  C   UNL     1      42.983 -18.675   3.691  1.00  0.00     0.127 A 
HETATM   15  N   UNL     1      44.138 -18.881   4.301  1.00  0.00    -0.231 NA
HETATM   16  C   UNL     1      43.969 -18.399   5.577  1.00  0.00     0.085 A 
HETATM   17  C   UNL     1      42.691 -17.880   5.748  1.00  0.00     0.062 A 
HETATM   18  C   UNL     1      44.870 -18.373   6.652  1.00  0.00     0.034 A 
HETATM   19  N   UNL     1      42.087 -18.058   4.530  1.00  0.00    -0.341 N 
HETATM   20  C   UNL     1      42.243 -17.326   6.949  1.00  0.00     0.032 A 
HETATM   21  H   UNL     1      41.143 -17.789   4.294  1.00  0.00     0.167 HD
HETATM   22  C   UNL     1      43.154 -17.311   8.012  1.00  0.00     0.002 A 
HETATM   23  C   UNL     1      44.445 -17.825   7.869  1.00  0.00     0.002 A 
ENDBRANCH   2  14
TORSDOF 4
ENDMDL
MODEL 6
REMARK VINA RESULT:      -6.8      2.936      7.266
REMARK  4 active torsions:
REMARK  status: ('A' for Active; 'I' for Inactive)
REMARK    1  A    between atoms: C_2  and  N_3 
REMARK    2  A    between atoms: C_2  and  C_13 
REMARK       I    between atoms: N_3  and  C_4 
REMARK    3  A    between atoms: C_4  and  C_5 
REMARK    4  A    between atoms: C_6  and  C_7 
ROOT
HETATM    1  C   UNL     1      42.733 -13.320   3.110  1.00  0.00     0.040 C 
HETATM    2  C   UNL     1      41.685 -14.236   2.482  1.00  0.00     0.150 C 
ENDROOT
BRANCH   2   3
HETATM    3  N   UNL     1      41.995 -15.631   2.718  1.00  0.00    -0.346 N 
HETATM    4  C   UNL     1      41.559 -16.295   3.830  1.00  0.00     0.241 C 
HETATM    5  O   UNL     1      40.843 -15.794   4.688  1.00  0.00    -0.269 OA
HETATM    6  H   UNL     1      42.617 -16.065   2.043  1.00  0.00     0.163 HD
BRANCH   4   7
HETATM    7  C   UNL     1      42.047 -17.693   3.900  1.00  0.00     0.075 C 
HETATM    8  C   UNL     1      43.066 -18.080   3.116  1.00  0.00     0.017 C 
BRANCH   8   9
HETATM    9  C   UNL     1      43.639 -19.393   3.068  1.00  0.00    -0.029 A 
HETATM   10  C   UNL     1      43.458 -20.221   1.977  1.00  0.00     0.061 A 
HETATM   11  S   UNL     1      44.239 -21.733   2.162  1.00  0.00    -0.113 SA
HETATM   12  C   UNL     1      44.834 -21.294   3.703  1.00  0.00     0.050 A 
HETATM   13  C   UNL     1      44.442 -20.024   4.068  1.00  0.00     0.019 A 
ENDBRANCH   8   9
ENDBRANCH   4   7
ENDBRANCH   2   3
BRANCH   2  14
HETATM   14  C   UNL     1      41.641 -14.043   0.995  1.00  0.00     0.127 A 
HETATM   15  N   UNL     1      41.988 -12.956   0.328  1.00  0.00    -0.231 NA
HETATM   16  C   UNL     1      41.762 -13.249  -0.995  1.00  0.00     0.085 A 
HETATM   17  C   UNL     1      41.277 -14.543  -1.142  1.00  0.00     0.062 A 
HETATM   18  C   UNL     1      41.947 -12.453  -2.135  1.00  0.00     0.034 A 
HETATM   19  N   UNL     1      41.218 -15.030   0.138  1.00  0.00    -0.341 N 
HETATM   20  C   UNL     1      40.956 -15.106  -2.379  1.00  0.00     0.032 A 
HETATM   21  H   UNL     1      40.911 -15.954   0.405  1.00  0.00     0.167 HD
HETATM   22  C   UNL     1      41.145 -14.296  -3.506  1.00  0.00     0.002 A 
HETATM   23  C   UNL     1      41.631 -12.992  -3.388  1.00  0.00     0.002 A 
ENDBRANCH   2  14
TORSDOF 4
ENDMDL
MODEL 7
REMARK VINA RESULT:      -6.7      3.576      5.255
REMARK  4 active torsions:
REMARK  status: ('A' for Active; 'I' for Inactive)
REMARK    1  A    between atoms: C_2  and  N_3 
REMARK    2  A    between atoms: C_2  and  C_13 
REMARK       I    between atoms: N_3  and  C_4 
REMARK    3  A    between atoms: C_4  and  C_5 
REMARK    4  A    between atoms: C_6  and  C_7 
ROOT
HETATM    1  C   UNL     1      41.607 -16.345   0.268  1.00  0.00     0.040 C 
HETATM    2  C   UNL     1      41.039 -16.799   1.611  1.00  0.00     0.150 C 
ENDROOT
BRANCH   2   3
HETATM    3  N   UNL     1      40.815 -15.675   2.496  1.00  0.00    -0.346 N 
HETATM    4  C   UNL     1      39.637 -14.982   2.509  1.00  0.00     0.241 C 
HETATM    5  O   UNL     1      38.667 -15.271   1.820  1.00  0.00    -0.269 OA
HETATM    6  H   UNL     1      41.612 -15.388   3.055  1.00  0.00     0.163 HD
BRANCH   4   7
HETATM    7  C   UNL     1      39.650 -13.832   3.443  1.00  0.00     0.075 C 
HETATM    8  C   UNL     1      40.271 -13.946   4.629  1.00  0.00     0.017 C 
BRANCH   8   9
HETATM    9  C   UNL     1      40.361 -12.928   5.634  1.00  0.00    -0.029 A 
HETATM   10  C   UNL     1      41.517 -12.194   5.816  1.00  0.00     0.061 A 
HETATM   11  S   UNL     1      41.374 -11.045   7.077  1.00  0.00    -0.113 SA
HETATM   12  C   UNL     1      39.760 -11.513   7.389  1.00  0.00     0.050 A 
HETATM   13  C   UNL     1      39.342 -12.526   6.552  1.00  0.00     0.019 A 
ENDBRANCH   8   9
ENDBRANCH   4   7
ENDBRANCH   2   3
BRANCH   2  14
HETATM   14  C   UNL     1      41.999 -17.718   2.305  1.00  0.00     0.127 A 
HETATM   15  N   UNL     1      42.700 -18.694   1.752  1.00  0.00    -0.231 NA
HETATM   16  C   UNL     1      43.417 -19.258   2.779  1.00  0.00     0.085 A 
HETATM   17  C   UNL     1      43.160 -18.609   3.981  1.00  0.00     0.062 A 
HETATM   18  C   UNL     1      44.315 -20.336   2.760  1.00  0.00     0.034 A 
HETATM   19  N   UNL     1      42.262 -17.627   3.650  1.00  0.00    -0.341 N 
HETATM   20  C   UNL     1      43.751 -18.975   5.192  1.00  0.00     0.032 A 
HETATM   21  H   UNL     1      41.858 -16.957   4.288  1.00  0.00     0.167 HD
HETATM   22  C   UNL     1      44.642 -20.055   5.155  1.00  0.00     0.002 A 
HETATM   23  C   UNL     1      44.921 -20.725   3.961  1.00  0.00     0.002 A 
ENDBRANCH   2  14
TORSDOF 4
ENDMDL
MODEL 8
REMARK VINA RESULT:      -6.6      6.268      9.630
REMARK  4 active torsions:
REMARK  status: ('A' for Active; 'I' for Inactive)
REMARK    1  A    between atoms: C_2  and  N_3 
REMARK    2  A    between atoms: C_2  and  C_13 
REMARK       I    between atoms: N_3  and  C_4 
REMARK    3  A    between atoms: C_4  and  C_5 
REMARK    4  A    between atoms: C_6  and  C_7 
ROOT
HETATM    1  C   UNL     1      39.952 -10.846   6.843  1.00  0.00     0.040 C 
HETATM    2  C   UNL     1      41.450 -11.113   6.968  1.00  0.00     0.150 C 
ENDROOT
BRANCH   2   3
HETATM    3  N   UNL     1      41.772 -12.482   6.620  1.00  0.00    -0.346 N 
HETATM    4  C   UNL     1      42.052 -12.860   5.337  1.00  0.00     0.241 C 
HETATM    5  O   UNL     1      42.100 -12.084   4.391  1.00  0.00    -0.269 OA
HETATM    6  H   UNL     1      41.705 -13.157   7.376  1.00  0.00     0.163 HD
BRANCH   4   7
HETATM    7  C   UNL     1      42.288 -14.317   5.199  1.00  0.00     0.075 C 
HETATM    8  C   UNL     1      43.322 -14.886   5.839  1.00  0.00     0.017 C 
BRANCH   8   9
HETATM    9  C   UNL     1      43.679 -16.273   5.797  1.00  0.00    -0.029 A 
HETATM   10  C   UNL     1      43.183 -17.117   4.823  1.00  0.00     0.061 A 
HETATM   11  S   UNL     1      43.755 -18.722   4.990  1.00  0.00    -0.113 SA
HETATM   12  C   UNL     1      44.679 -18.303   6.365  1.00  0.00     0.050 A 
HETATM   13  C   UNL     1      44.552 -16.969   6.690  1.00  0.00     0.019 A 
ENDBRANCH   8   9
ENDBRANCH   4   7
ENDBRANCH   2   3
BRANCH   2  14
HETATM   14  C   UNL     1      41.906 -10.902   8.381  1.00  0.00     0.127 A 
HETATM   15  N   UNL     1      43.109 -10.518   8.774  1.00  0.00    -0.231 NA
HETATM   16  C   UNL     1      43.051 -10.482  10.147  1.00  0.00     0.085 A 
HETATM   17  C   UNL     1      41.788 -10.841  10.602  1.00  0.00     0.062 A 
HETATM   18  C   UNL     1      44.047 -10.150  11.078  1.00  0.00     0.034 A 
HETATM   19  N   UNL     1      41.076 -11.094   9.458  1.00  0.00    -0.341 N 
HETATM   20  C   UNL     1      41.446 -10.893  11.955  1.00  0.00     0.032 A 
HETATM   21  H   UNL     1      40.108 -11.379   9.416  1.00  0.00     0.167 HD
HETATM   22  C   UNL     1      42.453 -10.562  12.870  1.00  0.00     0.002 A 
HETATM   23  C   UNL     1      43.732 -10.197  12.442  1.00  0.00     0.002 A 
ENDBRANCH   2  14
TORSDOF 4
ENDMDL
MODEL 9
REMARK VINA RESULT:      -6.4      3.926      8.017
REMARK  4 active torsions:
REMARK  status: ('A' for Active; 'I' for Inactive)
REMARK    1  A    between atoms: C_2  and  N_3 
REMARK    2  A    between atoms: C_2  and  C_13 
REMARK       I    between atoms: N_3  and  C_4 
REMARK    3  A    between atoms: C_4  and  C_5 
REMARK    4  A    between atoms: C_6  and  C_7 
ROOT
HETATM    1  C   UNL     1      39.808 -13.810   2.257  1.00  0.00     0.040 C 
HETATM    2  C   UNL     1      40.421 -14.404   0.990  1.00  0.00     0.150 C 
ENDROOT
BRANCH   2   3
HETATM    3  N   UNL     1      41.421 -15.403   1.307  1.00  0.00    -0.346 N 
HETATM    4  C   UNL     1      41.817 -16.349   0.403  1.00  0.00     0.241 C 
HETATM    5  O   UNL     1      41.405 -16.409  -0.748  1.00  0.00    -0.269 OA
HETATM    6  H   UNL     1      41.757 -15.403   2.265  1.00  0.00     0.163 HD
BRANCH   4   7
HETATM    7  C   UNL     1      42.799 -17.309   0.960  1.00  0.00     0.075 C 
HETATM    8  C   UNL     1      42.492 -18.007   2.065  1.00  0.00     0.017 C 
BRANCH   8   9
HETATM    9  C   UNL     1      43.337 -18.962   2.721  1.00  0.00    -0.029 A 
HETATM   10  C   UNL     1      43.708 -18.810   4.043  1.00  0.00     0.061 A 
HETATM   11  S   UNL     1      44.719 -20.077   4.591  1.00  0.00    -0.113 SA
HETATM   12  C   UNL     1      44.668 -20.847   3.066  1.00  0.00     0.050 A 
HETATM   13  C   UNL     1      43.899 -20.150   2.159  1.00  0.00     0.019 A 
ENDBRANCH   8   9
ENDBRANCH   4   7
ENDBRANCH   2   3
BRANCH   2  14
HETATM   14  C   UNL     1      41.107 -13.339   0.188  1.00  0.00     0.127 A 
HETATM   15  N   UNL     1      41.897 -12.385   0.653  1.00  0.00    -0.231 NA
HETATM   16  C   UNL     1      42.269 -11.649  -0.447  1.00  0.00     0.085 A 
HETATM   17  C   UNL     1      41.705 -12.168  -1.607  1.00  0.00     0.062 A 
HETATM   18  C   UNL     1      43.091 -10.516  -0.532  1.00  0.00     0.034 A 
HETATM   19  N   UNL     1      40.979 -13.248  -1.177  1.00  0.00    -0.341 N 
HETATM   20  C   UNL     1      41.912 -11.617  -2.873  1.00  0.00     0.032 A 
HETATM   21  H   UNL     1      40.437 -13.866  -1.762  1.00  0.00     0.167 HD
HETATM   22  C   UNL     1      42.733 -10.484  -2.938  1.00  0.00     0.002 A 
HETATM   23  C   UNL     1      43.313  -9.941  -1.789  1.00  0.00     0.002 A 
ENDBRANCH   2  14
TORSDOF 4
ENDMDL
MODEL 10
REMARK VINA RESULT:      -6.3      3.915      7.814
REMARK  4 active torsions:
REMARK  status: ('A' for Active; 'I' for Inactive)
REMARK    1  A    between atoms: C_2  and  N_3 
REMARK    2  A    between atoms: C_2  and  C_13 
REMARK       I    between atoms: N_3  and  C_4 
REMARK    3  A    between atoms: C_4  and  C_5 
REMARK    4  A    between atoms: C_6  and  C_7 
ROOT
HETATM    1  C   UNL     1      38.766 -14.010   2.385  1.00  0.00     0.040 C 
HETATM    2  C   UNL     1      39.526 -15.130   1.677  1.00  0.00     0.150 C 
ENDROOT
BRANCH   2   3
HETATM    3  N   UNL     1      40.490 -15.753   2.562  1.00  0.00    -0.346 N 
HETATM    4  C   UNL     1      41.013 -16.990   2.312  1.00  0.00     0.241 C 
HETATM    5  O   UNL     1      40.754 -17.654   1.316  1.00  0.00    -0.269 OA
HETATM    6  H   UNL     1      40.699 -15.244   3.415  1.00  0.00     0.163 HD
BRANCH   4   7
HETATM    7  C   UNL     1      41.928 -17.460   3.379  1.00  0.00     0.075 C 
HETATM    8  C   UNL     1      41.586 -17.296   4.667  1.00  0.00     0.017 C 
BRANCH   8   9
HETATM    9  C   UNL     1      42.366 -17.690   5.803  1.00  0.00    -0.029 A 
HETATM   10  C   UNL     1      43.161 -18.819   5.777  1.00  0.00     0.061 A 
HETATM   11  S   UNL     1      43.989 -19.075   7.253  1.00  0.00    -0.113 SA
HETATM   12  C   UNL     1      43.297 -17.673   7.943  1.00  0.00     0.050 A 
HETATM   13  C   UNL     1      42.451 -17.026   7.066  1.00  0.00     0.019 A 
ENDBRANCH   8   9
ENDBRANCH   4   7
ENDBRANCH   2   3
BRANCH   2  14
HETATM   14  C   UNL     1      40.292 -14.589   0.507  1.00  0.00     0.127 A 
HETATM   15  N   UNL     1      41.110 -13.550   0.510  1.00  0.00    -0.231 NA
HETATM   16  C   UNL     1      41.557 -13.432  -0.785  1.00  0.00     0.085 A 
HETATM   17  C   UNL     1      41.011 -14.423  -1.592  1.00  0.00     0.062 A 
HETATM   18  C   UNL     1      42.436 -12.496  -1.348  1.00  0.00     0.034 A 
HETATM   19  N   UNL     1      40.218 -15.152  -0.744  1.00  0.00    -0.341 N 
HETATM   20  C   UNL     1      41.290 -14.542  -2.955  1.00  0.00     0.032 A 
HETATM   21  H   UNL     1      39.668 -15.960  -0.998  1.00  0.00     0.167 HD
HETATM   22  C   UNL     1      42.167 -13.597  -3.501  1.00  0.00     0.002 A 
HETATM   23  C   UNL     1      42.732 -12.590  -2.714  1.00  0.00     0.002 A 
ENDBRANCH   2  14
TORSDOF 4
ENDMDL
