MODEL 1
REMARK VINA RESULT:      -7.7      0.000      0.000
REMARK  10 active torsions:
REMARK  status: ('A' for Active; 'I' for Inactive)
REMARK    1  A    between atoms: C_2  and  C_3 
REMARK    2  A    between atoms: C_3  and  C_4 
REMARK    3  A    between atoms: C_4  and  N_5 
REMARK    4  A    between atoms: N_5  and  C_7 
REMARK    5  A    between atoms: C_7  and  C_8 
REMARK    6  A    between atoms: C_8  and  C_9 
REMARK    7  A    between atoms: C_9  and  N_10 
REMARK       I    between atoms: N_10  and  C_11 
REMARK    8  A    between atoms: C_11  and  C_12 
REMARK    9  A    between atoms: C_12  and  O_13 
REMARK   10  A    between atoms: N_14  and  C_15 
ROOT
HETATM    1  C   UNL     1      40.522 -15.800   2.065  1.00  0.00     0.256 C 
HETATM    2  N   UNL     1      40.427 -14.911   0.888  1.00  0.00    -0.254 N 
HETATM    3  C   UNL     1      41.114 -15.215  -0.280  1.00  0.00     0.330 C 
HETATM    4  O   UNL     1      40.951 -14.678  -1.375  1.00  0.00    -0.246 OA
HETATM    5  N   UNL     1      42.090 -16.160  -0.216  1.00  0.00    -0.308 N 
HETATM    6  C   UNL     1      42.465 -16.876   0.903  1.00  0.00     0.048 A 
HETATM    7  C   UNL     1      41.733 -16.726   2.071  1.00  0.00     0.034 A 
HETATM    8  C   UNL     1      43.562 -17.737   0.838  1.00  0.00     0.030 A 
HETATM    9  C   UNL     1      43.944 -18.460   1.966  1.00  0.00     0.002 A 
HETATM   10  C   UNL     1      43.219 -18.334   3.147  1.00  0.00     0.001 A 
HETATM   11  C   UNL     1      42.114 -17.481   3.199  1.00  0.00     0.015 A 
HETATM   12  H   UNL     1      42.569 -16.308  -1.098  1.00  0.00     0.170 HD
ENDROOT
BRANCH   1  13
HETATM   13  C   UNL     1      40.663 -14.888   3.380  1.00  0.00     0.279 C 
HETATM   14  N   UNL     1      41.927 -14.335   3.582  1.00  0.00    -0.356 N 
HETATM   15  H   UNL     1      42.508 -14.337   2.744  1.00  0.00     0.162 HD
HETATM   16  O   UNL     1      39.779 -14.823   4.239  1.00  0.00    -0.268 OA
BRANCH  14  17
HETATM   17  C   UNL     1      42.232 -13.281   4.533  1.00  0.00     0.124 C 
BRANCH  17  18
HETATM   18  C   UNL     1      42.905 -13.688   5.845  1.00  0.00     0.047 C 
BRANCH  18  19
HETATM   19  C   UNL     1      43.334 -15.152   5.860  1.00  0.00     0.236 C 
BRANCH  19  20
HETATM   20  N   UNL     1      42.706 -15.924   7.015  1.00  0.00    -0.075 N 
HETATM   21  H   UNL     1      42.438 -15.247   7.740  1.00  0.00     0.279 HD
HETATM   22  C   UNL     1      41.434 -16.644   6.612  1.00  0.00     0.269 C 
BRANCH  20  23
HETATM   23  C   UNL     1      43.664 -16.924   7.639  1.00  0.00     0.234 C 
BRANCH  23  24
HETATM   24  C   UNL     1      44.801 -17.349   6.714  1.00  0.00     0.027 C 
BRANCH  24  25
HETATM   25  C   UNL     1      44.750 -18.819   6.301  1.00  0.00    -0.003 C 
HETATM   26  C   UNL     1      43.744 -19.590   7.143  1.00  0.00     0.005 C 
ENDBRANCH  24  25
ENDBRANCH  23  24
ENDBRANCH  20  23
ENDBRANCH  19  20
ENDBRANCH  18  19
ENDBRANCH  17  18
ENDBRANCH  14  17
ENDBRANCH   1  13
BRANCH   1  27
HETATM   27  O   UNL     1      39.365 -16.626   2.083  1.00  0.00    -0.359 OA
HETATM   28  H   UNL     1      38.610 -16.091   2.372  1.00  0.00     0.213 HD
ENDBRANCH   1  27
BRANCH   2  29
HETATM   29  C   UNL     1      39.471 -13.816   0.898  1.00  0.00     0.042 A 
HETATM   30  C   UNL     1      39.866 -12.477   1.062  1.00  0.00     0.030 A 
HETATM   31  C   UNL     1      38.941 -11.427   0.998  1.00  0.00     0.002 A 
HETATM   32  C   UNL     1      37.597 -11.692   0.765  1.00  0.00     0.000 A 
HETATM   33  C   UNL     1      37.179 -13.007   0.600  1.00  0.00     0.002 A 
HETATM   34  C   UNL     1      38.105 -14.053   0.665  1.00  0.00     0.030 A 
ENDBRANCH   2  29
TORSDOF 10
ENDMDL
MODEL 2
REMARK VINA RESULT:      -7.7      3.987      7.487
REMARK  10 active torsions:
REMARK  status: ('A' for Active; 'I' for Inactive)
REMARK    1  A    between atoms: C_2  and  C_3 
REMARK    2  A    between atoms: C_3  and  C_4 
REMARK    3  A    between atoms: C_4  and  N_5 
REMARK    4  A    between atoms: N_5  and  C_7 
REMARK    5  A    between atoms: C_7  and  C_8 
REMARK    6  A    between atoms: C_8  and  C_9 
REMARK    7  A    between atoms: C_9  and  N_10 
REMARK       I    between atoms: N_10  and  C_11 
REMARK    8  A    between atoms: C_11  and  C_12 
REMARK    9  A    between atoms: C_12  and  O_13 
REMARK   10  A    between atoms: N_14  and  C_15 
ROOT
HETATM    1  C   UNL     1      42.390 -14.394   5.067  1.00  0.00     0.256 C 
HETATM    2  N   UNL     1      42.052 -15.689   5.694  1.00  0.00    -0.254 N 
HETATM    3  C   UNL     1      40.764 -15.934   6.150  1.00  0.00     0.330 C 
HETATM    4  O   UNL     1      40.314 -17.028   6.491  1.00  0.00    -0.246 OA
HETATM    5  N   UNL     1      39.923 -14.874   6.280  1.00  0.00    -0.308 N 
HETATM    6  C   UNL     1      40.212 -13.557   5.983  1.00  0.00     0.048 A 
HETATM    7  C   UNL     1      41.430 -13.256   5.394  1.00  0.00     0.034 A 
HETATM    8  C   UNL     1      39.278 -12.561   6.274  1.00  0.00     0.030 A 
HETATM    9  C   UNL     1      39.568 -11.232   5.977  1.00  0.00     0.002 A 
HETATM   10  C   UNL     1      40.780 -10.904   5.376  1.00  0.00     0.001 A 
HETATM   11  C   UNL     1      41.702 -11.909   5.076  1.00  0.00     0.015 A 
HETATM   12  H   UNL     1      39.010 -15.124   6.647  1.00  0.00     0.170 HD
ENDROOT
BRANCH   1  13
HETATM   13  C   UNL     1      43.827 -13.925   5.613  1.00  0.00     0.279 C 
HETATM   14  N   UNL     1      43.871 -13.621   6.973  1.00  0.00    -0.356 N 
HETATM   15  H   UNL     1      43.084 -14.002   7.499  1.00  0.00     0.162 HD
HETATM   16  O   UNL     1      44.774 -13.680   4.861  1.00  0.00    -0.268 OA
BRANCH  14  17
HETATM   17  C   UNL     1      45.086 -13.434   7.746  1.00  0.00     0.124 C 
BRANCH  17  18
HETATM   18  C   UNL     1      45.130 -12.253   8.717  1.00  0.00     0.047 C 
BRANCH  18  19
HETATM   19  C   UNL     1      43.775 -11.573   8.881  1.00  0.00     0.236 C 
BRANCH  19  20
HETATM   20  N   UNL     1      43.266 -11.642  10.317  1.00  0.00    -0.075 N 
HETATM   21  H   UNL     1      42.361 -12.128  10.309  1.00  0.00     0.279 HD
HETATM   22  C   UNL     1      44.178 -12.448  11.220  1.00  0.00     0.269 C 
BRANCH  20  23
HETATM   23  C   UNL     1      43.054 -10.268  10.928  1.00  0.00     0.234 C 
BRANCH  23  24
HETATM   24  C   UNL     1      43.739 -10.081  12.280  1.00  0.00     0.027 C 
BRANCH  24  25
HETATM   25  C   UNL     1      42.991  -9.148  13.231  1.00  0.00    -0.003 C 
HETATM   26  C   UNL     1      42.570  -9.878  14.498  1.00  0.00     0.005 C 
ENDBRANCH  24  25
ENDBRANCH  23  24
ENDBRANCH  20  23
ENDBRANCH  19  20
ENDBRANCH  18  19
ENDBRANCH  17  18
ENDBRANCH  14  17
ENDBRANCH   1  13
BRANCH   1  27
HETATM   27  O   UNL     1      42.362 -14.571   3.657  1.00  0.00    -0.359 OA
HETATM   28  H   UNL     1      41.440 -14.685   3.380  1.00  0.00     0.213 HD
ENDBRANCH   1  27
BRANCH   2  29
HETATM   29  C   UNL     1      43.026 -16.769   5.667  1.00  0.00     0.042 A 
HETATM   30  C   UNL     1      43.269 -17.531   4.511  1.00  0.00     0.030 A 
HETATM   31  C   UNL     1      44.260 -18.520   4.482  1.00  0.00     0.002 A 
HETATM   32  C   UNL     1      45.036 -18.768   5.607  1.00  0.00     0.000 A 
HETATM   33  C   UNL     1      44.816 -18.029   6.764  1.00  0.00     0.002 A 
HETATM   34  C   UNL     1      43.826 -17.042   6.790  1.00  0.00     0.030 A 
ENDBRANCH   2  29
TORSDOF 10
ENDMDL
MODEL 3
REMARK VINA RESULT:      -7.5      2.331      5.070
REMARK  10 active torsions:
REMARK  status: ('A' for Active; 'I' for Inactive)
REMARK    1  A    between atoms: C_2  and  C_3 
REMARK    2  A    between atoms: C_3  and  C_4 
REMARK    3  A    between atoms: C_4  and  N_5 
REMARK    4  A    between atoms: N_5  and  C_7 
REMARK    5  A    between atoms: C_7  and  C_8 
REMARK    6  A    between atoms: C_8  and  C_9 
REMARK    7  A    between atoms: C_9  and  N_10 
REMARK       I    between atoms: N_10  and  C_11 
REMARK    8  A    between atoms: C_11  and  C_12 
REMARK    9  A    between atoms: C_12  and  O_13 
REMARK   10  A    between atoms: N_14  and  C_15 
ROOT
HETATM    1  C   UNL     1      40.963 -15.256   0.766  1.00  0.00     0.256 C 
HETATM    2  N   UNL     1      41.564 -14.377   1.790  1.00  0.00    -0.254 N 
HETATM    3  C   UNL     1      41.894 -13.064   1.482  1.00  0.00     0.330 C 
HETATM    4  O   UNL     1      42.199 -12.187   2.290  1.00  0.00    -0.246 OA
HETATM    5  N   UNL     1      41.934 -12.708   0.170  1.00  0.00    -0.308 N 
HETATM    6  C   UNL     1      41.656 -13.525  -0.908  1.00  0.00     0.048 A 
HETATM    7  C   UNL     1      41.186 -14.807  -0.674  1.00  0.00     0.034 A 
HETATM    8  C   UNL     1      41.847 -13.045  -2.206  1.00  0.00     0.030 A 
HETATM    9  C   UNL     1      41.569 -13.867  -3.295  1.00  0.00     0.002 A 
HETATM   10  C   UNL     1      41.087 -15.156  -3.086  1.00  0.00     0.001 A 
HETATM   11  C   UNL     1      40.886 -15.622  -1.785  1.00  0.00     0.015 A 
HETATM   12  H   UNL     1      42.212 -11.745   0.020  1.00  0.00     0.170 HD
ENDROOT
BRANCH   1  13
HETATM   13  C   UNL     1      41.643 -16.708   0.881  1.00  0.00     0.279 C 
HETATM   14  N   UNL     1      43.018 -16.736   0.653  1.00  0.00    -0.356 N 
HETATM   15  H   UNL     1      43.459 -15.819   0.728  1.00  0.00     0.162 HD
HETATM   16  O   UNL     1      40.980 -17.744   0.987  1.00  0.00    -0.268 OA
BRANCH  14  17
HETATM   17  C   UNL     1      43.889 -17.858   0.955  1.00  0.00     0.124 C 
BRANCH  17  18
HETATM   18  C   UNL     1      43.705 -18.550   2.307  1.00  0.00     0.047 C 
BRANCH  18  19
HETATM   19  C   UNL     1      43.128 -19.956   2.177  1.00  0.00     0.236 C 
BRANCH  19  20
HETATM   20  N   UNL     1      43.951 -20.988   2.940  1.00  0.00    -0.075 N 
HETATM   21  H   UNL     1      43.304 -21.567   3.489  1.00  0.00     0.279 HD
HETATM   22  C   UNL     1      44.696 -21.935   2.019  1.00  0.00     0.269 C 
BRANCH  20  23
HETATM   23  C   UNL     1      44.941 -20.352   3.901  1.00  0.00     0.234 C 
BRANCH  23  24
HETATM   24  C   UNL     1      44.577 -20.535   5.372  1.00  0.00     0.027 C 
BRANCH  24  25
HETATM   25  C   UNL     1      44.084 -19.259   6.053  1.00  0.00    -0.003 C 
HETATM   26  C   UNL     1      45.225 -18.277   6.269  1.00  0.00     0.005 C 
ENDBRANCH  24  25
ENDBRANCH  23  24
ENDBRANCH  20  23
ENDBRANCH  19  20
ENDBRANCH  18  19
ENDBRANCH  17  18
ENDBRANCH  14  17
ENDBRANCH   1  13
BRANCH   1  27
HETATM   27  O   UNL     1      39.558 -15.282   0.982  1.00  0.00    -0.359 OA
HETATM   28  H   UNL     1      39.175 -15.978   0.426  1.00  0.00     0.213 HD
ENDBRANCH   1  27
BRANCH   2  29
HETATM   29  C   UNL     1      41.641 -14.836   3.167  1.00  0.00     0.042 A 
HETATM   30  C   UNL     1      40.495 -15.019   3.962  1.00  0.00     0.030 A 
HETATM   31  C   UNL     1      40.581 -15.530   5.263  1.00  0.00     0.002 A 
HETATM   32  C   UNL     1      41.815 -15.874   5.800  1.00  0.00     0.000 A 
HETATM   33  C   UNL     1      42.964 -15.702   5.037  1.00  0.00     0.002 A 
HETATM   34  C   UNL     1      42.875 -15.191   3.738  1.00  0.00     0.030 A 
ENDBRANCH   2  29
TORSDOF 10
ENDMDL
MODEL 4
REMARK VINA RESULT:      -7.4      3.126      4.735
REMARK  10 active torsions:
REMARK  status: ('A' for Active; 'I' for Inactive)
REMARK    1  A    between atoms: C_2  and  C_3 
REMARK    2  A    between atoms: C_3  and  C_4 
REMARK    3  A    between atoms: C_4  and  N_5 
REMARK    4  A    between atoms: N_5  and  C_7 
REMARK    5  A    between atoms: C_7  and  C_8 
REMARK    6  A    between atoms: C_8  and  C_9 
REMARK    7  A    between atoms: C_9  and  N_10 
REMARK       I    between atoms: N_10  and  C_11 
REMARK    8  A    between atoms: C_11  and  C_12 
REMARK    9  A    between atoms: C_12  and  O_13 
REMARK   10  A    between atoms: N_14  and  C_15 
ROOT
HETATM    1  C   UNL     1      41.747 -16.151   4.263  1.00  0.00     0.256 C 
HETATM    2  N   UNL     1      41.692 -14.772   3.736  1.00  0.00    -0.254 N 
HETATM    3  C   UNL     1      42.023 -14.511   2.413  1.00  0.00     0.330 C 
HETATM    4  O   UNL     1      41.818 -13.457   1.811  1.00  0.00    -0.246 OA
HETATM    5  N   UNL     1      42.673 -15.482   1.716  1.00  0.00    -0.308 N 
HETATM    6  C   UNL     1      43.029 -16.729   2.188  1.00  0.00     0.048 A 
HETATM    7  C   UNL     1      42.611 -17.111   3.453  1.00  0.00     0.034 A 
HETATM    8  C   UNL     1      43.792 -17.579   1.386  1.00  0.00     0.030 A 
HETATM    9  C   UNL     1      44.154 -18.838   1.859  1.00  0.00     0.002 A 
HETATM   10  C   UNL     1      43.739 -19.249   3.123  1.00  0.00     0.001 A 
HETATM   11  C   UNL     1      42.963 -18.398   3.912  1.00  0.00     0.015 A 
HETATM   12  H   UNL     1      42.909 -15.210   0.768  1.00  0.00     0.170 HD
ENDROOT
BRANCH   1  13
HETATM   13  C   UNL     1      42.398 -16.110   5.731  1.00  0.00     0.279 C 
HETATM   14  N   UNL     1      43.714 -15.650   5.780  1.00  0.00    -0.356 N 
HETATM   15  H   UNL     1      43.994 -15.137   4.945  1.00  0.00     0.162 HD
HETATM   16  O   UNL     1      41.845 -16.609   6.716  1.00  0.00    -0.268 OA
BRANCH  14  17
HETATM   17  C   UNL     1      44.419 -15.274   6.993  1.00  0.00     0.124 C 
BRANCH  17  18
HETATM   18  C   UNL     1      45.119 -13.915   7.008  1.00  0.00     0.047 C 
BRANCH  18  19
HETATM   19  C   UNL     1      44.689 -13.041   8.182  1.00  0.00     0.236 C 
BRANCH  19  20
HETATM   20  N   UNL     1      45.877 -12.385   8.877  1.00  0.00    -0.075 N 
HETATM   21  H   UNL     1      46.279 -13.069   9.531  1.00  0.00     0.279 HD
HETATM   22  C   UNL     1      46.985 -12.014   7.911  1.00  0.00     0.269 C 
BRANCH  20  23
HETATM   23  C   UNL     1      45.482 -11.153   9.673  1.00  0.00     0.234 C 
BRANCH  23  24
HETATM   24  C   UNL     1      43.980 -11.037   9.925  1.00  0.00     0.027 C 
BRANCH  24  25
HETATM   25  C   UNL     1      43.574 -11.286  11.378  1.00  0.00    -0.003 C 
HETATM   26  C   UNL     1      43.705 -10.018  12.208  1.00  0.00     0.005 C 
ENDBRANCH  24  25
ENDBRANCH  23  24
ENDBRANCH  20  23
ENDBRANCH  19  20
ENDBRANCH  18  19
ENDBRANCH  17  18
ENDBRANCH  14  17
ENDBRANCH   1  13
BRANCH   1  27
HETATM   27  O   UNL     1      40.424 -16.674   4.256  1.00  0.00    -0.359 OA
HETATM   28  H   UNL     1      39.911 -16.219   4.941  1.00  0.00     0.213 HD
ENDBRANCH   1  27
BRANCH   2  29
HETATM   29  C   UNL     1      41.119 -13.718   4.558  1.00  0.00     0.042 A 
HETATM   30  C   UNL     1      39.745 -13.656   4.847  1.00  0.00     0.030 A 
HETATM   31  C   UNL     1      39.219 -12.675   5.698  1.00  0.00     0.002 A 
HETATM   32  C   UNL     1      40.057 -11.735   6.284  1.00  0.00     0.000 A 
HETATM   33  C   UNL     1      41.420 -11.773   6.015  1.00  0.00     0.002 A 
HETATM   34  C   UNL     1      41.942 -12.753   5.165  1.00  0.00     0.030 A 
ENDBRANCH   2  29
TORSDOF 10
ENDMDL
MODEL 5
REMARK VINA RESULT:      -7.3      3.612      7.344
REMARK  10 active torsions:
REMARK  status: ('A' for Active; 'I' for Inactive)
REMARK    1  A    between atoms: C_2  and  C_3 
REMARK    2  A    between atoms: C_3  and  C_4 
REMARK    3  A    between atoms: C_4  and  N_5 
REMARK    4  A    between atoms: N_5  and  C_7 
REMARK    5  A    between atoms: C_7  and  C_8 
REMARK    6  A    between atoms: C_8  and  C_9 
REMARK    7  A    between atoms: C_9  and  N_10 
REMARK       I    between atoms: N_10  and  C_11 
REMARK    8  A    between atoms: C_11  and  C_12 
REMARK    9  A    between atoms: C_12  and  O_13 
REMARK   10  A    between atoms: N_14  and  C_15 
ROOT
HETATM    1  C   UNL     1      42.384 -14.418   5.029  1.00  0.00     0.256 C 
HETATM    2  N   UNL     1      42.082 -15.704   5.691  1.00  0.00    -0.254 N 
HETATM    3  C   UNL     1      40.802 -15.971   6.157  1.00  0.00     0.330 C 
HETATM    4  O   UNL     1      40.382 -17.066   6.529  1.00  0.00    -0.246 OA
HETATM    5  N   UNL     1      39.933 -14.930   6.261  1.00  0.00    -0.308 N 
HETATM    6  C   UNL     1      40.188 -13.614   5.928  1.00  0.00     0.048 A 
HETATM    7  C   UNL     1      41.396 -13.297   5.327  1.00  0.00     0.034 A 
HETATM    8  C   UNL     1      39.228 -12.636   6.194  1.00  0.00     0.030 A 
HETATM    9  C   UNL     1      39.482 -11.307   5.860  1.00  0.00     0.002 A 
HETATM   10  C   UNL     1      40.684 -10.965   5.248  1.00  0.00     0.001 A 
HETATM   11  C   UNL     1      41.632 -11.953   4.972  1.00  0.00     0.015 A 
HETATM   12  H   UNL     1      39.029 -15.193   6.637  1.00  0.00     0.170 HD
ENDROOT
BRANCH   1  13
HETATM   13  C   UNL     1      43.809 -13.897   5.558  1.00  0.00     0.279 C 
HETATM   14  N   UNL     1      43.852 -13.569   6.912  1.00  0.00    -0.356 N 
HETATM   15  H   UNL     1      43.080 -13.964   7.448  1.00  0.00     0.162 HD
HETATM   16  O   UNL     1      44.745 -13.637   4.795  1.00  0.00    -0.268 OA
BRANCH  14  17
HETATM   17  C   UNL     1      45.066 -13.333   7.673  1.00  0.00     0.124 C 
BRANCH  17  18
HETATM   18  C   UNL     1      44.911 -12.821   9.106  1.00  0.00     0.047 C 
BRANCH  18  19
HETATM   19  C   UNL     1      44.058 -11.559   9.194  1.00  0.00     0.236 C 
BRANCH  19  20
HETATM   20  N   UNL     1      42.953 -11.682  10.237  1.00  0.00    -0.075 N 
HETATM   21  H   UNL     1      42.592 -12.643  10.205  1.00  0.00     0.279 HD
HETATM   22  C   UNL     1      43.458 -11.462  11.649  1.00  0.00     0.269 C 
BRANCH  20  23
HETATM   23  C   UNL     1      41.793 -10.737   9.974  1.00  0.00     0.234 C 
BRANCH  23  24
HETATM   24  C   UNL     1      41.857 -10.045   8.615  1.00  0.00     0.027 C 
BRANCH  24  25
HETATM   25  C   UNL     1      40.975  -8.801   8.509  1.00  0.00    -0.003 C 
HETATM   26  C   UNL     1      41.310  -7.996   7.263  1.00  0.00     0.005 C 
ENDBRANCH  24  25
ENDBRANCH  23  24
ENDBRANCH  20  23
ENDBRANCH  19  20
ENDBRANCH  18  19
ENDBRANCH  17  18
ENDBRANCH  14  17
ENDBRANCH   1  13
BRANCH   1  27
HETATM   27  O   UNL     1      42.358 -14.633   3.623  1.00  0.00    -0.359 OA
HETATM   28  H   UNL     1      41.436 -14.749   3.348  1.00  0.00     0.213 HD
ENDBRANCH   1  27
BRANCH   2  29
HETATM   29  C   UNL     1      43.084 -16.758   5.690  1.00  0.00     0.042 A 
HETATM   30  C   UNL     1      43.848 -17.067   6.829  1.00  0.00     0.030 A 
HETATM   31  C   UNL     1      44.758 -18.132   6.833  1.00  0.00     0.002 A 
HETATM   32  C   UNL     1      44.923 -18.916   5.698  1.00  0.00     0.000 A 
HETATM   33  C   UNL     1      44.181 -18.632   4.558  1.00  0.00     0.002 A 
HETATM   34  C   UNL     1      43.273 -17.568   4.557  1.00  0.00     0.030 A 
ENDBRANCH   2  29
TORSDOF 10
ENDMDL
MODEL 6
REMARK VINA RESULT:      -7.2      2.259      5.384
REMARK  10 active torsions:
REMARK  status: ('A' for Active; 'I' for Inactive)
REMARK    1  A    between atoms: C_2  and  C_3 
REMARK    2  A    between atoms: C_3  and  C_4 
REMARK    3  A    between atoms: C_4  and  N_5 
REMARK    4  A    between atoms: N_5  and  C_7 
REMARK    5  A    between atoms: C_7  and  C_8 
REMARK    6  A    between atoms: C_8  and  C_9 
REMARK    7  A    between atoms: C_9  and  N_10 
REMARK       I    between atoms: N_10  and  C_11 
REMARK    8  A    between atoms: C_11  and  C_12 
REMARK    9  A    between atoms: C_12  and  O_13 
REMARK   10  A    between atoms: N_14  and  C_15 
ROOT
HETATM    1  C   UNL     1      42.054 -14.254   4.069  1.00  0.00     0.256 C 
HETATM    2  N   UNL     1      41.556 -15.029   2.913  1.00  0.00    -0.254 N 
HETATM    3  C   UNL     1      40.517 -14.540   2.135  1.00  0.00     0.330 C 
HETATM    4  O   UNL     1      40.161 -14.983   1.043  1.00  0.00    -0.246 OA
HETATM    5  N   UNL     1      39.784 -13.505   2.628  1.00  0.00    -0.308 N 
HETATM    6  C   UNL     1      39.981 -12.865   3.836  1.00  0.00     0.048 A 
HETATM    7  C   UNL     1      41.084 -13.207   4.603  1.00  0.00     0.034 A 
HETATM    8  C   UNL     1      39.076 -11.888   4.256  1.00  0.00     0.030 A 
HETATM    9  C   UNL     1      39.272 -11.242   5.474  1.00  0.00     0.002 A 
HETATM   10  C   UNL     1      40.376 -11.560   6.258  1.00  0.00     0.001 A 
HETATM   11  C   UNL     1      41.284 -12.528   5.823  1.00  0.00     0.015 A 
HETATM   12  H   UNL     1      39.024 -13.221   2.020  1.00  0.00     0.170 HD
ENDROOT
BRANCH   1  13
HETATM   13  C   UNL     1      42.316 -15.269   5.287  1.00  0.00     0.279 C 
HETATM   14  N   UNL     1      43.653 -15.427   5.647  1.00  0.00    -0.356 N 
HETATM   15  H   UNL     1      44.256 -14.682   5.299  1.00  0.00     0.162 HD
HETATM   16  O   UNL     1      41.427 -15.988   5.753  1.00  0.00    -0.268 OA
BRANCH  14  17
HETATM   17  C   UNL     1      44.118 -16.069   6.864  1.00  0.00     0.124 C 
BRANCH  17  18
HETATM   18  C   UNL     1      44.768 -17.448   6.729  1.00  0.00     0.047 C 
BRANCH  18  19
HETATM   19  C   UNL     1      43.808 -18.588   7.054  1.00  0.00     0.236 C 
BRANCH  19  20
HETATM   20  N   UNL     1      44.268 -19.915   6.460  1.00  0.00    -0.075 N 
HETATM   21  H   UNL     1      45.273 -20.014   6.648  1.00  0.00     0.279 HD
HETATM   22  C   UNL     1      43.591 -21.108   7.106  1.00  0.00     0.269 C 
BRANCH  20  23
HETATM   23  C   UNL     1      44.064 -19.984   4.957  1.00  0.00     0.234 C 
BRANCH  23  24
HETATM   24  C   UNL     1      45.119 -20.813   4.228  1.00  0.00     0.027 C 
BRANCH  24  25
HETATM   25  C   UNL     1      44.582 -22.109   3.623  1.00  0.00    -0.003 C 
HETATM   26  C   UNL     1      44.335 -21.957   2.130  1.00  0.00     0.005 C 
ENDBRANCH  24  25
ENDBRANCH  23  24
ENDBRANCH  20  23
ENDBRANCH  19  20
ENDBRANCH  18  19
ENDBRANCH  17  18
ENDBRANCH  14  17
ENDBRANCH   1  13
BRANCH   1  27
HETATM   27  O   UNL     1      43.228 -13.564   3.659  1.00  0.00    -0.359 OA
HETATM   28  H   UNL     1      43.258 -13.558   2.690  1.00  0.00     0.213 HD
ENDBRANCH   1  27
BRANCH   2  29
HETATM   29  C   UNL     1      42.279 -16.217   2.489  1.00  0.00     0.042 A 
HETATM   30  C   UNL     1      41.719 -17.504   2.571  1.00  0.00     0.030 A 
HETATM   31  C   UNL     1      42.400 -18.631   2.092  1.00  0.00     0.002 A 
HETATM   32  C   UNL     1      43.657 -18.496   1.515  1.00  0.00     0.000 A 
HETATM   33  C   UNL     1      44.234 -17.235   1.422  1.00  0.00     0.002 A 
HETATM   34  C   UNL     1      43.552 -16.112   1.901  1.00  0.00     0.030 A 
ENDBRANCH   2  29
TORSDOF 10
ENDMDL
MODEL 7
REMARK VINA RESULT:      -7.0      2.168      3.297
REMARK  10 active torsions:
REMARK  status: ('A' for Active; 'I' for Inactive)
REMARK    1  A    between atoms: C_2  and  C_3 
REMARK    2  A    between atoms: C_3  and  C_4 
REMARK    3  A    between atoms: C_4  and  N_5 
REMARK    4  A    between atoms: N_5  and  C_7 
REMARK    5  A    between atoms: C_7  and  C_8 
REMARK    6  A    between atoms: C_8  and  C_9 
REMARK    7  A    between atoms: C_9  and  N_10 
REMARK       I    between atoms: N_10  and  C_11 
REMARK    8  A    between atoms: C_11  and  C_12 
REMARK    9  A    between atoms: C_12  and  O_13 
REMARK   10  A    between atoms: N_14  and  C_15 
ROOT
HETATM    1  C   UNL     1      41.181 -15.497   3.651  1.00  0.00     0.256 C 
HETATM    2  N   UNL     1      41.547 -14.106   3.312  1.00  0.00    -0.254 N 
HETATM    3  C   UNL     1      42.299 -13.834   2.178  1.00  0.00     0.330 C 
HETATM    4  O   UNL     1      42.486 -12.722   1.684  1.00  0.00    -0.246 OA
HETATM    5  N   UNL     1      42.932 -14.873   1.569  1.00  0.00    -0.308 N 
HETATM    6  C   UNL     1      42.890 -16.198   1.957  1.00  0.00     0.048 A 
HETATM    7  C   UNL     1      42.050 -16.565   2.996  1.00  0.00     0.034 A 
HETATM    8  C   UNL     1      43.683 -17.137   1.295  1.00  0.00     0.030 A 
HETATM    9  C   UNL     1      43.643 -18.473   1.683  1.00  0.00     0.002 A 
HETATM   10  C   UNL     1      42.801 -18.869   2.718  1.00  0.00     0.001 A 
HETATM   11  C   UNL     1      42.000 -17.925   3.364  1.00  0.00     0.015 A 
HETATM   12  H   UNL     1      43.487 -14.595   0.767  1.00  0.00     0.170 HD
ENDROOT
BRANCH   1  13
HETATM   13  C   UNL     1      41.361 -15.699   5.235  1.00  0.00     0.279 C 
HETATM   14  N   UNL     1      42.682 -15.765   5.675  1.00  0.00    -0.356 N 
HETATM   15  H   UNL     1      43.352 -15.395   5.001  1.00  0.00     0.162 HD
HETATM   16  O   UNL     1      40.412 -15.953   5.983  1.00  0.00    -0.268 OA
BRANCH  14  17
HETATM   17  C   UNL     1      43.103 -15.677   7.063  1.00  0.00     0.124 C 
BRANCH  17  18
HETATM   18  C   UNL     1      43.602 -16.960   7.730  1.00  0.00     0.047 C 
BRANCH  18  19
HETATM   19  C   UNL     1      43.143 -18.221   7.004  1.00  0.00     0.236 C 
BRANCH  19  20
HETATM   20  N   UNL     1      44.188 -18.729   6.016  1.00  0.00    -0.075 N 
HETATM   21  H   UNL     1      43.960 -18.347   5.090  1.00  0.00     0.279 HD
HETATM   22  C   UNL     1      45.586 -18.246   6.347  1.00  0.00     0.269 C 
BRANCH  20  23
HETATM   23  C   UNL     1      44.201 -20.244   5.907  1.00  0.00     0.234 C 
BRANCH  23  24
HETATM   24  C   UNL     1      45.101 -20.775   4.794  1.00  0.00     0.027 C 
BRANCH  24  25
HETATM   25  C   UNL     1      44.761 -22.196   4.345  1.00  0.00    -0.003 C 
HETATM   26  C   UNL     1      44.429 -22.237   2.861  1.00  0.00     0.005 C 
ENDBRANCH  24  25
ENDBRANCH  23  24
ENDBRANCH  20  23
ENDBRANCH  19  20
ENDBRANCH  18  19
ENDBRANCH  17  18
ENDBRANCH  14  17
ENDBRANCH   1  13
BRANCH   1  27
HETATM   27  O   UNL     1      39.847 -15.718   3.211  1.00  0.00    -0.359 OA
HETATM   28  H   UNL     1      39.242 -15.444   3.917  1.00  0.00     0.213 HD
ENDBRANCH   1  27
BRANCH   2  29
HETATM   29  C   UNL     1      40.965 -13.011   4.072  1.00  0.00     0.042 A 
HETATM   30  C   UNL     1      41.724 -12.224   4.955  1.00  0.00     0.030 A 
HETATM   31  C   UNL     1      41.164 -11.129   5.625  1.00  0.00     0.002 A 
HETATM   32  C   UNL     1      39.831 -10.792   5.425  1.00  0.00     0.000 A 
HETATM   33  C   UNL     1      39.058 -11.555   4.559  1.00  0.00     0.002 A 
HETATM   34  C   UNL     1      39.619 -12.648   3.891  1.00  0.00     0.030 A 
ENDBRANCH   2  29
TORSDOF 10
ENDMDL
MODEL 8
REMARK VINA RESULT:      -7.0      2.622      6.987
REMARK  10 active torsions:
REMARK  status: ('A' for Active; 'I' for Inactive)
REMARK    1  A    between atoms: C_2  and  C_3 
REMARK    2  A    between atoms: C_3  and  C_4 
REMARK    3  A    between atoms: C_4  and  N_5 
REMARK    4  A    between atoms: N_5  and  C_7 
REMARK    5  A    between atoms: C_7  and  C_8 
REMARK    6  A    between atoms: C_8  and  C_9 
REMARK    7  A    between atoms: C_9  and  N_10 
REMARK       I    between atoms: N_10  and  C_11 
REMARK    8  A    between atoms: C_11  and  C_12 
REMARK    9  A    between atoms: C_12  and  O_13 
REMARK   10  A    between atoms: N_14  and  C_15 
ROOT
HETATM    1  C   UNL     1      42.954 -16.371   3.538  1.00  0.00     0.256 C 
HETATM    2  N   UNL     1      42.842 -15.877   4.926  1.00  0.00    -0.254 N 
HETATM    3  C   UNL     1      43.567 -16.475   5.946  1.00  0.00     0.330 C 
HETATM    4  O   UNL     1      43.719 -16.030   7.084  1.00  0.00    -0.246 OA
HETATM    5  N   UNL     1      44.133 -17.687   5.698  1.00  0.00    -0.308 N 
HETATM    6  C   UNL     1      44.077 -18.390   4.511  1.00  0.00     0.048 A 
HETATM    7  C   UNL     1      43.488 -17.793   3.407  1.00  0.00     0.034 A 
HETATM    8  C   UNL     1      44.616 -19.676   4.443  1.00  0.00     0.030 A 
HETATM    9  C   UNL     1      44.560 -20.387   3.247  1.00  0.00     0.002 A 
HETATM   10  C   UNL     1      43.982 -19.807   2.121  1.00  0.00     0.001 A 
HETATM   11  C   UNL     1      43.459 -18.514   2.196  1.00  0.00     0.015 A 
HETATM   12  H   UNL     1      44.621 -18.078   6.498  1.00  0.00     0.170 HD
ENDROOT
BRANCH   1  13
HETATM   13  C   UNL     1      41.485 -16.395   2.887  1.00  0.00     0.279 C 
HETATM   14  N   UNL     1      41.233 -15.383   1.962  1.00  0.00    -0.356 N 
HETATM   15  H   UNL     1      42.080 -14.941   1.605  1.00  0.00     0.162 HD
HETATM   16  O   UNL     1      40.589 -17.139   3.299  1.00  0.00    -0.268 OA
BRANCH  14  17
HETATM   17  C   UNL     1      40.098 -15.346   1.056  1.00  0.00     0.124 C 
BRANCH  17  18
HETATM   18  C   UNL     1      40.175 -14.384  -0.130  1.00  0.00     0.047 C 
BRANCH  18  19
HETATM   19  C   UNL     1      40.947 -14.963  -1.312  1.00  0.00     0.236 C 
BRANCH  19  20
HETATM   20  N   UNL     1      40.279 -14.650  -2.646  1.00  0.00    -0.075 N 
HETATM   21  H   UNL     1      39.377 -14.197  -2.450  1.00  0.00     0.279 HD
HETATM   22  C   UNL     1      41.078 -13.670  -3.482  1.00  0.00     0.269 C 
BRANCH  20  23
HETATM   23  C   UNL     1      40.007 -15.897  -3.470  1.00  0.00     0.234 C 
BRANCH  23  24
HETATM   24  C   UNL     1      38.582 -15.980  -4.012  1.00  0.00     0.027 C 
BRANCH  24  25
HETATM   25  C   UNL     1      37.611 -14.998  -3.358  1.00  0.00    -0.003 C 
HETATM   26  C   UNL     1      36.614 -14.455  -4.372  1.00  0.00     0.005 C 
ENDBRANCH  24  25
ENDBRANCH  23  24
ENDBRANCH  20  23
ENDBRANCH  19  20
ENDBRANCH  18  19
ENDBRANCH  17  18
ENDBRANCH  14  17
ENDBRANCH   1  13
BRANCH   1  27
HETATM   27  O   UNL     1      43.856 -15.521   2.842  1.00  0.00    -0.359 OA
HETATM   28  H   UNL     1      44.636 -15.379   3.401  1.00  0.00     0.213 HD
ENDBRANCH   1  27
BRANCH   2  29
HETATM   29  C   UNL     1      42.109 -14.648   5.187  1.00  0.00     0.042 A 
HETATM   30  C   UNL     1      42.606 -13.385   4.820  1.00  0.00     0.030 A 
HETATM   31  C   UNL     1      41.856 -12.219   5.015  1.00  0.00     0.002 A 
HETATM   32  C   UNL     1      40.588 -12.287   5.577  1.00  0.00     0.000 A 
HETATM   33  C   UNL     1      40.072 -13.522   5.950  1.00  0.00     0.002 A 
HETATM   34  C   UNL     1      40.823 -14.686   5.755  1.00  0.00     0.030 A 
ENDBRANCH   2  29
TORSDOF 10
ENDMDL
MODEL 9
REMARK VINA RESULT:      -7.0      2.401      3.456
REMARK  10 active torsions:
REMARK  status: ('A' for Active; 'I' for Inactive)
REMARK    1  A    between atoms: C_2  and  C_3 
REMARK    2  A    between atoms: C_3  and  C_4 
REMARK    3  A    between atoms: C_4  and  N_5 
REMARK    4  A    between atoms: N_5  and  C_7 
REMARK    5  A    between atoms: C_7  and  C_8 
REMARK    6  A    between atoms: C_8  and  C_9 
REMARK    7  A    between atoms: C_9  and  N_10 
REMARK       I    between atoms: N_10  and  C_11 
REMARK    8  A    between atoms: C_11  and  C_12 
REMARK    9  A    between atoms: C_12  and  O_13 
REMARK   10  A    between atoms: N_14  and  C_15 
ROOT
HETATM    1  C   UNL     1      41.000 -15.873   2.693  1.00  0.00     0.256 C 
HETATM    2  N   UNL     1      41.041 -14.902   1.580  1.00  0.00    -0.254 N 
HETATM    3  C   UNL     1      41.683 -15.222   0.391  1.00  0.00     0.330 C 
HETATM    4  O   UNL     1      41.606 -14.593  -0.664  1.00  0.00    -0.246 OA
HETATM    5  N   UNL     1      42.511 -16.301   0.386  1.00  0.00    -0.308 N 
HETATM    6  C   UNL     1      42.772 -17.138   1.452  1.00  0.00     0.048 A 
HETATM    7  C   UNL     1      42.063 -16.963   2.630  1.00  0.00     0.034 A 
HETATM    8  C   UNL     1      43.733 -18.143   1.323  1.00  0.00     0.030 A 
HETATM    9  C   UNL     1      43.999 -18.989   2.397  1.00  0.00     0.002 A 
HETATM   10  C   UNL     1      43.294 -18.840   3.588  1.00  0.00     0.001 A 
HETATM   11  C   UNL     1      42.324 -17.841   3.702  1.00  0.00     0.015 A 
HETATM   12  H   UNL     1      42.968 -16.456  -0.506  1.00  0.00     0.170 HD
ENDROOT
BRANCH   1  13
HETATM   13  C   UNL     1      41.264 -15.083   4.067  1.00  0.00     0.279 C 
HETATM   14  N   UNL     1      42.553 -14.573   4.216  1.00  0.00    -0.356 N 
HETATM   15  H   UNL     1      43.067 -14.511   3.337  1.00  0.00     0.162 HD
HETATM   16  O   UNL     1      40.450 -15.078   4.995  1.00  0.00    -0.268 OA
BRANCH  14  17
HETATM   17  C   UNL     1      42.956 -13.612   5.227  1.00  0.00     0.124 C 
BRANCH  17  18
HETATM   18  C   UNL     1      43.601 -14.160   6.502  1.00  0.00     0.047 C 
BRANCH  18  19
HETATM   19  C   UNL     1      45.102 -13.893   6.567  1.00  0.00     0.236 C 
BRANCH  19  20
HETATM   20  N   UNL     1      45.512 -13.225   7.875  1.00  0.00    -0.075 N 
HETATM   21  H   UNL     1      45.765 -13.964   8.542  1.00  0.00     0.279 HD
HETATM   22  C   UNL     1      46.739 -12.348   7.721  1.00  0.00     0.269 C 
BRANCH  20  23
HETATM   23  C   UNL     1      44.391 -12.404   8.488  1.00  0.00     0.234 C 
BRANCH  23  24
HETATM   24  C   UNL     1      44.462 -12.300  10.009  1.00  0.00     0.027 C 
BRANCH  24  25
HETATM   25  C   UNL     1      44.904 -10.928  10.518  1.00  0.00    -0.003 C 
HETATM   26  C   UNL     1      43.994 -10.438  11.634  1.00  0.00     0.005 C 
ENDBRANCH  24  25
ENDBRANCH  23  24
ENDBRANCH  20  23
ENDBRANCH  19  20
ENDBRANCH  18  19
ENDBRANCH  17  18
ENDBRANCH  14  17
ENDBRANCH   1  13
BRANCH   1  27
HETATM   27  O   UNL     1      39.735 -16.522   2.659  1.00  0.00    -0.359 OA
HETATM   28  H   UNL     1      39.881 -17.473   2.542  1.00  0.00     0.213 HD
ENDBRANCH   1  27
BRANCH   2  29
HETATM   29  C   UNL     1      40.254 -13.682   1.669  1.00  0.00     0.042 A 
HETATM   30  C   UNL     1      38.857 -13.678   1.510  1.00  0.00     0.030 A 
HETATM   31  C   UNL     1      38.106 -12.506   1.670  1.00  0.00     0.002 A 
HETATM   32  C   UNL     1      38.734 -11.311   1.996  1.00  0.00     0.000 A 
HETATM   33  C   UNL     1      40.114 -11.287   2.158  1.00  0.00     0.002 A 
HETATM   34  C   UNL     1      40.862 -12.458   1.998  1.00  0.00     0.030 A 
ENDBRANCH   2  29
TORSDOF 10
ENDMDL
MODEL 10
REMARK VINA RESULT:      -6.9      3.504      5.560
REMARK  10 active torsions:
REMARK  status: ('A' for Active; 'I' for Inactive)
REMARK    1  A    between atoms: C_2  and  C_3 
REMARK    2  A    between atoms: C_3  and  C_4 
REMARK    3  A    between atoms: C_4  and  N_5 
REMARK    4  A    between atoms: N_5  and  C_7 
REMARK    5  A    between atoms: C_7  and  C_8 
REMARK    6  A    between atoms: C_8  and  C_9 
REMARK    7  A    between atoms: C_9  and  N_10 
REMARK       I    between atoms: N_10  and  C_11 
REMARK    8  A    between atoms: C_11  and  C_12 
REMARK    9  A    between atoms: C_12  and  O_13 
REMARK   10  A    between atoms: N_14  and  C_15 
ROOT
HETATM    1  C   UNL     1      42.677 -15.505   5.854  1.00  0.00     0.256 C 
HETATM    2  N   UNL     1      41.775 -14.975   4.810  1.00  0.00    -0.254 N 
HETATM    3  C   UNL     1      41.324 -15.797   3.787  1.00  0.00     0.330 C 
HETATM    4  O   UNL     1      40.420 -15.534   2.994  1.00  0.00    -0.246 OA
HETATM    5  N   UNL     1      41.956 -16.986   3.601  1.00  0.00    -0.308 N 
HETATM    6  C   UNL     1      43.008 -17.481   4.347  1.00  0.00     0.048 A 
HETATM    7  C   UNL     1      43.420 -16.779   5.469  1.00  0.00     0.034 A 
HETATM    8  C   UNL     1      43.626 -18.672   3.966  1.00  0.00     0.030 A 
HETATM    9  C   UNL     1      44.687 -19.173   4.716  1.00  0.00     0.002 A 
HETATM   10  C   UNL     1      45.115 -18.492   5.852  1.00  0.00     0.001 A 
HETATM   11  C   UNL     1      44.480 -17.308   6.234  1.00  0.00     0.015 A 
HETATM   12  H   UNL     1      41.594 -17.519   2.818  1.00  0.00     0.170 HD
ENDROOT
BRANCH   1  13
HETATM   13  C   UNL     1      43.814 -14.408   6.148  1.00  0.00     0.279 C 
HETATM   14  N   UNL     1      43.883 -13.970   7.470  1.00  0.00    -0.356 N 
HETATM   15  H   UNL     1      43.415 -14.594   8.127  1.00  0.00     0.162 HD
HETATM   16  O   UNL     1      44.458 -13.863   5.247  1.00  0.00    -0.268 OA
BRANCH  14  17
HETATM   17  C   UNL     1      44.975 -13.197   8.035  1.00  0.00     0.124 C 
BRANCH  17  18
HETATM   18  C   UNL     1      44.610 -11.983   8.890  1.00  0.00     0.047 C 
BRANCH  18  19
HETATM   19  C   UNL     1      44.338 -12.345  10.347  1.00  0.00     0.236 C 
BRANCH  19  20
HETATM   20  N   UNL     1      42.982 -11.834  10.823  1.00  0.00    -0.075 N 
HETATM   21  H   UNL     1      42.327 -12.626  10.821  1.00  0.00     0.279 HD
HETATM   22  C   UNL     1      43.023 -11.316  12.247  1.00  0.00     0.269 C 
BRANCH  20  23
HETATM   23  C   UNL     1      42.414 -10.754   9.920  1.00  0.00     0.234 C 
BRANCH  23  24
HETATM   24  C   UNL     1      41.549  -9.730  10.650  1.00  0.00     0.027 C 
BRANCH  24  25
HETATM   25  C   UNL     1      40.264  -9.362   9.910  1.00  0.00    -0.003 C 
HETATM   26  C   UNL     1      39.485 -10.607   9.512  1.00  0.00     0.005 C 
ENDBRANCH  24  25
ENDBRANCH  23  24
ENDBRANCH  20  23
ENDBRANCH  19  20
ENDBRANCH  18  19
ENDBRANCH  17  18
ENDBRANCH  14  17
ENDBRANCH   1  13
BRANCH   1  27
HETATM   27  O   UNL     1      41.890 -15.811   6.998  1.00  0.00    -0.359 OA
HETATM   28  H   UNL     1      41.880 -15.035   7.579  1.00  0.00     0.213 HD
ENDBRANCH   1  27
BRANCH   2  29
HETATM   29  C   UNL     1      41.219 -13.639   4.961  1.00  0.00     0.042 A 
HETATM   30  C   UNL     1      40.237 -13.339   5.921  1.00  0.00     0.030 A 
HETATM   31  C   UNL     1      39.764 -12.034   6.100  1.00  0.00     0.002 A 
HETATM   32  C   UNL     1      40.265 -10.994   5.327  1.00  0.00     0.000 A 
HETATM   33  C   UNL     1      41.236 -11.263   4.370  1.00  0.00     0.002 A 
HETATM   34  C   UNL     1      41.707 -12.568   4.192  1.00  0.00     0.030 A 
ENDBRANCH   2  29
TORSDOF 10
ENDMDL
