MODEL 1
REMARK VINA RESULT:      -8.5      0.000      0.000
REMARK  2 active torsions:
REMARK  status: ('A' for Active; 'I' for Inactive)
REMARK    1  A    between atoms: C_6  and  N_7 
REMARK    2  A    between atoms: N_7  and  C_8 
ROOT
HETATM    1  C   UNL     1      43.538 -17.329   8.385  1.00  0.00     0.093 C 
HETATM    2  C   UNL     1      43.758 -18.056   7.094  1.00  0.00     0.125 A 
HETATM    3  N   UNL     1      43.932 -19.378   7.158  1.00  0.00    -0.226 NA
HETATM    4  C   UNL     1      44.097 -19.943   5.954  1.00  0.00     0.114 A 
HETATM    5  C   UNL     1      44.092 -19.290   4.721  1.00  0.00     0.053 A 
HETATM    6  C   UNL     1      43.907 -17.890   4.759  1.00  0.00     0.143 A 
HETATM    7  N   UNL     1      43.737 -17.311   5.973  1.00  0.00    -0.215 NA
HETATM    8  S   UNL     1      44.353 -21.640   5.825  1.00  0.00    -0.073 SA
HETATM    9  C   UNL     1      44.456 -21.518   4.163  1.00  0.00    -0.008 A 
HETATM   10  C   UNL     1      44.295 -20.246   3.683  1.00  0.00    -0.028 A 
HETATM   11  C   UNL     1      44.403 -20.232   2.201  1.00  0.00     0.041 C 
HETATM   12  C   UNL     1      44.318 -21.748   1.837  1.00  0.00     0.010 C 
HETATM   13  C   UNL     1      44.698 -22.542   3.122  1.00  0.00     0.047 C 
ENDROOT
BRANCH   6  14
HETATM   14  N   UNL     1      43.875 -17.127   3.582  1.00  0.00    -0.340 N 
HETATM   15  H   UNL     1      44.783 -16.797   3.295  1.00  0.00     0.167 HD
BRANCH  14  16
HETATM   16  C   UNL     1      42.819 -16.657   2.779  1.00  0.00     0.036 A 
HETATM   17  C   UNL     1      41.781 -15.938   3.401  1.00  0.00     0.069 A 
HETATM   18  C   UNL     1      40.746 -15.453   2.627  1.00  0.00     0.107 A 
HETATM   19  C   UNL     1      40.706 -15.646   1.268  1.00  0.00     0.105 A 
HETATM   20  O   UNL     1      39.675 -14.748   3.082  1.00  0.00    -0.323 OA
HETATM   21  O   UNL     1      39.606 -15.092   0.696  1.00  0.00    -0.323 OA
HETATM   22  C   UNL     1      41.702 -16.331   0.614  1.00  0.00     0.042 A 
HETATM   23  C   UNL     1      38.956 -14.524   1.851  1.00  0.00     0.352 A 
HETATM   24  C   UNL     1      42.764 -16.832   1.380  1.00  0.00     0.032 A 
ENDBRANCH  14  16
ENDBRANCH   6  14
TORSDOF 2
ENDMDL
MODEL 2
REMARK VINA RESULT:      -8.4      1.765      1.922
REMARK  2 active torsions:
REMARK  status: ('A' for Active; 'I' for Inactive)
REMARK    1  A    between atoms: C_6  and  N_7 
REMARK    2  A    between atoms: N_7  and  C_8 
ROOT
HETATM    1  C   UNL     1      43.937 -16.304   7.369  1.00  0.00     0.093 C 
HETATM    2  C   UNL     1      43.811 -17.198   6.174  1.00  0.00     0.125 A 
HETATM    3  N   UNL     1      44.627 -18.254   6.111  1.00  0.00    -0.226 NA
HETATM    4  C   UNL     1      44.425 -19.006   5.021  1.00  0.00     0.114 A 
HETATM    5  C   UNL     1      43.480 -18.783   4.019  1.00  0.00     0.053 A 
HETATM    6  C   UNL     1      42.668 -17.637   4.173  1.00  0.00     0.143 A 
HETATM    7  N   UNL     1      42.865 -16.871   5.274  1.00  0.00    -0.215 NA
HETATM    8  S   UNL     1      45.391 -20.405   4.748  1.00  0.00    -0.073 SA
HETATM    9  C   UNL     1      44.573 -20.715   3.326  1.00  0.00    -0.008 A 
HETATM   10  C   UNL     1      43.584 -19.813   3.039  1.00  0.00    -0.028 A 
HETATM   11  C   UNL     1      42.914 -20.165   1.760  1.00  0.00     0.041 C 
HETATM   12  C   UNL     1      43.429 -21.613   1.491  1.00  0.00     0.010 C 
HETATM   13  C   UNL     1      44.736 -21.789   2.320  1.00  0.00     0.047 C 
ENDROOT
BRANCH   6  14
HETATM   14  N   UNL     1      41.677 -17.314   3.234  1.00  0.00    -0.340 N 
HETATM   15  H   UNL     1      40.838 -17.864   3.333  1.00  0.00     0.167 HD
BRANCH  14  16
HETATM   16  C   UNL     1      41.659 -16.443   2.129  1.00  0.00     0.036 A 
HETATM   17  C   UNL     1      41.997 -15.093   2.342  1.00  0.00     0.069 A 
HETATM   18  C   UNL     1      42.004 -14.228   1.266  1.00  0.00     0.107 A 
HETATM   19  C   UNL     1      41.698 -14.649  -0.004  1.00  0.00     0.105 A 
HETATM   20  O   UNL     1      42.302 -12.902   1.315  1.00  0.00    -0.323 OA
HETATM   21  O   UNL     1      41.761 -13.644  -0.915  1.00  0.00    -0.323 OA
HETATM   22  C   UNL     1      41.374 -15.959  -0.264  1.00  0.00     0.042 A 
HETATM   23  C   UNL     1      42.145 -12.538  -0.073  1.00  0.00     0.352 A 
HETATM   24  C   UNL     1      41.362 -16.857   0.813  1.00  0.00     0.032 A 
ENDBRANCH  14  16
ENDBRANCH   6  14
TORSDOF 2
ENDMDL
MODEL 3
REMARK VINA RESULT:      -8.1      1.710      3.947
REMARK  2 active torsions:
REMARK  status: ('A' for Active; 'I' for Inactive)
REMARK    1  A    between atoms: C_6  and  N_7 
REMARK    2  A    between atoms: N_7  and  C_8 
ROOT
HETATM    1  C   UNL     1      44.341 -21.885   1.699  1.00  0.00     0.093 C 
HETATM    2  C   UNL     1      44.138 -20.660   2.536  1.00  0.00     0.125 A 
HETATM    3  N   UNL     1      44.304 -20.786   3.855  1.00  0.00    -0.226 NA
HETATM    4  C   UNL     1      44.124 -19.634   4.517  1.00  0.00     0.114 A 
HETATM    5  C   UNL     1      43.805 -18.395   3.960  1.00  0.00     0.053 A 
HETATM    6  C   UNL     1      43.644 -18.367   2.557  1.00  0.00     0.143 A 
HETATM    7  N   UNL     1      43.826 -19.527   1.880  1.00  0.00    -0.215 NA
HETATM    8  S   UNL     1      44.277 -19.592   6.231  1.00  0.00    -0.073 SA
HETATM    9  C   UNL     1      43.929 -17.959   6.240  1.00  0.00    -0.008 A 
HETATM   10  C   UNL     1      43.708 -17.425   5.000  1.00  0.00    -0.028 A 
HETATM   11  C   UNL     1      43.404 -15.974   5.104  1.00  0.00     0.041 C 
HETATM   12  C   UNL     1      43.810 -15.645   6.575  1.00  0.00     0.010 C 
HETATM   13  C   UNL     1      43.810 -16.993   7.356  1.00  0.00     0.047 C 
ENDROOT
BRANCH   6  14
HETATM   14  N   UNL     1      43.332 -17.176   1.883  1.00  0.00    -0.340 N 
HETATM   15  H   UNL     1      44.144 -16.684   1.545  1.00  0.00     0.167 HD
BRANCH  14  16
HETATM   16  C   UNL     1      42.121 -16.492   1.669  1.00  0.00     0.036 A 
HETATM   17  C   UNL     1      42.063 -15.555   0.620  1.00  0.00     0.069 A 
HETATM   18  C   UNL     1      40.878 -14.889   0.383  1.00  0.00     0.107 A 
HETATM   19  C   UNL     1      39.754 -15.120   1.136  1.00  0.00     0.105 A 
HETATM   20  O   UNL     1      40.671 -13.956  -0.585  1.00  0.00    -0.323 OA
HETATM   21  O   UNL     1      38.698 -14.362   0.742  1.00  0.00    -0.323 OA
HETATM   22  C   UNL     1      39.756 -16.034   2.162  1.00  0.00     0.042 A 
HETATM   23  C   UNL     1      39.286 -13.626  -0.351  1.00  0.00     0.352 A 
HETATM   24  C   UNL     1      40.950 -16.725   2.421  1.00  0.00     0.032 A 
ENDBRANCH  14  16
ENDBRANCH   6  14
TORSDOF 2
ENDMDL
MODEL 4
REMARK VINA RESULT:      -8.0      2.260      4.261
REMARK  2 active torsions:
REMARK  status: ('A' for Active; 'I' for Inactive)
REMARK    1  A    between atoms: C_6  and  N_7 
REMARK    2  A    between atoms: N_7  and  C_8 
ROOT
HETATM    1  C   UNL     1      44.006 -21.322   1.741  1.00  0.00     0.093 C 
HETATM    2  C   UNL     1      43.747 -20.128   2.608  1.00  0.00     0.125 A 
HETATM    3  N   UNL     1      44.480 -20.007   3.717  1.00  0.00    -0.226 NA
HETATM    4  C   UNL     1      44.194 -18.898   4.414  1.00  0.00     0.114 A 
HETATM    5  C   UNL     1      43.252 -17.924   4.080  1.00  0.00     0.053 A 
HETATM    6  C   UNL     1      42.523 -18.146   2.890  1.00  0.00     0.143 A 
HETATM    7  N   UNL     1      42.808 -19.265   2.178  1.00  0.00    -0.215 NA
HETATM    8  S   UNL     1      45.021 -18.569   5.888  1.00  0.00    -0.073 SA
HETATM    9  C   UNL     1      44.150 -17.158   6.083  1.00  0.00    -0.008 A 
HETATM   10  C   UNL     1      43.257 -16.906   5.077  1.00  0.00    -0.028 A 
HETATM   11  C   UNL     1      42.528 -15.636   5.334  1.00  0.00     0.041 C 
HETATM   12  C   UNL     1      43.362 -14.990   6.484  1.00  0.00     0.010 C 
HETATM   13  C   UNL     1      44.170 -16.140   7.157  1.00  0.00     0.047 C 
ENDROOT
BRANCH   6  14
HETATM   14  N   UNL     1      41.556 -17.232   2.447  1.00  0.00    -0.340 N 
HETATM   15  H   UNL     1      40.656 -17.360   2.883  1.00  0.00     0.167 HD
BRANCH  14  16
HETATM   16  C   UNL     1      41.570 -16.237   1.452  1.00  0.00     0.036 A 
HETATM   17  C   UNL     1      41.947 -14.933   1.822  1.00  0.00     0.069 A 
HETATM   18  C   UNL     1      41.986 -13.948   0.856  1.00  0.00     0.107 A 
HETATM   19  C   UNL     1      41.675 -14.208  -0.456  1.00  0.00     0.105 A 
HETATM   20  O   UNL     1      42.323 -12.646   1.061  1.00  0.00    -0.323 OA
HETATM   21  O   UNL     1      41.773 -13.105  -1.243  1.00  0.00    -0.323 OA
HETATM   22  C   UNL     1      41.314 -15.468  -0.869  1.00  0.00     0.042 A 
HETATM   23  C   UNL     1      42.184 -12.117  -0.276  1.00  0.00     0.352 A 
HETATM   24  C   UNL     1      41.269 -16.485   0.095  1.00  0.00     0.032 A 
ENDBRANCH  14  16
ENDBRANCH   6  14
TORSDOF 2
ENDMDL
MODEL 5
REMARK VINA RESULT:      -7.9      3.601      6.358
REMARK  2 active torsions:
REMARK  status: ('A' for Active; 'I' for Inactive)
REMARK    1  A    between atoms: C_6  and  N_7 
REMARK    2  A    between atoms: N_7  and  C_8 
ROOT
HETATM    1  C   UNL     1      43.599 -15.673   7.068  1.00  0.00     0.093 C 
HETATM    2  C   UNL     1      43.046 -15.699   5.677  1.00  0.00     0.125 A 
HETATM    3  N   UNL     1      42.085 -14.819   5.383  1.00  0.00    -0.226 NA
HETATM    4  C   UNL     1      41.671 -14.902   4.111  1.00  0.00     0.114 A 
HETATM    5  C   UNL     1      42.147 -15.780   3.136  1.00  0.00     0.053 A 
HETATM    6  C   UNL     1      43.158 -16.676   3.547  1.00  0.00     0.143 A 
HETATM    7  N   UNL     1      43.584 -16.598   4.831  1.00  0.00    -0.215 NA
HETATM    8  S   UNL     1      40.424 -13.862   3.541  1.00  0.00    -0.073 SA
HETATM    9  C   UNL     1      40.509 -14.558   2.026  1.00  0.00    -0.008 A 
HETATM   10  C   UNL     1      41.450 -15.546   1.915  1.00  0.00    -0.028 A 
HETATM   11  C   UNL     1      41.455 -16.108   0.539  1.00  0.00     0.041 C 
HETATM   12  C   UNL     1      40.600 -15.072  -0.256  1.00  0.00     0.010 C 
HETATM   13  C   UNL     1      39.741 -14.299   0.788  1.00  0.00     0.047 C 
ENDROOT
BRANCH   6  14
HETATM   14  N   UNL     1      43.720 -17.600   2.653  1.00  0.00    -0.340 N 
HETATM   15  H   UNL     1      43.949 -17.199   1.756  1.00  0.00     0.167 HD
BRANCH  14  16
HETATM   16  C   UNL     1      43.941 -18.988   2.729  1.00  0.00     0.036 A 
HETATM   17  C   UNL     1      44.426 -19.517   3.940  1.00  0.00     0.069 A 
HETATM   18  C   UNL     1      44.629 -20.879   4.041  1.00  0.00     0.107 A 
HETATM   19  C   UNL     1      44.365 -21.729   2.996  1.00  0.00     0.105 A 
HETATM   20  O   UNL     1      45.097 -21.534   5.137  1.00  0.00    -0.323 OA
HETATM   21  O   UNL     1      44.635 -23.025   3.299  1.00  0.00    -0.323 OA
HETATM   22  C   UNL     1      43.879 -21.262   1.798  1.00  0.00     0.042 A 
HETATM   23  C   UNL     1      45.099 -22.895   4.659  1.00  0.00     0.352 A 
HETATM   24  C   UNL     1      43.662 -19.882   1.674  1.00  0.00     0.032 A 
ENDBRANCH  14  16
ENDBRANCH   6  14
TORSDOF 2
ENDMDL
MODEL 6
REMARK VINA RESULT:      -7.9      2.236      3.297
REMARK  2 active torsions:
REMARK  status: ('A' for Active; 'I' for Inactive)
REMARK    1  A    between atoms: C_6  and  N_7 
REMARK    2  A    between atoms: N_7  and  C_8 
ROOT
HETATM    1  C   UNL     1      42.123 -14.399   5.798  1.00  0.00     0.093 C 
HETATM    2  C   UNL     1      42.438 -15.619   4.988  1.00  0.00     0.125 A 
HETATM    3  N   UNL     1      43.300 -16.495   5.510  1.00  0.00    -0.226 NA
HETATM    4  C   UNL     1      43.500 -17.563   4.725  1.00  0.00     0.114 A 
HETATM    5  C   UNL     1      42.903 -17.810   3.488  1.00  0.00     0.053 A 
HETATM    6  C   UNL     1      42.011 -16.820   3.018  1.00  0.00     0.143 A 
HETATM    7  N   UNL     1      41.802 -15.738   3.807  1.00  0.00    -0.215 NA
HETATM    8  S   UNL     1      44.592 -18.800   5.214  1.00  0.00    -0.073 SA
HETATM    9  C   UNL     1      44.283 -19.653   3.813  1.00  0.00    -0.008 A 
HETATM   10  C   UNL     1      43.377 -19.054   2.979  1.00  0.00    -0.028 A 
HETATM   11  C   UNL     1      43.166 -19.880   1.761  1.00  0.00     0.041 C 
HETATM   12  C   UNL     1      43.834 -21.236   2.148  1.00  0.00     0.010 C 
HETATM   13  C   UNL     1      44.824 -20.937   3.312  1.00  0.00     0.047 C 
ENDROOT
BRANCH   6  14
HETATM   14  N   UNL     1      41.345 -16.962   1.792  1.00  0.00    -0.340 N 
HETATM   15  H   UNL     1      41.176 -17.923   1.538  1.00  0.00     0.167 HD
BRANCH  14  16
HETATM   16  C   UNL     1      40.951 -16.036   0.808  1.00  0.00     0.036 A 
HETATM   17  C   UNL     1      41.375 -16.253  -0.516  1.00  0.00     0.069 A 
HETATM   18  C   UNL     1      40.982 -15.365  -1.498  1.00  0.00     0.107 A 
HETATM   19  C   UNL     1      40.185 -14.283  -1.219  1.00  0.00     0.105 A 
HETATM   20  O   UNL     1      41.315 -15.439  -2.815  1.00  0.00    -0.323 OA
HETATM   21  O   UNL     1      39.917 -13.536  -2.321  1.00  0.00    -0.323 OA
HETATM   22  C   UNL     1      39.736 -14.036   0.056  1.00  0.00     0.042 A 
HETATM   23  C   UNL     1      40.636 -14.274  -3.330  1.00  0.00     0.352 A 
HETATM   24  C   UNL     1      40.121 -14.925   1.070  1.00  0.00     0.032 A 
ENDBRANCH  14  16
ENDBRANCH   6  14
TORSDOF 2
ENDMDL
MODEL 7
REMARK VINA RESULT:      -7.6      2.103      4.440
REMARK  2 active torsions:
REMARK  status: ('A' for Active; 'I' for Inactive)
REMARK    1  A    between atoms: C_6  and  N_7 
REMARK    2  A    between atoms: N_7  and  C_8 
ROOT
HETATM    1  C   UNL     1      43.652 -20.968   1.803  1.00  0.00     0.093 C 
HETATM    2  C   UNL     1      43.525 -19.576   2.340  1.00  0.00     0.125 A 
HETATM    3  N   UNL     1      43.676 -19.412   3.657  1.00  0.00    -0.226 NA
HETATM    4  C   UNL     1      43.569 -18.132   4.040  1.00  0.00     0.114 A 
HETATM    5  C   UNL     1      43.334 -17.032   3.213  1.00  0.00     0.053 A 
HETATM    6  C   UNL     1      43.182 -17.310   1.837  1.00  0.00     0.143 A 
HETATM    7  N   UNL     1      43.291 -18.602   1.441  1.00  0.00    -0.215 NA
HETATM    8  S   UNL     1      43.716 -17.715   5.704  1.00  0.00    -0.073 SA
HETATM    9  C   UNL     1      43.475 -16.103   5.340  1.00  0.00    -0.008 A 
HETATM   10  C   UNL     1      43.295 -15.849   4.007  1.00  0.00    -0.028 A 
HETATM   11  C   UNL     1      43.086 -14.396   3.778  1.00  0.00     0.041 C 
HETATM   12  C   UNL     1      43.506 -13.770   5.145  1.00  0.00     0.010 C 
HETATM   13  C   UNL     1      43.414 -14.905   6.208  1.00  0.00     0.047 C 
ENDROOT
BRANCH   6  14
HETATM   14  N   UNL     1      42.951 -16.285   0.907  1.00  0.00    -0.340 N 
HETATM   15  H   UNL     1      43.792 -15.959   0.454  1.00  0.00     0.167 HD
BRANCH  14  16
HETATM   16  C   UNL     1      41.797 -15.562   0.553  1.00  0.00     0.036 A 
HETATM   17  C   UNL     1      40.644 -15.724   1.344  1.00  0.00     0.069 A 
HETATM   18  C   UNL     1      39.508 -15.008   1.024  1.00  0.00     0.107 A 
HETATM   19  C   UNL     1      39.475 -14.139  -0.039  1.00  0.00     0.105 A 
HETATM   20  O   UNL     1      38.321 -15.062   1.686  1.00  0.00    -0.323 OA
HETATM   21  O   UNL     1      38.265 -13.539  -0.183  1.00  0.00    -0.323 OA
HETATM   22  C   UNL     1      40.579 -13.937  -0.832  1.00  0.00     0.042 A 
HETATM   23  C   UNL     1      37.537 -14.128   0.914  1.00  0.00     0.352 A 
HETATM   24  C   UNL     1      41.745 -14.653  -0.525  1.00  0.00     0.032 A 
ENDBRANCH  14  16
ENDBRANCH   6  14
TORSDOF 2
ENDMDL
MODEL 8
REMARK VINA RESULT:      -7.6      3.124      5.559
REMARK  2 active torsions:
REMARK  status: ('A' for Active; 'I' for Inactive)
REMARK    1  A    between atoms: C_6  and  N_7 
REMARK    2  A    between atoms: N_7  and  C_8 
ROOT
HETATM    1  C   UNL     1      43.630 -19.977   2.027  1.00  0.00     0.093 C 
HETATM    2  C   UNL     1      42.815 -18.788   2.432  1.00  0.00     0.125 A 
HETATM    3  N   UNL     1      42.836 -18.442   3.722  1.00  0.00    -0.226 NA
HETATM    4  C   UNL     1      42.097 -17.354   3.984  1.00  0.00     0.114 A 
HETATM    5  C   UNL     1      41.364 -16.605   3.064  1.00  0.00     0.053 A 
HETATM    6  C   UNL     1      41.400 -17.055   1.725  1.00  0.00     0.143 A 
HETATM    7  N   UNL     1      42.146 -18.153   1.451  1.00  0.00    -0.215 NA
HETATM    8  S   UNL     1      41.981 -16.758   5.595  1.00  0.00    -0.073 SA
HETATM    9  C   UNL     1      40.978 -15.525   5.086  1.00  0.00    -0.008 A 
HETATM   10  C   UNL     1      40.724 -15.527   3.741  1.00  0.00    -0.028 A 
HETATM   11  C   UNL     1      39.824 -14.400   3.381  1.00  0.00     0.041 C 
HETATM   12  C   UNL     1      39.846 -13.519   4.668  1.00  0.00     0.010 C 
HETATM   13  C   UNL     1      40.310 -14.438   5.837  1.00  0.00     0.047 C 
ENDROOT
BRANCH   6  14
HETATM   14  N   UNL     1      40.709 -16.377   0.709  1.00  0.00    -0.340 N 
HETATM   15  H   UNL     1      39.769 -16.715   0.571  1.00  0.00     0.167 HD
BRANCH  14  16
HETATM   16  C   UNL     1      41.099 -15.386  -0.211  1.00  0.00     0.036 A 
HETATM   17  C   UNL     1      41.687 -14.210   0.289  1.00  0.00     0.069 A 
HETATM   18  C   UNL     1      42.095 -13.235  -0.599  1.00  0.00     0.107 A 
HETATM   19  C   UNL     1      41.948 -13.385  -1.956  1.00  0.00     0.105 A 
HETATM   20  O   UNL     1      42.671 -12.048  -0.269  1.00  0.00    -0.323 OA
HETATM   21  O   UNL     1      42.408 -12.314  -2.652  1.00  0.00    -0.323 OA
HETATM   22  C   UNL     1      41.390 -14.521  -2.493  1.00  0.00     0.042 A 
HETATM   23  C   UNL     1      42.866 -11.469  -1.576  1.00  0.00     0.352 A 
HETATM   24  C   UNL     1      40.971 -15.526  -1.609  1.00  0.00     0.032 A 
ENDBRANCH  14  16
ENDBRANCH   6  14
TORSDOF 2
ENDMDL
MODEL 9
REMARK VINA RESULT:      -7.5      2.724      3.842
REMARK  2 active torsions:
REMARK  status: ('A' for Active; 'I' for Inactive)
REMARK    1  A    between atoms: C_6  and  N_7 
REMARK    2  A    between atoms: N_7  and  C_8 
ROOT
HETATM    1  C   UNL     1      44.347 -18.893   8.685  1.00  0.00     0.093 C 
HETATM    2  C   UNL     1      44.159 -18.367   7.295  1.00  0.00     0.125 A 
HETATM    3  N   UNL     1      44.258 -19.241   6.291  1.00  0.00    -0.226 NA
HETATM    4  C   UNL     1      44.053 -18.683   5.090  1.00  0.00     0.114 A 
HETATM    5  C   UNL     1      43.754 -17.344   4.834  1.00  0.00     0.053 A 
HETATM    6  C   UNL     1      43.678 -16.497   5.962  1.00  0.00     0.143 A 
HETATM    7  N   UNL     1      43.883 -17.054   7.181  1.00  0.00    -0.215 NA
HETATM    8  S   UNL     1      44.154 -19.643   3.664  1.00  0.00    -0.073 SA
HETATM    9  C   UNL     1      43.808 -18.311   2.720  1.00  0.00    -0.008 A 
HETATM   10  C   UNL     1      43.605 -17.157   3.429  1.00  0.00    -0.028 A 
HETATM   11  C   UNL     1      43.307 -16.028   2.510  1.00  0.00     0.041 C 
HETATM   12  C   UNL     1      43.028 -16.752   1.156  1.00  0.00     0.010 C 
HETATM   13  C   UNL     1      43.691 -18.159   1.252  1.00  0.00     0.047 C 
ENDROOT
BRANCH   6  14
HETATM   14  N   UNL     1      43.376 -15.133   5.830  1.00  0.00    -0.340 N 
HETATM   15  H   UNL     1      44.189 -14.538   5.875  1.00  0.00     0.167 HD
BRANCH  14  16
HETATM   16  C   UNL     1      42.161 -14.431   5.741  1.00  0.00     0.036 A 
HETATM   17  C   UNL     1      42.197 -13.026   5.829  1.00  0.00     0.069 A 
HETATM   18  C   UNL     1      41.017 -12.318   5.724  1.00  0.00     0.107 A 
HETATM   19  C   UNL     1      39.811 -12.945   5.530  1.00  0.00     0.105 A 
HETATM   20  O   UNL     1      40.892 -10.966   5.795  1.00  0.00    -0.323 OA
HETATM   21  O   UNL     1      38.775 -12.071   5.456  1.00  0.00    -0.323 OA
HETATM   22  C   UNL     1      39.726 -14.313   5.425  1.00  0.00     0.042 A 
HETATM   23  C   UNL     1      39.466 -10.816   5.625  1.00  0.00     0.352 A 
HETATM   24  C   UNL     1      40.913 -15.054   5.527  1.00  0.00     0.032 A 
ENDBRANCH  14  16
ENDBRANCH   6  14
TORSDOF 2
ENDMDL
MODEL 10
REMARK VINA RESULT:      -7.4      3.892      6.625
REMARK  2 active torsions:
REMARK  status: ('A' for Active; 'I' for Inactive)
REMARK    1  A    between atoms: C_6  and  N_7 
REMARK    2  A    between atoms: N_7  and  C_8 
ROOT
HETATM    1  C   UNL     1      42.552 -12.948   6.100  1.00  0.00     0.093 C 
HETATM    2  C   UNL     1      42.220 -13.467   4.734  1.00  0.00     0.125 A 
HETATM    3  N   UNL     1      42.195 -12.584   3.733  1.00  0.00    -0.226 NA
HETATM    4  C   UNL     1      41.913 -13.145   2.549  1.00  0.00     0.114 A 
HETATM    5  C   UNL     1      41.668 -14.497   2.305  1.00  0.00     0.053 A 
HETATM    6  C   UNL     1      41.711 -15.350   3.430  1.00  0.00     0.143 A 
HETATM    7  N   UNL     1      41.998 -14.791   4.631  1.00  0.00    -0.215 NA
HETATM    8  S   UNL     1      41.817 -12.169   1.134  1.00  0.00    -0.073 SA
HETATM    9  C   UNL     1      41.458 -13.511   0.209  1.00  0.00    -0.008 A 
HETATM   10  C   UNL     1      41.414 -14.684   0.915  1.00  0.00    -0.028 A 
HETATM   11  C   UNL     1      41.087 -15.820   0.015  1.00  0.00     0.041 C 
HETATM   12  C   UNL     1      41.273 -15.198  -1.404  1.00  0.00     0.010 C 
HETATM   13  C   UNL     1      41.172 -13.653  -1.236  1.00  0.00     0.047 C 
ENDROOT
BRANCH   6  14
HETATM   14  N   UNL     1      41.490 -16.730   3.307  1.00  0.00    -0.340 N 
HETATM   15  H   UNL     1      40.518 -16.987   3.385  1.00  0.00     0.167 HD
BRANCH  14  16
HETATM   16  C   UNL     1      42.362 -17.828   3.189  1.00  0.00     0.036 A 
HETATM   17  C   UNL     1      42.975 -18.317   4.358  1.00  0.00     0.069 A 
HETATM   18  C   UNL     1      43.818 -19.406   4.265  1.00  0.00     0.107 A 
HETATM   19  C   UNL     1      44.069 -20.028   3.067  1.00  0.00     0.105 A 
HETATM   20  O   UNL     1      44.485 -19.986   5.300  1.00  0.00    -0.323 OA
HETATM   21  O   UNL     1      44.926 -21.074   3.193  1.00  0.00    -0.323 OA
HETATM   22  C   UNL     1      43.485 -19.595   1.901  1.00  0.00     0.042 A 
HETATM   23  C   UNL     1      45.186 -21.043   4.611  1.00  0.00     0.352 A 
HETATM   24  C   UNL     1      42.623 -18.491   1.971  1.00  0.00     0.032 A 
ENDBRANCH  14  16
ENDBRANCH   6  14
TORSDOF 2
ENDMDL
