MODEL 1
REMARK VINA RESULT:      -8.2      0.000      0.000
REMARK  5 active torsions:
REMARK  status: ('A' for Active; 'I' for Inactive)
REMARK    1  A    between atoms: C_8  and  C_9 
REMARK       I    between atoms: C_9  and  N_10 
REMARK    2  A    between atoms: N_10  and  C_11 
REMARK    3  A    between atoms: C_14  and  N_15 
REMARK       I    between atoms: N_15  and  C_16 
REMARK       I    between atoms: C_16  and  N_17 
REMARK    4  A    between atoms: N_17  and  C_18 
REMARK    5  A    between atoms: C_18  and  C_19 
ROOT
HETATM    1  C   UNL     1      41.234 -16.039   2.190  1.00  0.00     0.035 A 
HETATM    2  C   UNL     1      41.510 -15.851   0.836  1.00  0.00     0.032 A 
HETATM    3  C   UNL     1      40.726 -14.982   0.056  1.00  0.00     0.032 A 
HETATM    4  C   UNL     1      39.666 -14.278   0.624  1.00  0.00     0.036 A 
HETATM    5  C   UNL     1      39.364 -14.500   1.972  1.00  0.00     0.032 A 
HETATM    6  C   UNL     1      40.144 -15.365   2.748  1.00  0.00     0.032 A 
ENDROOT
BRANCH   1   7
HETATM    7  N   UNL     1      41.969 -16.879   3.052  1.00  0.00    -0.322 N 
HETATM    8  C   UNL     1      43.323 -16.835   3.345  1.00  0.00     0.274 C 
HETATM    9  O   UNL     1      44.098 -15.997   2.900  1.00  0.00    -0.266 OA
HETATM   10  H   UNL     1      41.418 -17.551   3.566  1.00  0.00     0.169 HD
BRANCH   8  11
HETATM   11  C   UNL     1      43.747 -17.866   4.271  1.00  0.00     0.126 A 
HETATM   12  N   UNL     1      43.998 -19.195   3.954  1.00  0.00    -0.300 N 
HETATM   13  C   UNL     1      43.922 -19.878   2.735  1.00  0.00     0.106 A 
HETATM   14  C   UNL     1      44.403 -19.818   5.134  1.00  0.00     0.134 A 
HETATM   15  C   UNL     1      44.245 -21.184   2.671  1.00  0.00    -0.046 A 
HETATM   16  C   UNL     1      44.185 -21.995   1.414  1.00  0.00     0.049 C 
HETATM   17  C   UNL     1      44.678 -21.852   3.895  1.00  0.00     0.012 A 
HETATM   18  C   UNL     1      44.752 -21.196   5.068  1.00  0.00     0.051 A 
HETATM   19  N   UNL     1      44.395 -18.991   6.154  1.00  0.00    -0.240 NA
HETATM   20  C   UNL     1      43.975 -17.798   5.637  1.00  0.00     0.155 A 
ENDBRANCH   8  11
ENDBRANCH   1   7
BRANCH   4  21
HETATM   21  N   UNL     1      38.826 -13.385  -0.063  1.00  0.00    -0.309 N 
HETATM   22  C   UNL     1      38.050 -13.484  -1.176  1.00  0.00     0.320 C 
HETATM   23  N   UNL     1      38.224 -14.560  -1.983  1.00  0.00    -0.339 N 
HETATM   24  O   UNL     1      37.271 -12.567  -1.428  1.00  0.00    -0.247 OA
HETATM   25  H   UNL     1      39.123 -15.011  -1.928  1.00  0.00     0.164 HD
HETATM   26  H   UNL     1      38.739 -12.455   0.332  1.00  0.00     0.170 HD
BRANCH  23  27
HETATM   27  C   UNL     1      37.525 -14.687  -3.240  1.00  0.00     0.150 C 
BRANCH  27  28
HETATM   28  C   UNL     1      38.241 -15.624  -4.167  1.00  0.00    -0.018 C 
HETATM   29  C   UNL     1      39.388 -16.282  -3.944  1.00  0.00     0.008 C 
ENDBRANCH  27  28
ENDBRANCH  23  27
ENDBRANCH   4  21
TORSDOF 5
ENDMDL
MODEL 2
REMARK VINA RESULT:      -8.2      3.239      9.388
REMARK  5 active torsions:
REMARK  status: ('A' for Active; 'I' for Inactive)
REMARK    1  A    between atoms: C_8  and  C_9 
REMARK       I    between atoms: C_9  and  N_10 
REMARK    2  A    between atoms: N_10  and  C_11 
REMARK    3  A    between atoms: C_14  and  N_15 
REMARK       I    between atoms: N_15  and  C_16 
REMARK       I    between atoms: C_16  and  N_17 
REMARK    4  A    between atoms: N_17  and  C_18 
REMARK    5  A    between atoms: C_18  and  C_19 
ROOT
HETATM    1  C   UNL     1      42.496 -17.013   0.932  1.00  0.00     0.035 A 
HETATM    2  C   UNL     1      41.586 -17.380   1.924  1.00  0.00     0.032 A 
HETATM    3  C   UNL     1      41.988 -18.180   3.008  1.00  0.00     0.032 A 
HETATM    4  C   UNL     1      43.309 -18.612   3.123  1.00  0.00     0.036 A 
HETATM    5  C   UNL     1      44.209 -18.278   2.105  1.00  0.00     0.032 A 
HETATM    6  C   UNL     1      43.810 -17.482   1.026  1.00  0.00     0.032 A 
ENDROOT
BRANCH   1   7
HETATM    7  N   UNL     1      42.189 -16.206  -0.183  1.00  0.00    -0.322 N 
HETATM    8  C   UNL     1      41.561 -14.971  -0.202  1.00  0.00     0.274 C 
HETATM    9  O   UNL     1      41.200 -14.365   0.800  1.00  0.00    -0.266 OA
HETATM   10  H   UNL     1      42.534 -16.550  -1.068  1.00  0.00     0.169 HD
BRANCH   8  11
HETATM   11  C   UNL     1      41.395 -14.428  -1.536  1.00  0.00     0.126 A 
HETATM   12  N   UNL     1      41.846 -13.191  -1.976  1.00  0.00    -0.300 N 
HETATM   13  C   UNL     1      42.546 -12.179  -1.309  1.00  0.00     0.106 A 
HETATM   14  C   UNL     1      41.494 -13.092  -3.322  1.00  0.00     0.134 A 
HETATM   15  C   UNL     1      42.904 -11.058  -1.966  1.00  0.00    -0.046 A 
HETATM   16  C   UNL     1      43.645  -9.923  -1.332  1.00  0.00     0.049 C 
HETATM   17  C   UNL     1      42.549 -10.940  -3.378  1.00  0.00     0.012 A 
HETATM   18  C   UNL     1      41.877 -11.912  -4.021  1.00  0.00     0.051 A 
HETATM   19  N   UNL     1      40.839 -14.152  -3.737  1.00  0.00    -0.240 NA
HETATM   20  C   UNL     1      40.758 -14.966  -2.644  1.00  0.00     0.155 A 
ENDBRANCH   8  11
ENDBRANCH   1   7
BRANCH   4  21
HETATM   21  N   UNL     1      43.813 -19.408   4.164  1.00  0.00    -0.309 N 
HETATM   22  C   UNL     1      43.744 -19.343   5.521  1.00  0.00     0.320 C 
HETATM   23  N   UNL     1      43.305 -18.190   6.084  1.00  0.00    -0.339 N 
HETATM   24  O   UNL     1      44.138 -20.309   6.173  1.00  0.00    -0.247 OA
HETATM   25  H   UNL     1      43.406 -17.360   5.524  1.00  0.00     0.164 HD
HETATM   26  H   UNL     1      44.337 -20.230   3.888  1.00  0.00     0.170 HD
BRANCH  23  27
HETATM   27  C   UNL     1      43.308 -17.996   7.515  1.00  0.00     0.150 C 
BRANCH  27  28
HETATM   28  C   UNL     1      43.495 -16.550   7.866  1.00  0.00    -0.018 C 
HETATM   29  C   UNL     1      44.046 -15.587   7.113  1.00  0.00     0.008 C 
ENDBRANCH  27  28
ENDBRANCH  23  27
ENDBRANCH   4  21
TORSDOF 5
ENDMDL
MODEL 3
REMARK VINA RESULT:      -8.2      3.079      9.141
REMARK  5 active torsions:
REMARK  status: ('A' for Active; 'I' for Inactive)
REMARK    1  A    between atoms: C_8  and  C_9 
REMARK       I    between atoms: C_9  and  N_10 
REMARK    2  A    between atoms: N_10  and  C_11 
REMARK    3  A    between atoms: C_14  and  N_15 
REMARK       I    between atoms: N_15  and  C_16 
REMARK       I    between atoms: C_16  and  N_17 
REMARK    4  A    between atoms: N_17  and  C_18 
REMARK    5  A    between atoms: C_18  and  C_19 
ROOT
HETATM    1  C   UNL     1      42.508 -16.088   1.494  1.00  0.00     0.035 A 
HETATM    2  C   UNL     1      43.130 -15.456   2.571  1.00  0.00     0.032 A 
HETATM    3  C   UNL     1      43.351 -16.144   3.777  1.00  0.00     0.032 A 
HETATM    4  C   UNL     1      42.966 -17.476   3.918  1.00  0.00     0.036 A 
HETATM    5  C   UNL     1      42.305 -18.095   2.852  1.00  0.00     0.032 A 
HETATM    6  C   UNL     1      42.085 -17.411   1.651  1.00  0.00     0.032 A 
ENDROOT
BRANCH   1   7
HETATM    7  N   UNL     1      42.255 -15.485   0.244  1.00  0.00    -0.322 N 
HETATM    8  C   UNL     1      41.096 -14.863  -0.190  1.00  0.00     0.274 C 
HETATM    9  O   UNL     1      40.093 -14.714   0.499  1.00  0.00    -0.266 OA
HETATM   10  H   UNL     1      43.048 -15.448  -0.381  1.00  0.00     0.169 HD
BRANCH   8  11
HETATM   11  C   UNL     1      41.183 -14.361  -1.547  1.00  0.00     0.126 A 
HETATM   12  N   UNL     1      41.744 -13.152  -1.936  1.00  0.00    -0.300 N 
HETATM   13  C   UNL     1      42.349 -12.137  -1.185  1.00  0.00     0.106 A 
HETATM   14  C   UNL     1      41.637 -13.089  -3.325  1.00  0.00     0.134 A 
HETATM   15  C   UNL     1      42.852 -11.049  -1.801  1.00  0.00    -0.046 A 
HETATM   16  C   UNL     1      43.507  -9.913  -1.078  1.00  0.00     0.049 C 
HETATM   17  C   UNL     1      42.753 -10.969  -3.256  1.00  0.00     0.012 A 
HETATM   18  C   UNL     1      42.173 -11.944  -3.979  1.00  0.00     0.051 A 
HETATM   19  N   UNL     1      41.030 -14.144  -3.819  1.00  0.00    -0.240 NA
HETATM   20  C   UNL     1      40.732 -14.919  -2.734  1.00  0.00     0.155 A 
ENDBRANCH   8  11
ENDBRANCH   1   7
BRANCH   4  21
HETATM   21  N   UNL     1      43.144 -18.252   5.075  1.00  0.00    -0.309 N 
HETATM   22  C   UNL     1      43.842 -19.386   5.355  1.00  0.00     0.320 C 
HETATM   23  N   UNL     1      44.323 -20.113   4.315  1.00  0.00    -0.339 N 
HETATM   24  O   UNL     1      43.954 -19.728   6.530  1.00  0.00    -0.247 OA
HETATM   25  H   UNL     1      43.846 -19.994   3.437  1.00  0.00     0.164 HD
HETATM   26  H   UNL     1      42.679 -17.923   5.914  1.00  0.00     0.170 HD
BRANCH  23  27
HETATM   27  C   UNL     1      44.974 -21.385   4.518  1.00  0.00     0.150 C 
BRANCH  27  28
HETATM   28  C   UNL     1      44.649 -22.344   3.411  1.00  0.00    -0.018 C 
HETATM   29  C   UNL     1      44.224 -22.054   2.172  1.00  0.00     0.008 C 
ENDBRANCH  27  28
ENDBRANCH  23  27
ENDBRANCH   4  21
TORSDOF 5
ENDMDL
MODEL 4
REMARK VINA RESULT:      -8.1      1.995      9.330
REMARK  5 active torsions:
REMARK  status: ('A' for Active; 'I' for Inactive)
REMARK    1  A    between atoms: C_8  and  C_9 
REMARK       I    between atoms: C_9  and  N_10 
REMARK    2  A    between atoms: N_10  and  C_11 
REMARK    3  A    between atoms: C_14  and  N_15 
REMARK       I    between atoms: N_15  and  C_16 
REMARK       I    between atoms: C_16  and  N_17 
REMARK    4  A    between atoms: N_17  and  C_18 
REMARK    5  A    between atoms: C_18  and  C_19 
ROOT
HETATM    1  C   UNL     1      41.969 -16.770   0.987  1.00  0.00     0.035 A 
HETATM    2  C   UNL     1      43.329 -17.074   1.035  1.00  0.00     0.032 A 
HETATM    3  C   UNL     1      43.939 -17.450   2.245  1.00  0.00     0.032 A 
HETATM    4  C   UNL     1      43.194 -17.541   3.420  1.00  0.00     0.036 A 
HETATM    5  C   UNL     1      41.839 -17.195   3.377  1.00  0.00     0.032 A 
HETATM    6  C   UNL     1      41.232 -16.820   2.173  1.00  0.00     0.032 A 
ENDROOT
BRANCH   1   7
HETATM    7  N   UNL     1      41.269 -16.396  -0.180  1.00  0.00    -0.322 N 
HETATM    8  C   UNL     1      41.274 -15.171  -0.828  1.00  0.00     0.274 C 
HETATM    9  O   UNL     1      41.947 -14.209  -0.479  1.00  0.00    -0.266 OA
HETATM   10  H   UNL     1      40.756 -17.141  -0.628  1.00  0.00     0.169 HD
BRANCH   8  11
HETATM   11  C   UNL     1      40.423 -15.136  -2.001  1.00  0.00     0.126 A 
HETATM   12  N   UNL     1      39.316 -14.317  -2.182  1.00  0.00    -0.300 N 
HETATM   13  C   UNL     1      38.740 -13.354  -1.345  1.00  0.00     0.106 A 
HETATM   14  C   UNL     1      38.817 -14.594  -3.454  1.00  0.00     0.134 A 
HETATM   15  C   UNL     1      37.664 -12.657  -1.758  1.00  0.00    -0.046 A 
HETATM   16  C   UNL     1      36.979 -11.616  -0.928  1.00  0.00     0.049 C 
HETATM   17  C   UNL     1      37.131 -12.929  -3.090  1.00  0.00     0.012 A 
HETATM   18  C   UNL     1      37.684 -13.854  -3.896  1.00  0.00     0.051 A 
HETATM   19  N   UNL     1      39.507 -15.535  -4.058  1.00  0.00    -0.240 NA
HETATM   20  C   UNL     1      40.481 -15.884  -3.167  1.00  0.00     0.155 A 
ENDBRANCH   8  11
ENDBRANCH   1   7
BRANCH   4  21
HETATM   21  N   UNL     1      43.703 -17.909   4.676  1.00  0.00    -0.309 N 
HETATM   22  C   UNL     1      44.356 -19.006   5.146  1.00  0.00     0.320 C 
HETATM   23  N   UNL     1      44.373 -20.120   4.372  1.00  0.00    -0.339 N 
HETATM   24  O   UNL     1      44.848 -18.956   6.272  1.00  0.00    -0.247 OA
HETATM   25  H   UNL     1      43.628 -20.201   3.700  1.00  0.00     0.164 HD
HETATM   26  H   UNL     1      43.595 -17.231   5.421  1.00  0.00     0.170 HD
BRANCH  23  27
HETATM   27  C   UNL     1      44.943 -21.361   4.842  1.00  0.00     0.150 C 
BRANCH  27  28
HETATM   28  C   UNL     1      44.678 -22.479   3.878  1.00  0.00    -0.018 C 
HETATM   29  C   UNL     1      44.432 -22.388   2.563  1.00  0.00     0.008 C 
ENDBRANCH  27  28
ENDBRANCH  23  27
ENDBRANCH   4  21
TORSDOF 5
ENDMDL
MODEL 5
REMARK VINA RESULT:      -7.9      2.035      2.854
REMARK  5 active torsions:
REMARK  status: ('A' for Active; 'I' for Inactive)
REMARK    1  A    between atoms: C_8  and  C_9 
REMARK       I    between atoms: C_9  and  N_10 
REMARK    2  A    between atoms: N_10  and  C_11 
REMARK    3  A    between atoms: C_14  and  N_15 
REMARK       I    between atoms: N_15  and  C_16 
REMARK       I    between atoms: C_16  and  N_17 
REMARK    4  A    between atoms: N_17  and  C_18 
REMARK    5  A    between atoms: C_18  and  C_19 
ROOT
HETATM    1  C   UNL     1      41.413 -16.619   2.182  1.00  0.00     0.035 A 
HETATM    2  C   UNL     1      40.341 -15.765   2.441  1.00  0.00     0.032 A 
HETATM    3  C   UNL     1      39.766 -15.001   1.411  1.00  0.00     0.032 A 
HETATM    4  C   UNL     1      40.245 -15.091   0.105  1.00  0.00     0.036 A 
HETATM    5  C   UNL     1      41.347 -15.916  -0.144  1.00  0.00     0.032 A 
HETATM    6  C   UNL     1      41.921 -16.676   0.881  1.00  0.00     0.032 A 
ENDROOT
BRANCH   1   7
HETATM    7  N   UNL     1      42.047 -17.431   3.146  1.00  0.00    -0.322 N 
HETATM    8  C   UNL     1      43.078 -17.094   4.009  1.00  0.00     0.274 C 
HETATM    9  O   UNL     1      43.583 -15.980   4.079  1.00  0.00    -0.266 OA
HETATM   10  H   UNL     1      41.645 -18.350   3.261  1.00  0.00     0.169 HD
BRANCH   8  11
HETATM   11  C   UNL     1      43.495 -18.187   4.864  1.00  0.00     0.126 A 
HETATM   12  N   UNL     1      43.883 -19.452   4.443  1.00  0.00    -0.300 N 
HETATM   13  C   UNL     1      43.981 -20.001   3.159  1.00  0.00     0.106 A 
HETATM   14  C   UNL     1      44.224 -20.169   5.589  1.00  0.00     0.134 A 
HETATM   15  C   UNL     1      44.416 -21.267   2.997  1.00  0.00    -0.046 A 
HETATM   16  C   UNL     1      44.543 -21.938   1.665  1.00  0.00     0.049 C 
HETATM   17  C   UNL     1      44.782 -22.031   4.186  1.00  0.00     0.012 A 
HETATM   18  C   UNL     1      44.690 -21.504   5.420  1.00  0.00     0.051 A 
HETATM   19  N   UNL     1      44.049 -19.461   6.682  1.00  0.00    -0.240 NA
HETATM   20  C   UNL     1      43.585 -18.252   6.246  1.00  0.00     0.155 A 
ENDBRANCH   8  11
ENDBRANCH   1   7
BRANCH   4  21
HETATM   21  N   UNL     1      39.740 -14.377  -0.995  1.00  0.00    -0.309 N 
HETATM   22  C   UNL     1      40.152 -13.272  -1.673  1.00  0.00     0.320 C 
HETATM   23  N   UNL     1      41.120 -12.504  -1.115  1.00  0.00    -0.339 N 
HETATM   24  O   UNL     1      39.588 -12.991  -2.729  1.00  0.00    -0.247 OA
HETATM   25  H   UNL     1      41.213 -12.570  -0.114  1.00  0.00     0.164 HD
HETATM   26  H   UNL     1      38.892 -14.739  -1.415  1.00  0.00     0.170 HD
BRANCH  23  27
HETATM   27  C   UNL     1      41.534 -11.255  -1.710  1.00  0.00     0.150 C 
BRANCH  27  28
HETATM   28  C   UNL     1      42.555 -10.560  -0.859  1.00  0.00    -0.018 C 
HETATM   29  C   UNL     1      43.717 -10.016  -1.250  1.00  0.00     0.008 C 
ENDBRANCH  27  28
ENDBRANCH  23  27
ENDBRANCH   4  21
TORSDOF 5
ENDMDL
MODEL 6
REMARK VINA RESULT:      -7.8      2.512      9.381
REMARK  5 active torsions:
REMARK  status: ('A' for Active; 'I' for Inactive)
REMARK    1  A    between atoms: C_8  and  C_9 
REMARK       I    between atoms: C_9  and  N_10 
REMARK    2  A    between atoms: N_10  and  C_11 
REMARK    3  A    between atoms: C_14  and  N_15 
REMARK       I    between atoms: N_15  and  C_16 
REMARK       I    between atoms: C_16  and  N_17 
REMARK    4  A    between atoms: N_17  and  C_18 
REMARK    5  A    between atoms: C_18  and  C_19 
ROOT
HETATM    1  C   UNL     1      42.018 -16.988   0.978  1.00  0.00     0.035 A 
HETATM    2  C   UNL     1      43.360 -17.367   1.005  1.00  0.00     0.032 A 
HETATM    3  C   UNL     1      43.955 -17.819   2.196  1.00  0.00     0.032 A 
HETATM    4  C   UNL     1      43.213 -17.912   3.372  1.00  0.00     0.036 A 
HETATM    5  C   UNL     1      41.879 -17.492   3.352  1.00  0.00     0.032 A 
HETATM    6  C   UNL     1      41.286 -17.042   2.167  1.00  0.00     0.032 A 
ENDROOT
BRANCH   1   7
HETATM    7  N   UNL     1      41.333 -16.535  -0.169  1.00  0.00    -0.322 N 
HETATM    8  C   UNL     1      41.287 -15.252  -0.690  1.00  0.00     0.274 C 
HETATM    9  O   UNL     1      41.893 -14.295  -0.222  1.00  0.00    -0.266 OA
HETATM   10  H   UNL     1      40.877 -17.257  -0.708  1.00  0.00     0.169 HD
BRANCH   8  11
HETATM   11  C   UNL     1      40.470 -15.142  -1.883  1.00  0.00     0.126 A 
HETATM   12  N   UNL     1      39.377 -14.302  -2.049  1.00  0.00    -0.300 N 
HETATM   13  C   UNL     1      38.787 -13.379  -1.177  1.00  0.00     0.106 A 
HETATM   14  C   UNL     1      38.912 -14.503  -3.349  1.00  0.00     0.134 A 
HETATM   15  C   UNL     1      37.730 -12.647  -1.582  1.00  0.00    -0.046 A 
HETATM   16  C   UNL     1      37.033 -11.645  -0.715  1.00  0.00     0.049 C 
HETATM   17  C   UNL     1      37.234 -12.840  -2.941  1.00  0.00     0.012 A 
HETATM   18  C   UNL     1      37.800 -13.726  -3.781  1.00  0.00     0.051 A 
HETATM   19  N   UNL     1      39.609 -15.417  -3.984  1.00  0.00    -0.240 NA
HETATM   20  C   UNL     1      40.553 -15.826  -3.085  1.00  0.00     0.155 A 
ENDBRANCH   8  11
ENDBRANCH   1   7
BRANCH   4  21
HETATM   21  N   UNL     1      43.709 -18.353   4.610  1.00  0.00    -0.309 N 
HETATM   22  C   UNL     1      43.867 -17.767   5.827  1.00  0.00     0.320 C 
HETATM   23  N   UNL     1      43.756 -16.417   5.906  1.00  0.00    -0.339 N 
HETATM   24  O   UNL     1      44.162 -18.479   6.785  1.00  0.00    -0.247 OA
HETATM   25  H   UNL     1      43.928 -15.911   5.053  1.00  0.00     0.164 HD
HETATM   26  H   UNL     1      44.012 -19.319   4.655  1.00  0.00     0.170 HD
BRANCH  23  27
HETATM   27  C   UNL     1      44.022 -15.705   7.133  1.00  0.00     0.150 C 
BRANCH  27  28
HETATM   28  C   UNL     1      44.445 -14.293   6.860  1.00  0.00    -0.018 C 
HETATM   29  C   UNL     1      45.072 -13.448   7.692  1.00  0.00     0.008 C 
ENDBRANCH  27  28
ENDBRANCH  23  27
ENDBRANCH   4  21
TORSDOF 5
ENDMDL
MODEL 7
REMARK VINA RESULT:      -7.8      5.641      8.392
REMARK  5 active torsions:
REMARK  status: ('A' for Active; 'I' for Inactive)
REMARK    1  A    between atoms: C_8  and  C_9 
REMARK       I    between atoms: C_9  and  N_10 
REMARK    2  A    between atoms: N_10  and  C_11 
REMARK    3  A    between atoms: C_14  and  N_15 
REMARK       I    between atoms: N_15  and  C_16 
REMARK       I    between atoms: C_16  and  N_17 
REMARK    4  A    between atoms: N_17  and  C_18 
REMARK    5  A    between atoms: C_18  and  C_19 
ROOT
HETATM    1  C   UNL     1      40.828 -13.406   5.468  1.00  0.00     0.035 A 
HETATM    2  C   UNL     1      39.604 -13.143   6.082  1.00  0.00     0.032 A 
HETATM    3  C   UNL     1      39.471 -12.081   6.994  1.00  0.00     0.032 A 
HETATM    4  C   UNL     1      40.557 -11.260   7.293  1.00  0.00     0.036 A 
HETATM    5  C   UNL     1      41.794 -11.553   6.709  1.00  0.00     0.032 A 
HETATM    6  C   UNL     1      41.927 -12.610   5.801  1.00  0.00     0.032 A 
ENDROOT
BRANCH   1   7
HETATM    7  N   UNL     1      41.054 -14.439   4.533  1.00  0.00    -0.322 N 
HETATM    8  C   UNL     1      41.024 -15.809   4.744  1.00  0.00     0.274 C 
HETATM    9  O   UNL     1      40.750 -16.336   5.815  1.00  0.00    -0.266 OA
HETATM   10  H   UNL     1      41.187 -14.132   3.581  1.00  0.00     0.169 HD
BRANCH   8  11
HETATM   11  C   UNL     1      41.317 -16.582   3.553  1.00  0.00     0.126 A 
HETATM   12  N   UNL     1      42.265 -17.591   3.447  1.00  0.00    -0.300 N 
HETATM   13  C   UNL     1      43.151 -18.120   4.393  1.00  0.00     0.106 A 
HETATM   14  C   UNL     1      42.191 -18.075   2.141  1.00  0.00     0.134 A 
HETATM   15  C   UNL     1      43.974 -19.133   4.055  1.00  0.00    -0.046 A 
HETATM   16  C   UNL     1      44.958 -19.753   4.997  1.00  0.00     0.049 C 
HETATM   17  C   UNL     1      43.906 -19.656   2.694  1.00  0.00     0.012 A 
HETATM   18  C   UNL     1      43.054 -19.149   1.784  1.00  0.00     0.051 A 
HETATM   19  N   UNL     1      41.297 -17.428   1.428  1.00  0.00    -0.240 NA
HETATM   20  C   UNL     1      40.771 -16.500   2.281  1.00  0.00     0.155 A 
ENDBRANCH   8  11
ENDBRANCH   1   7
BRANCH   4  21
HETATM   21  N   UNL     1      40.531 -10.174   8.184  1.00  0.00    -0.309 N 
HETATM   22  C   UNL     1      40.919 -10.003   9.476  1.00  0.00     0.320 C 
HETATM   23  N   UNL     1      41.202 -11.108  10.211  1.00  0.00    -0.339 N 
HETATM   24  O   UNL     1      40.939  -8.862   9.934  1.00  0.00    -0.247 OA
HETATM   25  H   UNL     1      40.773 -11.964   9.901  1.00  0.00     0.164 HD
HETATM   26  H   UNL     1      40.162  -9.303   7.820  1.00  0.00     0.170 HD
BRANCH  23  27
HETATM   27  C   UNL     1      41.511 -11.024  11.619  1.00  0.00     0.150 C 
BRANCH  27  28
HETATM   28  C   UNL     1      42.983 -10.847  11.842  1.00  0.00    -0.018 C 
HETATM   29  C   UNL     1      43.595  -9.910  12.581  1.00  0.00     0.008 C 
ENDBRANCH  27  28
ENDBRANCH  23  27
ENDBRANCH   4  21
TORSDOF 5
ENDMDL
MODEL 8
REMARK VINA RESULT:      -7.5      2.040      2.510
REMARK  5 active torsions:
REMARK  status: ('A' for Active; 'I' for Inactive)
REMARK    1  A    between atoms: C_8  and  C_9 
REMARK       I    between atoms: C_9  and  N_10 
REMARK    2  A    between atoms: N_10  and  C_11 
REMARK    3  A    between atoms: C_14  and  N_15 
REMARK       I    between atoms: N_15  and  C_16 
REMARK       I    between atoms: C_16  and  N_17 
REMARK    4  A    between atoms: N_17  and  C_18 
REMARK    5  A    between atoms: C_18  and  C_19 
ROOT
HETATM    1  C   UNL     1      41.737 -15.262   0.095  1.00  0.00     0.035 A 
HETATM    2  C   UNL     1      41.346 -15.858  -1.103  1.00  0.00     0.032 A 
HETATM    3  C   UNL     1      40.889 -15.076  -2.179  1.00  0.00     0.032 A 
HETATM    4  C   UNL     1      40.830 -13.687  -2.075  1.00  0.00     0.036 A 
HETATM    5  C   UNL     1      41.183 -13.095  -0.857  1.00  0.00     0.032 A 
HETATM    6  C   UNL     1      41.638 -13.873   0.213  1.00  0.00     0.032 A 
ENDROOT
BRANCH   1   7
HETATM    7  N   UNL     1      42.219 -15.962   1.222  1.00  0.00    -0.322 N 
HETATM    8  C   UNL     1      41.548 -16.879   2.015  1.00  0.00     0.274 C 
HETATM    9  O   UNL     1      40.397 -17.251   1.816  1.00  0.00    -0.266 OA
HETATM   10  H   UNL     1      43.198 -15.820   1.427  1.00  0.00     0.169 HD
BRANCH   8  11
HETATM   11  C   UNL     1      42.351 -17.397   3.104  1.00  0.00     0.126 A 
HETATM   12  N   UNL     1      43.036 -18.605   3.111  1.00  0.00    -0.300 N 
HETATM   13  C   UNL     1      43.146 -19.603   2.135  1.00  0.00     0.106 A 
HETATM   14  C   UNL     1      43.692 -18.688   4.339  1.00  0.00     0.134 A 
HETATM   15  C   UNL     1      43.904 -20.693   2.366  1.00  0.00    -0.046 A 
HETATM   16  C   UNL     1      44.072 -21.811   1.385  1.00  0.00     0.049 C 
HETATM   17  C   UNL     1      44.602 -20.793   3.644  1.00  0.00     0.012 A 
HETATM   18  C   UNL     1      44.498 -19.835   4.583  1.00  0.00     0.051 A 
HETATM   19  N   UNL     1      43.442 -17.646   5.099  1.00  0.00    -0.240 NA
HETATM   20  C   UNL     1      42.606 -16.861   4.357  1.00  0.00     0.155 A 
ENDBRANCH   8  11
ENDBRANCH   1   7
BRANCH   4  21
HETATM   21  N   UNL     1      40.394 -12.817  -3.087  1.00  0.00    -0.309 N 
HETATM   22  C   UNL     1      39.172 -12.392  -3.507  1.00  0.00     0.320 C 
HETATM   23  N   UNL     1      38.077 -13.058  -3.061  1.00  0.00    -0.339 N 
HETATM   24  O   UNL     1      39.120 -11.467  -4.314  1.00  0.00    -0.247 OA
HETATM   25  H   UNL     1      38.229 -14.007  -2.764  1.00  0.00     0.164 HD
HETATM   26  H   UNL     1      41.118 -12.374  -3.642  1.00  0.00     0.170 HD
BRANCH  23  27
HETATM   27  C   UNL     1      36.753 -12.747  -3.545  1.00  0.00     0.150 C 
BRANCH  27  28
HETATM   28  C   UNL     1      36.202 -13.868  -4.375  1.00  0.00    -0.018 C 
HETATM   29  C   UNL     1      35.786 -13.818  -5.649  1.00  0.00     0.008 C 
ENDBRANCH  27  28
ENDBRANCH  23  27
ENDBRANCH   4  21
TORSDOF 5
ENDMDL
MODEL 9
REMARK VINA RESULT:      -7.4      6.049      8.458
REMARK  5 active torsions:
REMARK  status: ('A' for Active; 'I' for Inactive)
REMARK    1  A    between atoms: C_8  and  C_9 
REMARK       I    between atoms: C_9  and  N_10 
REMARK    2  A    between atoms: N_10  and  C_11 
REMARK    3  A    between atoms: C_14  and  N_15 
REMARK       I    between atoms: N_15  and  C_16 
REMARK       I    between atoms: C_16  and  N_17 
REMARK    4  A    between atoms: N_17  and  C_18 
REMARK    5  A    between atoms: C_18  and  C_19 
ROOT
HETATM    1  C   UNL     1      41.447 -13.057   5.329  1.00  0.00     0.035 A 
HETATM    2  C   UNL     1      42.615 -13.005   4.568  1.00  0.00     0.032 A 
HETATM    3  C   UNL     1      42.664 -13.585   3.288  1.00  0.00     0.032 A 
HETATM    4  C   UNL     1      41.542 -14.210   2.746  1.00  0.00     0.036 A 
HETATM    5  C   UNL     1      40.385 -14.297   3.529  1.00  0.00     0.032 A 
HETATM    6  C   UNL     1      40.336 -13.721   4.803  1.00  0.00     0.032 A 
ENDROOT
BRANCH   1   7
HETATM    7  N   UNL     1      41.300 -12.495   6.615  1.00  0.00    -0.322 N 
HETATM    8  C   UNL     1      41.120 -11.164   6.955  1.00  0.00     0.274 C 
HETATM    9  O   UNL     1      41.025 -10.251   6.143  1.00  0.00    -0.266 OA
HETATM   10  H   UNL     1      41.255 -13.163   7.371  1.00  0.00     0.169 HD
BRANCH   8  11
HETATM   11  C   UNL     1      41.017 -10.942   8.384  1.00  0.00     0.126 A 
HETATM   12  N   UNL     1      42.078 -10.864   9.277  1.00  0.00    -0.300 N 
HETATM   13  C   UNL     1      43.459 -10.968   9.073  1.00  0.00     0.106 A 
HETATM   14  C   UNL     1      41.526 -10.617  10.534  1.00  0.00     0.134 A 
HETATM   15  C   UNL     1      44.307 -10.830  10.110  1.00  0.00    -0.046 A 
HETATM   16  C   UNL     1      45.795 -10.934   9.986  1.00  0.00     0.049 C 
HETATM   17  C   UNL     1      43.747 -10.564  11.433  1.00  0.00     0.012 A 
HETATM   18  C   UNL     1      42.420 -10.463  11.630  1.00  0.00     0.051 A 
HETATM   19  N   UNL     1      40.214 -10.565  10.492  1.00  0.00    -0.240 NA
HETATM   20  C   UNL     1      39.895 -10.782   9.182  1.00  0.00     0.155 A 
ENDBRANCH   8  11
ENDBRANCH   1   7
BRANCH   4  21
HETATM   21  N   UNL     1      41.484 -14.815   1.480  1.00  0.00    -0.309 N 
HETATM   22  C   UNL     1      42.032 -15.938   0.943  1.00  0.00     0.320 C 
HETATM   23  N   UNL     1      43.031 -16.551   1.627  1.00  0.00    -0.339 N 
HETATM   24  O   UNL     1      41.639 -16.310  -0.161  1.00  0.00    -0.247 OA
HETATM   25  H   UNL     1      43.545 -15.971   2.269  1.00  0.00     0.164 HD
HETATM   26  H   UNL     1      40.905 -14.354   0.787  1.00  0.00     0.170 HD
BRANCH  23  27
HETATM   27  C   UNL     1      43.744 -17.680   1.077  1.00  0.00     0.150 C 
BRANCH  27  28
HETATM   28  C   UNL     1      43.990 -18.727   2.121  1.00  0.00    -0.018 C 
HETATM   29  C   UNL     1      43.421 -18.830   3.331  1.00  0.00     0.008 C 
ENDBRANCH  27  28
ENDBRANCH  23  27
ENDBRANCH   4  21
TORSDOF 5
ENDMDL
MODEL 10
REMARK VINA RESULT:      -7.3      3.988      8.980
REMARK  5 active torsions:
REMARK  status: ('A' for Active; 'I' for Inactive)
REMARK    1  A    between atoms: C_8  and  C_9 
REMARK       I    between atoms: C_9  and  N_10 
REMARK    2  A    between atoms: N_10  and  C_11 
REMARK    3  A    between atoms: C_14  and  N_15 
REMARK       I    between atoms: N_15  and  C_16 
REMARK       I    between atoms: C_16  and  N_17 
REMARK    4  A    between atoms: N_17  and  C_18 
REMARK    5  A    between atoms: C_18  and  C_19 
ROOT
HETATM    1  C   UNL     1      42.501 -15.998   6.235  1.00  0.00     0.035 A 
HETATM    2  C   UNL     1      43.651 -16.334   6.948  1.00  0.00     0.032 A 
HETATM    3  C   UNL     1      44.155 -17.647   6.921  1.00  0.00     0.032 A 
HETATM    4  C   UNL     1      43.524 -18.636   6.169  1.00  0.00     0.036 A 
HETATM    5  C   UNL     1      42.347 -18.306   5.489  1.00  0.00     0.032 A 
HETATM    6  C   UNL     1      41.845 -17.000   5.516  1.00  0.00     0.032 A 
ENDROOT
BRANCH   1   7
HETATM    7  N   UNL     1      41.929 -14.708   6.192  1.00  0.00    -0.322 N 
HETATM    8  C   UNL     1      42.382 -13.591   5.510  1.00  0.00     0.274 C 
HETATM    9  O   UNL     1      43.371 -13.577   4.787  1.00  0.00    -0.266 OA
HETATM   10  H   UNL     1      41.043 -14.618   6.668  1.00  0.00     0.169 HD
BRANCH   8  11
HETATM   11  C   UNL     1      41.548 -12.421   5.701  1.00  0.00     0.126 A 
HETATM   12  N   UNL     1      40.513 -12.011   4.871  1.00  0.00    -0.300 N 
HETATM   13  C   UNL     1      40.006 -12.570   3.692  1.00  0.00     0.106 A 
HETATM   14  C   UNL     1      39.971 -10.861   5.444  1.00  0.00     0.134 A 
HETATM   15  C   UNL     1      38.959 -11.996   3.068  1.00  0.00    -0.046 A 
HETATM   16  C   UNL     1      38.359 -12.519   1.800  1.00  0.00     0.049 C 
HETATM   17  C   UNL     1      38.375 -10.794   3.656  1.00  0.00     0.012 A 
HETATM   18  C   UNL     1      38.861 -10.256   4.790  1.00  0.00     0.051 A 
HETATM   19  N   UNL     1      40.605 -10.513   6.540  1.00  0.00    -0.240 NA
HETATM   20  C   UNL     1      41.585 -11.453   6.694  1.00  0.00     0.155 A 
ENDBRANCH   8  11
ENDBRANCH   1   7
BRANCH   4  21
HETATM   21  N   UNL     1      43.946 -19.972   6.072  1.00  0.00    -0.309 N 
HETATM   22  C   UNL     1      44.600 -20.690   5.118  1.00  0.00     0.320 C 
HETATM   23  N   UNL     1      44.717 -20.148   3.880  1.00  0.00    -0.339 N 
HETATM   24  O   UNL     1      44.999 -21.816   5.406  1.00  0.00    -0.247 OA
HETATM   25  H   UNL     1      44.031 -19.454   3.636  1.00  0.00     0.164 HD
HETATM   26  H   UNL     1      43.755 -20.564   6.872  1.00  0.00     0.170 HD
BRANCH  23  27
HETATM   27  C   UNL     1      45.294 -20.887   2.781  1.00  0.00     0.150 C 
BRANCH  27  28
HETATM   28  C   UNL     1      44.252 -21.692   2.063  1.00  0.00    -0.018 C 
HETATM   29  C   UNL     1      42.994 -21.331   1.769  1.00  0.00     0.008 C 
ENDBRANCH  27  28
ENDBRANCH  23  27
ENDBRANCH   4  21
TORSDOF 5
ENDMDL
