MODEL 1
REMARK VINA RESULT:      -8.5      0.000      0.000
REMARK  3 active torsions:
REMARK  status: ('A' for Active; 'I' for Inactive)
REMARK    1  A    between atoms: C_2  and  C_3 
REMARK    2  A    between atoms: C_18  and  C_19 
REMARK    3  A    between atoms: C_22  and  O_23 
ROOT
HETATM    1  C   UNL     1      39.590 -15.915   2.518  1.00  0.00     0.060 C 
HETATM    2  C   UNL     1      40.409 -14.963   3.443  1.00  0.00     0.210 C 
HETATM    3  N   UNL     1      39.447 -14.674   4.523  1.00  0.00     0.110 N 
HETATM    4  C   UNL     1      39.623 -13.414   5.237  1.00  0.00     0.374 C 
HETATM    5  C   UNL     1      40.979 -13.098   5.834  1.00  0.00     0.250 C 
HETATM    6  O   UNL     1      41.112 -12.050   6.486  1.00  0.00    -0.271 OA
HETATM    7  N   UNL     1      42.060 -13.907   5.787  1.00  0.00    -0.325 N 
HETATM    8  C   UNL     1      42.352 -15.109   5.134  1.00  0.00     0.044 A 
HETATM    9  C   UNL     1      41.622 -15.677   4.078  1.00  0.00     0.012 A 
HETATM   10  C   UNL     1      43.514 -15.748   5.601  1.00  0.00     0.031 A 
HETATM   11  C   UNL     1      43.928 -16.977   5.091  1.00  0.00     0.014 A 
HETATM   12  C   UNL     1      43.200 -17.608   4.084  1.00  0.00    -0.025 A 
HETATM   13  C   UNL     1      42.072 -16.932   3.581  1.00  0.00     0.024 A 
HETATM   14  H   UNL     1      39.460 -15.447   5.188  1.00  0.00     0.318 HD
HETATM   15  H   UNL     1      42.791 -13.527   6.378  1.00  0.00     0.169 HD
ENDROOT
BRANCH  12  16
HETATM   16  C   UNL     1      43.588 -18.942   3.584  1.00  0.00    -0.026 A 
HETATM   17  C   UNL     1      43.147 -19.393   2.324  1.00  0.00     0.015 A 
HETATM   18  C   UNL     1      43.514 -20.648   1.830  1.00  0.00     0.037 A 
HETATM   19  C   UNL     1      44.333 -21.468   2.594  1.00  0.00     0.065 A 
HETATM   20  C   UNL     1      44.787 -21.052   3.839  1.00  0.00     0.037 A 
HETATM   21  C   UNL     1      44.414 -19.798   4.331  1.00  0.00     0.015 A 
BRANCH  19  22
HETATM   22  O   UNL     1      44.720 -22.697   2.152  1.00  0.00    -0.361 OA
HETATM   23  H   UNL     1      44.812 -23.288   2.918  1.00  0.00     0.217 HD
ENDBRANCH  19  22
ENDBRANCH  12  16
BRANCH   2  24
HETATM   24  C   UNL     1      40.774 -13.744   2.555  1.00  0.00    -0.016 A 
HETATM   25  C   UNL     1      42.090 -13.479   2.137  1.00  0.00     0.010 A 
HETATM   26  C   UNL     1      42.391 -12.368   1.339  1.00  0.00     0.001 A 
HETATM   27  C   UNL     1      41.381 -11.505   0.928  1.00  0.00     0.000 A 
HETATM   28  C   UNL     1      40.066 -11.756   1.302  1.00  0.00     0.001 A 
HETATM   29  C   UNL     1      39.766 -12.867   2.095  1.00  0.00     0.010 A 
ENDBRANCH   2  24
TORSDOF 3
ENDMDL
MODEL 2
REMARK VINA RESULT:      -8.4      3.668      4.879
REMARK  3 active torsions:
REMARK  status: ('A' for Active; 'I' for Inactive)
REMARK    1  A    between atoms: C_2  and  C_3 
REMARK    2  A    between atoms: C_18  and  C_19 
REMARK    3  A    between atoms: C_22  and  O_23 
ROOT
HETATM    1  C   UNL     1      41.333 -15.891  -2.583  1.00  0.00     0.060 C 
HETATM    2  C   UNL     1      40.573 -14.769  -1.812  1.00  0.00     0.210 C 
HETATM    3  N   UNL     1      39.201 -14.904  -2.338  1.00  0.00     0.110 N 
HETATM    4  C   UNL     1      38.365 -13.709  -2.303  1.00  0.00     0.374 C 
HETATM    5  C   UNL     1      38.204 -12.970  -0.990  1.00  0.00     0.250 C 
HETATM    6  O   UNL     1      37.452 -11.985  -0.950  1.00  0.00    -0.271 OA
HETATM    7  N   UNL     1      38.757 -13.341   0.187  1.00  0.00    -0.325 N 
HETATM    8  C   UNL     1      39.680 -14.320   0.566  1.00  0.00     0.044 A 
HETATM    9  C   UNL     1      40.520 -15.045  -0.295  1.00  0.00     0.012 A 
HETATM   10  C   UNL     1      39.752 -14.534   1.954  1.00  0.00     0.031 A 
HETATM   11  C   UNL     1      40.589 -15.504   2.502  1.00  0.00     0.014 A 
HETATM   12  C   UNL     1      41.395 -16.290   1.681  1.00  0.00    -0.025 A 
HETATM   13  C   UNL     1      41.362 -16.027   0.298  1.00  0.00     0.024 A 
HETATM   14  H   UNL     1      38.733 -15.661  -1.840  1.00  0.00     0.318 HD
HETATM   15  H   UNL     1      38.382 -12.763   0.931  1.00  0.00     0.169 HD
ENDROOT
BRANCH  12  16
HETATM   16  C   UNL     1      42.234 -17.367   2.242  1.00  0.00    -0.026 A 
HETATM   17  C   UNL     1      43.072 -18.134   1.408  1.00  0.00     0.015 A 
HETATM   18  C   UNL     1      43.881 -19.151   1.924  1.00  0.00     0.037 A 
HETATM   19  C   UNL     1      43.863 -19.410   3.288  1.00  0.00     0.065 A 
HETATM   20  C   UNL     1      43.050 -18.671   4.137  1.00  0.00     0.037 A 
HETATM   21  C   UNL     1      42.239 -17.657   3.617  1.00  0.00     0.015 A 
BRANCH  19  22
HETATM   22  O   UNL     1      44.637 -20.387   3.837  1.00  0.00    -0.361 OA
HETATM   23  H   UNL     1      45.105 -20.851   3.123  1.00  0.00     0.217 HD
ENDBRANCH  19  22
ENDBRANCH  12  16
BRANCH   2  24
HETATM   24  C   UNL     1      41.289 -13.448  -2.201  1.00  0.00    -0.016 A 
HETATM   25  C   UNL     1      41.956 -12.643  -1.259  1.00  0.00     0.010 A 
HETATM   26  C   UNL     1      42.590 -11.454  -1.637  1.00  0.00     0.001 A 
HETATM   27  C   UNL     1      42.586 -11.048  -2.968  1.00  0.00     0.000 A 
HETATM   28  C   UNL     1      41.959 -11.837  -3.926  1.00  0.00     0.001 A 
HETATM   29  C   UNL     1      41.330 -13.026  -3.549  1.00  0.00     0.010 A 
ENDBRANCH   2  24
TORSDOF 3
ENDMDL
MODEL 3
REMARK VINA RESULT:      -8.2      3.425      4.937
REMARK  3 active torsions:
REMARK  status: ('A' for Active; 'I' for Inactive)
REMARK    1  A    between atoms: C_2  and  C_3 
REMARK    2  A    between atoms: C_18  and  C_19 
REMARK    3  A    between atoms: C_22  and  O_23 
ROOT
HETATM    1  C   UNL     1      41.750 -12.835   2.318  1.00  0.00     0.060 C 
HETATM    2  C   UNL     1      41.245 -13.809   1.210  1.00  0.00     0.210 C 
HETATM    3  N   UNL     1      42.131 -13.481   0.077  1.00  0.00     0.110 N 
HETATM    4  C   UNL     1      41.612 -13.747  -1.260  1.00  0.00     0.374 C 
HETATM    5  C   UNL     1      41.083 -15.131  -1.573  1.00  0.00     0.250 C 
HETATM    6  O   UNL     1      40.691 -15.371  -2.726  1.00  0.00    -0.271 OA
HETATM    7  N   UNL     1      41.071 -16.176  -0.715  1.00  0.00    -0.325 N 
HETATM    8  C   UNL     1      41.359 -16.324   0.646  1.00  0.00     0.044 A 
HETATM    9  C   UNL     1      41.492 -15.286   1.582  1.00  0.00     0.012 A 
HETATM   10  C   UNL     1      41.486 -17.661   1.062  1.00  0.00     0.031 A 
HETATM   11  C   UNL     1      41.814 -17.989   2.377  1.00  0.00     0.014 A 
HETATM   12  C   UNL     1      42.016 -16.990   3.327  1.00  0.00    -0.025 A 
HETATM   13  C   UNL     1      41.827 -15.657   2.914  1.00  0.00     0.024 A 
HETATM   14  H   UNL     1      43.016 -13.970   0.203  1.00  0.00     0.318 HD
HETATM   15  H   UNL     1      40.799 -17.017  -1.212  1.00  0.00     0.169 HD
ENDROOT
BRANCH  12  16
HETATM   16  C   UNL     1      42.431 -17.321   4.704  1.00  0.00    -0.026 A 
HETATM   17  C   UNL     1      43.300 -18.402   4.953  1.00  0.00     0.015 A 
HETATM   18  C   UNL     1      43.712 -18.723   6.250  1.00  0.00     0.037 A 
HETATM   19  C   UNL     1      43.259 -17.959   7.317  1.00  0.00     0.065 A 
HETATM   20  C   UNL     1      42.404 -16.886   7.105  1.00  0.00     0.037 A 
HETATM   21  C   UNL     1      41.991 -16.571   5.807  1.00  0.00     0.015 A 
BRANCH  19  22
HETATM   22  O   UNL     1      43.637 -18.231   8.597  1.00  0.00    -0.361 OA
HETATM   23  H   UNL     1      43.936 -19.154   8.643  1.00  0.00     0.217 HD
ENDBRANCH  19  22
ENDBRANCH  12  16
BRANCH   2  24
HETATM   24  C   UNL     1      39.752 -13.442   0.993  1.00  0.00    -0.016 A 
HETATM   25  C   UNL     1      38.718 -14.391   1.090  1.00  0.00     0.010 A 
HETATM   26  C   UNL     1      37.380 -14.033   0.885  1.00  0.00     0.001 A 
HETATM   27  C   UNL     1      37.043 -12.715   0.594  1.00  0.00     0.000 A 
HETATM   28  C   UNL     1      38.040 -11.749   0.519  1.00  0.00     0.001 A 
HETATM   29  C   UNL     1      39.375 -12.107   0.727  1.00  0.00     0.010 A 
ENDBRANCH   2  24
TORSDOF 3
ENDMDL
MODEL 4
REMARK VINA RESULT:      -8.1      1.961      3.693
REMARK  3 active torsions:
REMARK  status: ('A' for Active; 'I' for Inactive)
REMARK    1  A    between atoms: C_2  and  C_3 
REMARK    2  A    between atoms: C_18  and  C_19 
REMARK    3  A    between atoms: C_22  and  O_23 
ROOT
HETATM    1  C   UNL     1      43.797 -13.997   4.170  1.00  0.00     0.060 C 
HETATM    2  C   UNL     1      42.430 -13.879   3.428  1.00  0.00     0.210 C 
HETATM    3  N   UNL     1      42.733 -12.895   2.371  1.00  0.00     0.110 N 
HETATM    4  C   UNL     1      41.611 -12.114   1.862  1.00  0.00     0.374 C 
HETATM    5  C   UNL     1      40.379 -12.845   1.368  1.00  0.00     0.250 C 
HETATM    6  O   UNL     1      39.447 -12.182   0.887  1.00  0.00    -0.271 OA
HETATM    7  N   UNL     1      40.231 -14.188   1.330  1.00  0.00    -0.325 N 
HETATM    8  C   UNL     1      40.985 -15.267   1.804  1.00  0.00     0.044 A 
HETATM    9  C   UNL     1      42.032 -15.200   2.736  1.00  0.00     0.012 A 
HETATM   10  C   UNL     1      40.590 -16.513   1.286  1.00  0.00     0.031 A 
HETATM   11  C   UNL     1      41.261 -17.689   1.619  1.00  0.00     0.014 A 
HETATM   12  C   UNL     1      42.346 -17.662   2.492  1.00  0.00    -0.025 A 
HETATM   13  C   UNL     1      42.695 -16.418   3.053  1.00  0.00     0.024 A 
HETATM   14  H   UNL     1      43.191 -13.377   1.598  1.00  0.00     0.318 HD
HETATM   15  H   UNL     1      39.380 -14.419   0.829  1.00  0.00     0.169 HD
ENDROOT
BRANCH  12  16
HETATM   16  C   UNL     1      43.108 -18.889   2.799  1.00  0.00    -0.026 A 
HETATM   17  C   UNL     1      43.776 -19.030   4.032  1.00  0.00     0.015 A 
HETATM   18  C   UNL     1      44.494 -20.189   4.343  1.00  0.00     0.037 A 
HETATM   19  C   UNL     1      44.547 -21.226   3.421  1.00  0.00     0.065 A 
HETATM   20  C   UNL     1      43.898 -21.118   2.198  1.00  0.00     0.037 A 
HETATM   21  C   UNL     1      43.185 -19.955   1.889  1.00  0.00     0.015 A 
BRANCH  19  22
HETATM   22  O   UNL     1      45.230 -22.375   3.681  1.00  0.00    -0.361 OA
HETATM   23  H   UNL     1      46.180 -22.202   3.578  1.00  0.00     0.217 HD
ENDBRANCH  19  22
ENDBRANCH  12  16
BRANCH   2  24
HETATM   24  C   UNL     1      41.423 -13.388   4.502  1.00  0.00    -0.016 A 
HETATM   25  C   UNL     1      40.292 -14.135   4.877  1.00  0.00     0.010 A 
HETATM   26  C   UNL     1      39.397 -13.666   5.846  1.00  0.00     0.001 A 
HETATM   27  C   UNL     1      39.621 -12.445   6.475  1.00  0.00     0.000 A 
HETATM   28  C   UNL     1      40.745 -11.697   6.146  1.00  0.00     0.001 A 
HETATM   29  C   UNL     1      41.640 -12.168   5.182  1.00  0.00     0.010 A 
ENDBRANCH   2  24
TORSDOF 3
ENDMDL
MODEL 5
REMARK VINA RESULT:      -7.9      2.064      3.572
REMARK  3 active torsions:
REMARK  status: ('A' for Active; 'I' for Inactive)
REMARK    1  A    between atoms: C_2  and  C_3 
REMARK    2  A    between atoms: C_18  and  C_19 
REMARK    3  A    between atoms: C_22  and  O_23 
ROOT
HETATM    1  C   UNL     1      43.729 -13.520   3.977  1.00  0.00     0.060 C 
HETATM    2  C   UNL     1      42.323 -13.560   3.303  1.00  0.00     0.210 C 
HETATM    3  N   UNL     1      42.539 -12.762   2.081  1.00  0.00     0.110 N 
HETATM    4  C   UNL     1      41.368 -12.105   1.513  1.00  0.00     0.374 C 
HETATM    5  C   UNL     1      40.137 -12.936   1.217  1.00  0.00     0.250 C 
HETATM    6  O   UNL     1      39.161 -12.386   0.685  1.00  0.00    -0.271 OA
HETATM    7  N   UNL     1      40.030 -14.270   1.413  1.00  0.00    -0.325 N 
HETATM    8  C   UNL     1      40.841 -15.235   2.018  1.00  0.00     0.044 A 
HETATM    9  C   UNL     1      41.933 -14.988   2.865  1.00  0.00     0.012 A 
HETATM   10  C   UNL     1      40.461 -16.560   1.739  1.00  0.00     0.031 A 
HETATM   11  C   UNL     1      41.185 -17.647   2.226  1.00  0.00     0.014 A 
HETATM   12  C   UNL     1      42.312 -17.448   3.021  1.00  0.00    -0.025 A 
HETATM   13  C   UNL     1      42.649 -16.119   3.345  1.00  0.00     0.024 A 
HETATM   14  H   UNL     1      42.972 -13.357   1.376  1.00  0.00     0.318 HD
HETATM   15  H   UNL     1      39.163 -14.601   1.006  1.00  0.00     0.169 HD
ENDROOT
BRANCH  12  16
HETATM   16  C   UNL     1      43.128 -18.587   3.486  1.00  0.00    -0.026 A 
HETATM   17  C   UNL     1      43.675 -19.502   2.565  1.00  0.00     0.015 A 
HETATM   18  C   UNL     1      44.459 -20.580   2.987  1.00  0.00     0.037 A 
HETATM   19  C   UNL     1      44.707 -20.753   4.342  1.00  0.00     0.065 A 
HETATM   20  C   UNL     1      44.183 -19.868   5.275  1.00  0.00     0.037 A 
HETATM   21  C   UNL     1      43.397 -18.793   4.849  1.00  0.00     0.015 A 
BRANCH  19  22
HETATM   22  O   UNL     1      45.467 -21.786   4.800  1.00  0.00    -0.361 OA
HETATM   23  H   UNL     1      45.827 -21.546   5.670  1.00  0.00     0.217 HD
ENDBRANCH  19  22
ENDBRANCH  12  16
BRANCH   2  24
HETATM   24  C   UNL     1      41.357 -12.917   4.335  1.00  0.00    -0.016 A 
HETATM   25  C   UNL     1      41.513 -11.598   4.798  1.00  0.00     0.010 A 
HETATM   26  C   UNL     1      40.629 -11.046   5.733  1.00  0.00     0.001 A 
HETATM   27  C   UNL     1      39.559 -11.793   6.214  1.00  0.00     0.000 A 
HETATM   28  C   UNL     1      39.363 -13.090   5.753  1.00  0.00     0.001 A 
HETATM   29  C   UNL     1      40.243 -13.639   4.818  1.00  0.00     0.010 A 
ENDBRANCH   2  24
TORSDOF 3
ENDMDL
MODEL 6
REMARK VINA RESULT:      -7.8      3.800      6.005
REMARK  3 active torsions:
REMARK  status: ('A' for Active; 'I' for Inactive)
REMARK    1  A    between atoms: C_2  and  C_3 
REMARK    2  A    between atoms: C_18  and  C_19 
REMARK    3  A    between atoms: C_22  and  O_23 
ROOT
HETATM    1  C   UNL     1      42.182 -12.032   0.045  1.00  0.00     0.060 C 
HETATM    2  C   UNL     1      41.479 -13.285  -0.563  1.00  0.00     0.210 C 
HETATM    3  N   UNL     1      42.268 -13.522  -1.787  1.00  0.00     0.110 N 
HETATM    4  C   UNL     1      41.590 -14.211  -2.879  1.00  0.00     0.374 C 
HETATM    5  C   UNL     1      40.912 -15.535  -2.595  1.00  0.00     0.250 C 
HETATM    6  O   UNL     1      40.381 -16.146  -3.536  1.00  0.00    -0.271 OA
HETATM    7  N   UNL     1      40.898 -16.165  -1.399  1.00  0.00    -0.325 N 
HETATM    8  C   UNL     1      41.313 -15.819  -0.109  1.00  0.00     0.044 A 
HETATM    9  C   UNL     1      41.633 -14.527   0.339  1.00  0.00     0.012 A 
HETATM   10  C   UNL     1      41.365 -16.902   0.787  1.00  0.00     0.031 A 
HETATM   11  C   UNL     1      41.799 -16.742   2.102  1.00  0.00     0.014 A 
HETATM   12  C   UNL     1      42.186 -15.489   2.573  1.00  0.00    -0.025 A 
HETATM   13  C   UNL     1      42.072 -14.401   1.687  1.00  0.00     0.024 A 
HETATM   14  H   UNL     1      43.115 -14.031  -1.536  1.00  0.00     0.318 HD
HETATM   15  H   UNL     1      40.502 -17.092  -1.511  1.00  0.00     0.169 HD
ENDROOT
BRANCH  12  16
HETATM   16  C   UNL     1      42.712 -15.320   3.942  1.00  0.00    -0.026 A 
HETATM   17  C   UNL     1      42.802 -16.419   4.819  1.00  0.00     0.015 A 
HETATM   18  C   UNL     1      43.308 -16.278   6.115  1.00  0.00     0.037 A 
HETATM   19  C   UNL     1      43.735 -15.030   6.547  1.00  0.00     0.065 A 
HETATM   20  C   UNL     1      43.661 -13.927   5.707  1.00  0.00     0.037 A 
HETATM   21  C   UNL     1      43.151 -14.071   4.413  1.00  0.00     0.015 A 
BRANCH  19  22
HETATM   22  O   UNL     1      44.239 -14.845   7.799  1.00  0.00    -0.361 OA
HETATM   23  H   UNL     1      43.789 -14.087   8.207  1.00  0.00     0.217 HD
ENDBRANCH  19  22
ENDBRANCH  12  16
BRANCH   2  24
HETATM   24  C   UNL     1      40.010 -12.849  -0.812  1.00  0.00    -0.016 A 
HETATM   25  C   UNL     1      38.918 -13.478  -0.185  1.00  0.00     0.010 A 
HETATM   26  C   UNL     1      37.603 -13.067  -0.432  1.00  0.00     0.001 A 
HETATM   27  C   UNL     1      37.348 -12.008  -1.298  1.00  0.00     0.000 A 
HETATM   28  C   UNL     1      38.409 -11.350  -1.910  1.00  0.00     0.001 A 
HETATM   29  C   UNL     1      39.722 -11.758  -1.660  1.00  0.00     0.010 A 
ENDBRANCH   2  24
TORSDOF 3
ENDMDL
MODEL 7
REMARK VINA RESULT:      -7.6      3.388      6.436
REMARK  3 active torsions:
REMARK  status: ('A' for Active; 'I' for Inactive)
REMARK    1  A    between atoms: C_2  and  C_3 
REMARK    2  A    between atoms: C_18  and  C_19 
REMARK    3  A    between atoms: C_22  and  O_23 
ROOT
HETATM    1  C   UNL     1      40.537 -16.059   4.955  1.00  0.00     0.060 C 
HETATM    2  C   UNL     1      41.934 -16.706   4.705  1.00  0.00     0.210 C 
HETATM    3  N   UNL     1      41.742 -18.074   5.225  1.00  0.00     0.110 N 
HETATM    4  C   UNL     1      42.936 -18.772   5.688  1.00  0.00     0.374 C 
HETATM    5  C   UNL     1      44.126 -18.876   4.758  1.00  0.00     0.250 C 
HETATM    6  O   UNL     1      45.121 -19.516   5.134  1.00  0.00    -0.271 OA
HETATM    7  N   UNL     1      44.176 -18.393   3.496  1.00  0.00    -0.325 N 
HETATM    8  C   UNL     1      43.329 -17.591   2.724  1.00  0.00     0.044 A 
HETATM    9  C   UNL     1      42.257 -16.820   3.200  1.00  0.00     0.012 A 
HETATM   10  C   UNL     1      43.648 -17.573   1.355  1.00  0.00     0.031 A 
HETATM   11  C   UNL     1      42.881 -16.860   0.435  1.00  0.00     0.014 A 
HETATM   12  C   UNL     1      41.771 -16.129   0.854  1.00  0.00    -0.025 A 
HETATM   13  C   UNL     1      41.495 -16.105   2.235  1.00  0.00     0.024 A 
HETATM   14  H   UNL     1      41.277 -18.632   4.510  1.00  0.00     0.318 HD
HETATM   15  H   UNL     1      45.024 -18.716   3.045  1.00  0.00     0.169 HD
ENDROOT
BRANCH  12  16
HETATM   16  C   UNL     1      40.910 -15.426  -0.118  1.00  0.00    -0.026 A 
HETATM   17  C   UNL     1      39.904 -14.543   0.320  1.00  0.00     0.015 A 
HETATM   18  C   UNL     1      39.086 -13.861  -0.587  1.00  0.00     0.037 A 
HETATM   19  C   UNL     1      39.272 -14.054  -1.949  1.00  0.00     0.065 A 
HETATM   20  C   UNL     1      40.256 -14.916  -2.413  1.00  0.00     0.037 A 
HETATM   21  C   UNL     1      41.068 -15.599  -1.503  1.00  0.00     0.015 A 
BRANCH  19  22
HETATM   22  O   UNL     1      38.503 -13.409  -2.870  1.00  0.00    -0.361 OA
HETATM   23  H   UNL     1      38.194 -14.056  -3.525  1.00  0.00     0.217 HD
ENDBRANCH  19  22
ENDBRANCH  12  16
BRANCH   2  24
HETATM   24  C   UNL     1      42.936 -15.840   5.514  1.00  0.00    -0.016 A 
HETATM   25  C   UNL     1      43.603 -14.734   4.956  1.00  0.00     0.010 A 
HETATM   26  C   UNL     1      44.506 -13.972   5.708  1.00  0.00     0.001 A 
HETATM   27  C   UNL     1      44.752 -14.289   7.040  1.00  0.00     0.000 A 
HETATM   28  C   UNL     1      44.087 -15.359   7.627  1.00  0.00     0.001 A 
HETATM   29  C   UNL     1      43.183 -16.116   6.877  1.00  0.00     0.010 A 
ENDBRANCH   2  24
TORSDOF 3
ENDMDL
MODEL 8
REMARK VINA RESULT:      -7.4      3.108      6.692
REMARK  3 active torsions:
REMARK  status: ('A' for Active; 'I' for Inactive)
REMARK    1  A    between atoms: C_2  and  C_3 
REMARK    2  A    between atoms: C_18  and  C_19 
REMARK    3  A    between atoms: C_22  and  O_23 
ROOT
HETATM    1  C   UNL     1      44.423 -14.469   3.611  1.00  0.00     0.060 C 
HETATM    2  C   UNL     1      43.157 -15.289   4.007  1.00  0.00     0.210 C 
HETATM    3  N   UNL     1      42.720 -14.611   5.242  1.00  0.00     0.110 N 
HETATM    4  C   UNL     1      41.951 -15.410   6.190  1.00  0.00     0.374 C 
HETATM    5  C   UNL     1      40.721 -16.143   5.696  1.00  0.00     0.250 C 
HETATM    6  O   UNL     1      40.038 -16.779   6.515  1.00  0.00    -0.271 OA
HETATM    7  N   UNL     1      40.243 -16.103   4.432  1.00  0.00    -0.325 N 
HETATM    8  C   UNL     1      40.714 -15.571   3.227  1.00  0.00     0.044 A 
HETATM    9  C   UNL     1      42.025 -15.141   2.968  1.00  0.00     0.012 A 
HETATM   10  C   UNL     1      39.747 -15.516   2.208  1.00  0.00     0.031 A 
HETATM   11  C   UNL     1      40.034 -14.974   0.957  1.00  0.00     0.014 A 
HETATM   12  C   UNL     1      41.305 -14.478   0.674  1.00  0.00    -0.025 A 
HETATM   13  C   UNL     1      42.283 -14.594   1.680  1.00  0.00     0.024 A 
HETATM   14  H   UNL     1      42.188 -13.780   4.988  1.00  0.00     0.318 HD
HETATM   15  H   UNL     1      39.339 -16.560   4.399  1.00  0.00     0.169 HD
ENDROOT
BRANCH  12  16
HETATM   16  C   UNL     1      41.603 -13.840  -0.624  1.00  0.00    -0.026 A 
HETATM   17  C   UNL     1      42.230 -12.580  -0.677  1.00  0.00     0.015 A 
HETATM   18  C   UNL     1      42.529 -11.965  -1.897  1.00  0.00     0.037 A 
HETATM   19  C   UNL     1      42.205 -12.611  -3.082  1.00  0.00     0.065 A 
HETATM   20  C   UNL     1      41.589 -13.855  -3.064  1.00  0.00     0.037 A 
HETATM   21  C   UNL     1      41.288 -14.464  -1.842  1.00  0.00     0.015 A 
BRANCH  19  22
HETATM   22  O   UNL     1      42.481 -12.054  -4.294  1.00  0.00    -0.361 OA
HETATM   23  H   UNL     1      41.666 -11.662  -4.649  1.00  0.00     0.217 HD
ENDBRANCH  19  22
ENDBRANCH  12  16
BRANCH   2  24
HETATM   24  C   UNL     1      43.659 -16.744   4.208  1.00  0.00    -0.016 A 
HETATM   25  C   UNL     1      44.252 -17.181   5.406  1.00  0.00     0.010 A 
HETATM   26  C   UNL     1      44.700 -18.499   5.558  1.00  0.00     0.001 A 
HETATM   27  C   UNL     1      44.550 -19.415   4.522  1.00  0.00     0.000 A 
HETATM   28  C   UNL     1      43.942 -19.020   3.336  1.00  0.00     0.001 A 
HETATM   29  C   UNL     1      43.492 -17.706   3.186  1.00  0.00     0.010 A 
ENDBRANCH   2  24
TORSDOF 3
ENDMDL
MODEL 9
REMARK VINA RESULT:      -7.3      2.692      7.859
REMARK  3 active torsions:
REMARK  status: ('A' for Active; 'I' for Inactive)
REMARK    1  A    between atoms: C_2  and  C_3 
REMARK    2  A    between atoms: C_18  and  C_19 
REMARK    3  A    between atoms: C_22  and  O_23 
ROOT
HETATM    1  C   UNL     1      40.468 -16.815   6.230  1.00  0.00     0.060 C 
HETATM    2  C   UNL     1      41.423 -16.483   5.043  1.00  0.00     0.210 C 
HETATM    3  N   UNL     1      40.661 -16.979   3.881  1.00  0.00     0.110 N 
HETATM    4  C   UNL     1      41.435 -17.368   2.708  1.00  0.00     0.374 C 
HETATM    5  C   UNL     1      42.424 -16.378   2.126  1.00  0.00     0.250 C 
HETATM    6  O   UNL     1      43.043 -16.690   1.097  1.00  0.00    -0.271 OA
HETATM    7  N   UNL     1      42.641 -15.128   2.591  1.00  0.00    -0.325 N 
HETATM    8  C   UNL     1      42.213 -14.416   3.716  1.00  0.00     0.044 A 
HETATM    9  C   UNL     1      41.612 -14.962   4.862  1.00  0.00     0.012 A 
HETATM   10  C   UNL     1      42.462 -13.034   3.650  1.00  0.00     0.031 A 
HETATM   11  C   UNL     1      42.061 -12.170   4.667  1.00  0.00     0.014 A 
HETATM   12  C   UNL     1      41.406 -12.659   5.796  1.00  0.00    -0.025 A 
HETATM   13  C   UNL     1      41.216 -14.051   5.880  1.00  0.00     0.024 A 
HETATM   14  H   UNL     1      39.973 -16.275   3.617  1.00  0.00     0.318 HD
HETATM   15  H   UNL     1      43.242 -14.628   1.944  1.00  0.00     0.169 HD
ENDROOT
BRANCH  12  16
HETATM   16  C   UNL     1      40.916 -11.746   6.847  1.00  0.00    -0.026 A 
HETATM   17  C   UNL     1      39.618 -11.891   7.375  1.00  0.00     0.015 A 
HETATM   18  C   UNL     1      39.140 -11.042   8.380  1.00  0.00     0.037 A 
HETATM   19  C   UNL     1      39.963 -10.037   8.870  1.00  0.00     0.065 A 
HETATM   20  C   UNL     1      41.248  -9.870   8.372  1.00  0.00     0.037 A 
HETATM   21  C   UNL     1      41.720 -10.718   7.365  1.00  0.00     0.015 A 
BRANCH  19  22
HETATM   22  O   UNL     1      39.544  -9.190   9.850  1.00  0.00    -0.361 OA
HETATM   23  H   UNL     1      40.285  -8.614  10.101  1.00  0.00     0.217 HD
ENDBRANCH  19  22
ENDBRANCH  12  16
BRANCH   2  24
HETATM   24  C   UNL     1      42.733 -17.262   5.340  1.00  0.00    -0.016 A 
HETATM   25  C   UNL     1      43.830 -16.675   5.996  1.00  0.00     0.010 A 
HETATM   26  C   UNL     1      45.001 -17.401   6.248  1.00  0.00     0.001 A 
HETATM   27  C   UNL     1      45.096 -18.735   5.864  1.00  0.00     0.000 A 
HETATM   28  C   UNL     1      44.017 -19.350   5.240  1.00  0.00     0.001 A 
HETATM   29  C   UNL     1      42.848 -18.627   4.992  1.00  0.00     0.010 A 
ENDBRANCH   2  24
TORSDOF 3
ENDMDL
MODEL 10
REMARK VINA RESULT:      -7.2      2.836      7.412
REMARK  3 active torsions:
REMARK  status: ('A' for Active; 'I' for Inactive)
REMARK    1  A    between atoms: C_2  and  C_3 
REMARK    2  A    between atoms: C_18  and  C_19 
REMARK    3  A    between atoms: C_22  and  O_23 
ROOT
HETATM    1  C   UNL     1      39.997 -15.508   5.923  1.00  0.00     0.060 C 
HETATM    2  C   UNL     1      41.116 -15.987   4.949  1.00  0.00     0.210 C 
HETATM    3  N   UNL     1      40.944 -17.452   4.972  1.00  0.00     0.110 N 
HETATM    4  C   UNL     1      42.123 -18.255   4.664  1.00  0.00     0.374 C 
HETATM    5  C   UNL     1      42.880 -17.976   3.383  1.00  0.00     0.250 C 
HETATM    6  O   UNL     1      43.851 -18.695   3.097  1.00  0.00    -0.271 OA
HETATM    7  N   UNL     1      42.541 -17.046   2.462  1.00  0.00    -0.325 N 
HETATM    8  C   UNL     1      41.588 -16.024   2.413  1.00  0.00     0.044 A 
HETATM    9  C   UNL     1      40.866 -15.511   3.502  1.00  0.00     0.012 A 
HETATM   10  C   UNL     1      41.400 -15.477   1.131  1.00  0.00     0.031 A 
HETATM   11  C   UNL     1      40.456 -14.479   0.893  1.00  0.00     0.014 A 
HETATM   12  C   UNL     1      39.673 -13.982   1.933  1.00  0.00    -0.025 A 
HETATM   13  C   UNL     1      39.912 -14.493   3.224  1.00  0.00     0.024 A 
HETATM   14  H   UNL     1      40.187 -17.702   4.337  1.00  0.00     0.318 HD
HETATM   15  H   UNL     1      43.124 -17.158   1.640  1.00  0.00     0.169 HD
ENDROOT
BRANCH  12  16
HETATM   16  C   UNL     1      38.623 -12.975   1.683  1.00  0.00    -0.026 A 
HETATM   17  C   UNL     1      37.638 -13.194   0.700  1.00  0.00     0.015 A 
HETATM   18  C   UNL     1      36.630 -12.255   0.457  1.00  0.00     0.037 A 
HETATM   19  C   UNL     1      36.596 -11.084   1.202  1.00  0.00     0.065 A 
HETATM   20  C   UNL     1      37.551 -10.840   2.179  1.00  0.00     0.037 A 
HETATM   21  C   UNL     1      38.560 -11.779   2.416  1.00  0.00     0.015 A 
BRANCH  19  22
HETATM   22  O   UNL     1      35.631 -10.143   1.004  1.00  0.00    -0.361 OA
HETATM   23  H   UNL     1      34.767 -10.586   0.972  1.00  0.00     0.217 HD
ENDBRANCH  19  22
ENDBRANCH  12  16
BRANCH   2  24
HETATM   24  C   UNL     1      42.445 -15.480   5.571  1.00  0.00    -0.016 A 
HETATM   25  C   UNL     1      43.179 -14.413   5.023  1.00  0.00     0.010 A 
HETATM   26  C   UNL     1      44.377 -13.979   5.603  1.00  0.00     0.001 A 
HETATM   27  C   UNL     1      44.862 -14.592   6.754  1.00  0.00     0.000 A 
HETATM   28  C   UNL     1      44.144 -15.631   7.335  1.00  0.00     0.001 A 
HETATM   29  C   UNL     1      42.946 -16.061   6.758  1.00  0.00     0.010 A 
ENDBRANCH   2  24
TORSDOF 3
ENDMDL
