MODEL 1
REMARK VINA RESULT:      -6.8      0.000      0.000
REMARK  4 active torsions:
REMARK  status: ('A' for Active; 'I' for Inactive)
REMARK    1  A    between atoms: C_2  and  N_3 
REMARK       I    between atoms: N_3  and  C_4 
REMARK    2  A    between atoms: C_4  and  C_5 
REMARK    3  A    between atoms: C_5  and  N_6 
REMARK    4  A    between atoms: N_6  and  C_7 
ROOT
HETATM    1  C   UNL     1      42.690 -18.288   2.690  1.00  0.00     0.022 A 
HETATM    2  C   UNL     1      42.413 -17.881   4.029  1.00  0.00     0.013 A 
HETATM    3  C   UNL     1      41.253 -17.099   4.282  1.00  0.00     0.044 A 
HETATM    4  C   UNL     1      40.918 -16.692   5.584  1.00  0.00     0.032 A 
HETATM    5  C   UNL     1      41.732 -17.041   6.661  1.00  0.00     0.021 A 
HETATM    6  C   UNL     1      42.881 -17.789   6.437  1.00  0.00     0.012 A 
HETATM    7 BR   UNL     1      43.993 -18.252   7.893  1.00  0.00    -0.051 Br
HETATM    8  C   UNL     1      43.223 -18.201   5.145  1.00  0.00     0.034 A 
HETATM    9  N   UNL     1      40.468 -16.734   3.253  1.00  0.00    -0.365 N 
HETATM   10  H   UNL     1      39.642 -16.169   3.447  1.00  0.00     0.165 HD
HETATM   11  C   UNL     1      40.732 -17.056   1.983  1.00  0.00     0.090 A 
HETATM   12  C   UNL     1      41.845 -17.823   1.675  1.00  0.00     0.041 A 
ENDROOT
BRANCH   1  13
HETATM   13  N   UNL     1      43.859 -19.008   2.397  1.00  0.00    -0.283 NA
HETATM   14  H   UNL     1      44.484 -19.083   3.202  1.00  0.00     0.128 HD
BRANCH  13  15
HETATM   15  C   UNL     1      43.777 -20.329   1.729  1.00  0.00     0.195 C 
BRANCH  15  16
HETATM   16  C   UNL     1      44.291 -21.440   2.652  1.00  0.00     0.230 C 
HETATM   17  N   UNL     1      44.579 -21.009   3.931  1.00  0.00    -0.360 N 
HETATM   18  H   UNL     1      44.360 -20.047   4.166  1.00  0.00     0.162 HD
HETATM   19  O   UNL     1      44.464 -22.588   2.258  1.00  0.00    -0.272 OA
BRANCH  17  20
HETATM   20  C   UNL     1      45.093 -21.895   4.952  1.00  0.00     0.118 C 
HETATM   21  C   UNL     1      44.322 -21.758   6.252  1.00  0.00     0.026 C 
ENDBRANCH  17  20
ENDBRANCH  15  16
ENDBRANCH  13  15
ENDBRANCH   1  13
TORSDOF 4
ENDMDL
MODEL 2
REMARK VINA RESULT:      -6.7      3.992      6.271
REMARK  4 active torsions:
REMARK  status: ('A' for Active; 'I' for Inactive)
REMARK    1  A    between atoms: C_2  and  N_3 
REMARK       I    between atoms: N_3  and  C_4 
REMARK    2  A    between atoms: C_4  and  C_5 
REMARK    3  A    between atoms: C_5  and  N_6 
REMARK    4  A    between atoms: N_6  and  C_7 
ROOT
HETATM    1  C   UNL     1      43.063 -16.684   2.231  1.00  0.00     0.022 A 
HETATM    2  C   UNL     1      43.518 -17.889   2.844  1.00  0.00     0.013 A 
HETATM    3  C   UNL     1      43.792 -17.886   4.238  1.00  0.00     0.044 A 
HETATM    4  C   UNL     1      44.219 -19.050   4.899  1.00  0.00     0.032 A 
HETATM    5  C   UNL     1      44.394 -20.237   4.190  1.00  0.00     0.021 A 
HETATM    6  C   UNL     1      44.150 -20.260   2.822  1.00  0.00     0.012 A 
HETATM    7 BR   UNL     1      44.400 -21.864   1.855  1.00  0.00    -0.051 Br
HETATM    8  C   UNL     1      43.724 -19.108   2.154  1.00  0.00     0.034 A 
HETATM    9  N   UNL     1      43.650 -16.746   4.935  1.00  0.00    -0.365 N 
HETATM   10  H   UNL     1      43.855 -16.756   5.934  1.00  0.00     0.165 HD
HETATM   11  C   UNL     1      43.277 -15.590   4.377  1.00  0.00     0.090 A 
HETATM   12  C   UNL     1      42.989 -15.532   3.022  1.00  0.00     0.041 A 
ENDROOT
BRANCH   1  13
HETATM   13  N   UNL     1      42.842 -16.635   0.845  1.00  0.00    -0.283 NA
HETATM   14  H   UNL     1      43.416 -17.309   0.334  1.00  0.00     0.128 HD
BRANCH  13  15
HETATM   15  C   UNL     1      41.462 -16.673   0.304  1.00  0.00     0.195 C 
BRANCH  15  16
HETATM   16  C   UNL     1      41.258 -15.578  -0.749  1.00  0.00     0.230 C 
HETATM   17  N   UNL     1      40.589 -16.010  -1.875  1.00  0.00    -0.360 N 
HETATM   18  H   UNL     1      40.234 -16.960  -1.879  1.00  0.00     0.162 HD
HETATM   19  O   UNL     1      41.694 -14.442  -0.601  1.00  0.00    -0.272 OA
BRANCH  17  20
HETATM   20  C   UNL     1      40.311 -15.138  -2.996  1.00  0.00     0.118 C 
HETATM   21  C   UNL     1      39.291 -15.749  -3.939  1.00  0.00     0.026 C 
ENDBRANCH  17  20
ENDBRANCH  15  16
ENDBRANCH  13  15
ENDBRANCH   1  13
TORSDOF 4
ENDMDL
MODEL 3
REMARK VINA RESULT:      -6.7      3.504      6.211
REMARK  4 active torsions:
REMARK  status: ('A' for Active; 'I' for Inactive)
REMARK    1  A    between atoms: C_2  and  N_3 
REMARK       I    between atoms: N_3  and  C_4 
REMARK    2  A    between atoms: C_4  and  C_5 
REMARK    3  A    between atoms: C_5  and  N_6 
REMARK    4  A    between atoms: N_6  and  C_7 
ROOT
HETATM    1  C   UNL     1      42.723 -17.021   3.375  1.00  0.00     0.022 A 
HETATM    2  C   UNL     1      43.440 -18.234   3.596  1.00  0.00     0.013 A 
HETATM    3  C   UNL     1      44.143 -18.401   4.820  1.00  0.00     0.044 A 
HETATM    4  C   UNL     1      44.845 -19.585   5.101  1.00  0.00     0.032 A 
HETATM    5  C   UNL     1      44.874 -20.623   4.171  1.00  0.00     0.021 A 
HETATM    6  C   UNL     1      44.210 -20.477   2.960  1.00  0.00     0.012 A 
HETATM    7 BR   UNL     1      44.258 -21.877   1.692  1.00  0.00    -0.051 Br
HETATM    8  C   UNL     1      43.506 -19.303   2.670  1.00  0.00     0.034 A 
HETATM    9  N   UNL     1      44.145 -17.402   5.719  1.00  0.00    -0.365 N 
HETATM   10  H   UNL     1      44.658 -17.532   6.591  1.00  0.00     0.165 HD
HETATM   11  C   UNL     1      43.527 -16.235   5.516  1.00  0.00     0.090 A 
HETATM   12  C   UNL     1      42.819 -16.016   4.345  1.00  0.00     0.041 A 
ENDROOT
BRANCH   1  13
HETATM   13  N   UNL     1      42.068 -16.799   2.153  1.00  0.00    -0.283 NA
HETATM   14  H   UNL     1      42.512 -17.294   1.376  1.00  0.00     0.128 HD
BRANCH  13  15
HETATM   15  C   UNL     1      40.598 -16.963   2.049  1.00  0.00     0.195 C 
BRANCH  15  16
HETATM   16  C   UNL     1      39.897 -15.600   2.028  1.00  0.00     0.230 C 
HETATM   17  N   UNL     1      39.524 -15.188   0.766  1.00  0.00    -0.360 N 
HETATM   18  H   UNL     1      39.670 -15.832  -0.004  1.00  0.00     0.162 HD
HETATM   19  O   UNL     1      39.732 -14.936   3.045  1.00  0.00    -0.272 OA
BRANCH  17  20
HETATM   20  C   UNL     1      38.866 -13.922   0.525  1.00  0.00     0.118 C 
HETATM   21  C   UNL     1      37.366 -14.023   0.734  1.00  0.00     0.026 C 
ENDBRANCH  17  20
ENDBRANCH  15  16
ENDBRANCH  13  15
ENDBRANCH   1  13
TORSDOF 4
ENDMDL
MODEL 4
REMARK VINA RESULT:      -6.5      3.282      5.226
REMARK  4 active torsions:
REMARK  status: ('A' for Active; 'I' for Inactive)
REMARK    1  A    between atoms: C_2  and  N_3 
REMARK       I    between atoms: N_3  and  C_4 
REMARK    2  A    between atoms: C_4  and  C_5 
REMARK    3  A    between atoms: C_5  and  N_6 
REMARK    4  A    between atoms: N_6  and  C_7 
ROOT
HETATM    1  C   UNL     1      41.099 -16.396   3.492  1.00  0.00     0.022 A 
HETATM    2  C   UNL     1      42.088 -17.396   3.250  1.00  0.00     0.013 A 
HETATM    3  C   UNL     1      42.446 -17.694   1.908  1.00  0.00     0.044 A 
HETATM    4  C   UNL     1      43.430 -18.651   1.612  1.00  0.00     0.032 A 
HETATM    5  C   UNL     1      44.072 -19.340   2.640  1.00  0.00     0.021 A 
HETATM    6  C   UNL     1      43.726 -19.079   3.959  1.00  0.00     0.012 A 
HETATM    7 BR   UNL     1      44.585 -20.022   5.354  1.00  0.00    -0.051 Br
HETATM    8  C   UNL     1      42.749 -18.128   4.266  1.00  0.00     0.034 A 
HETATM    9  N   UNL     1      41.822 -17.056   0.902  1.00  0.00    -0.365 N 
HETATM   10  H   UNL     1      42.085 -17.283  -0.056  1.00  0.00     0.165 HD
HETATM   11  C   UNL     1      40.855 -16.154   1.098  1.00  0.00     0.090 A 
HETATM   12  C   UNL     1      40.468 -15.816   2.386  1.00  0.00     0.041 A 
ENDROOT
BRANCH   1  13
HETATM   13  N   UNL     1      40.678 -16.120   4.803  1.00  0.00    -0.283 NA
HETATM   14  H   UNL     1      40.984 -16.831   5.470  1.00  0.00     0.128 HD
BRANCH  13  15
HETATM   15  C   UNL     1      40.901 -14.779   5.395  1.00  0.00     0.195 C 
BRANCH  15  16
HETATM   16  C   UNL     1      42.399 -14.474   5.504  1.00  0.00     0.230 C 
HETATM   17  N   UNL     1      43.018 -15.101   6.565  1.00  0.00    -0.360 N 
HETATM   18  H   UNL     1      42.467 -15.750   7.117  1.00  0.00     0.162 HD
HETATM   19  O   UNL     1      42.966 -13.706   4.734  1.00  0.00    -0.272 OA
BRANCH  17  20
HETATM   20  C   UNL     1      44.424 -14.931   6.856  1.00  0.00     0.118 C 
HETATM   21  C   UNL     1      44.680 -13.671   7.662  1.00  0.00     0.026 C 
ENDBRANCH  17  20
ENDBRANCH  15  16
ENDBRANCH  13  15
ENDBRANCH   1  13
TORSDOF 4
ENDMDL
MODEL 5
REMARK VINA RESULT:      -6.5      3.504      6.429
REMARK  4 active torsions:
REMARK  status: ('A' for Active; 'I' for Inactive)
REMARK    1  A    between atoms: C_2  and  N_3 
REMARK       I    between atoms: N_3  and  C_4 
REMARK    2  A    between atoms: C_4  and  C_5 
REMARK    3  A    between atoms: C_5  and  N_6 
REMARK    4  A    between atoms: N_6  and  C_7 
ROOT
HETATM    1  C   UNL     1      42.888 -17.465   6.295  1.00  0.00     0.022 A 
HETATM    2  C   UNL     1      43.366 -18.114   5.118  1.00  0.00     0.013 A 
HETATM    3  C   UNL     1      44.015 -19.372   5.244  1.00  0.00     0.044 A 
HETATM    4  C   UNL     1      44.482 -20.067   4.116  1.00  0.00     0.032 A 
HETATM    5  C   UNL     1      44.326 -19.524   2.842  1.00  0.00     0.021 A 
HETATM    6  C   UNL     1      43.711 -18.288   2.694  1.00  0.00     0.012 A 
HETATM    7 BR   UNL     1      43.510 -17.544   0.969  1.00  0.00    -0.051 Br
HETATM    8  C   UNL     1      43.240 -17.587   3.810  1.00  0.00     0.034 A 
HETATM    9  N   UNL     1      44.194 -19.900   6.467  1.00  0.00    -0.365 N 
HETATM   10  H   UNL     1      44.666 -20.801   6.544  1.00  0.00     0.165 HD
HETATM   11  C   UNL     1      43.805 -19.290   7.590  1.00  0.00     0.090 A 
HETATM   12  C   UNL     1      43.160 -18.064   7.531  1.00  0.00     0.041 A 
ENDROOT
BRANCH   1  13
HETATM   13  N   UNL     1      42.297 -16.194   6.213  1.00  0.00    -0.283 NA
HETATM   14  H   UNL     1      42.691 -15.628   5.459  1.00  0.00     0.128 HD
BRANCH  13  15
HETATM   15  C   UNL     1      40.821 -16.053   6.197  1.00  0.00     0.195 C 
BRANCH  15  16
HETATM   16  C   UNL     1      40.392 -14.906   5.276  1.00  0.00     0.230 C 
HETATM   17  N   UNL     1      40.077 -15.312   3.996  1.00  0.00    -0.360 N 
HETATM   18  H   UNL     1      40.081 -16.307   3.800  1.00  0.00     0.162 HD
HETATM   19  O   UNL     1      40.379 -13.739   5.650  1.00  0.00    -0.272 OA
BRANCH  17  20
HETATM   20  C   UNL     1      39.667 -14.383   2.965  1.00  0.00     0.118 C 
HETATM   21  C   UNL     1      38.945 -15.088   1.832  1.00  0.00     0.026 C 
ENDBRANCH  17  20
ENDBRANCH  15  16
ENDBRANCH  13  15
ENDBRANCH   1  13
TORSDOF 4
ENDMDL
MODEL 6
REMARK VINA RESULT:      -6.3      2.684      5.257
REMARK  4 active torsions:
REMARK  status: ('A' for Active; 'I' for Inactive)
REMARK    1  A    between atoms: C_2  and  N_3 
REMARK       I    between atoms: N_3  and  C_4 
REMARK    2  A    between atoms: C_4  and  C_5 
REMARK    3  A    between atoms: C_5  and  N_6 
REMARK    4  A    between atoms: N_6  and  C_7 
ROOT
HETATM    1  C   UNL     1      43.076 -18.912   2.431  1.00  0.00     0.022 A 
HETATM    2  C   UNL     1      43.612 -18.600   3.716  1.00  0.00     0.013 A 
HETATM    3  C   UNL     1      44.484 -19.532   4.339  1.00  0.00     0.044 A 
HETATM    4  C   UNL     1      45.061 -19.266   5.592  1.00  0.00     0.032 A 
HETATM    5  C   UNL     1      44.775 -18.075   6.258  1.00  0.00     0.021 A 
HETATM    6  C   UNL     1      43.910 -17.156   5.678  1.00  0.00     0.012 A 
HETATM    7 BR   UNL     1      43.510 -15.548   6.586  1.00  0.00    -0.051 Br
HETATM    8  C   UNL     1      43.332 -17.410   4.431  1.00  0.00     0.034 A 
HETATM    9  N   UNL     1      44.755 -20.695   3.721  1.00  0.00    -0.365 N 
HETATM   10  H   UNL     1      45.378 -21.358   4.181  1.00  0.00     0.165 HD
HETATM   11  C   UNL     1      44.224 -21.037   2.543  1.00  0.00     0.090 A 
HETATM   12  C   UNL     1      43.372 -20.166   1.883  1.00  0.00     0.041 A 
ENDROOT
BRANCH   1  13
HETATM   13  N   UNL     1      42.162 -18.041   1.815  1.00  0.00    -0.283 NA
HETATM   14  H   UNL     1      41.576 -17.547   2.491  1.00  0.00     0.128 HD
BRANCH  13  15
HETATM   15  C   UNL     1      42.622 -17.078   0.786  1.00  0.00     0.195 C 
BRANCH  15  16
HETATM   16  C   UNL     1      41.746 -15.820   0.786  1.00  0.00     0.230 C 
HETATM   17  N   UNL     1      41.003 -15.662   1.937  1.00  0.00    -0.360 N 
HETATM   18  H   UNL     1      41.152 -16.324   2.691  1.00  0.00     0.162 HD
HETATM   19  O   UNL     1      41.694 -15.062  -0.177  1.00  0.00    -0.272 OA
BRANCH  17  20
HETATM   20  C   UNL     1      40.098 -14.550   2.131  1.00  0.00     0.118 C 
HETATM   21  C   UNL     1      38.702 -14.872   1.633  1.00  0.00     0.026 C 
ENDBRANCH  17  20
ENDBRANCH  15  16
ENDBRANCH  13  15
ENDBRANCH   1  13
TORSDOF 4
ENDMDL
MODEL 7
REMARK VINA RESULT:      -6.0      4.847      6.890
REMARK  4 active torsions:
REMARK  status: ('A' for Active; 'I' for Inactive)
REMARK    1  A    between atoms: C_2  and  N_3 
REMARK       I    between atoms: N_3  and  C_4 
REMARK    2  A    between atoms: C_4  and  C_5 
REMARK    3  A    between atoms: C_5  and  N_6 
REMARK    4  A    between atoms: N_6  and  C_7 
ROOT
HETATM    1  C   UNL     1      42.905 -14.877   5.976  1.00  0.00     0.022 A 
HETATM    2  C   UNL     1      42.886 -16.077   5.204  1.00  0.00     0.013 A 
HETATM    3  C   UNL     1      42.030 -16.151   4.073  1.00  0.00     0.044 A 
HETATM    4  C   UNL     1      41.990 -17.298   3.263  1.00  0.00     0.032 A 
HETATM    5  C   UNL     1      42.789 -18.399   3.564  1.00  0.00     0.021 A 
HETATM    6  C   UNL     1      43.621 -18.358   4.676  1.00  0.00     0.012 A 
HETATM    7 BR   UNL     1      44.696 -19.855   5.095  1.00  0.00    -0.051 Br
HETATM    8  C   UNL     1      43.671 -17.221   5.489  1.00  0.00     0.034 A 
HETATM    9  N   UNL     1      41.235 -15.107   3.780  1.00  0.00    -0.365 N 
HETATM   10  H   UNL     1      40.622 -15.175   2.968  1.00  0.00     0.165 HD
HETATM   11  C   UNL     1      41.193 -13.992   4.516  1.00  0.00     0.090 A 
HETATM   12  C   UNL     1      42.010 -13.859   5.627  1.00  0.00     0.041 A 
ENDROOT
BRANCH   1  13
HETATM   13  N   UNL     1      43.693 -14.793   7.135  1.00  0.00    -0.283 NA
HETATM   14  H   UNL     1      43.931 -15.712   7.514  1.00  0.00     0.128 HD
BRANCH  13  15
HETATM   15  C   UNL     1      44.904 -13.937   7.157  1.00  0.00     0.195 C 
BRANCH  15  16
HETATM   16  C   UNL     1      44.844 -12.937   8.318  1.00  0.00     0.230 C 
HETATM   17  N   UNL     1      43.688 -12.184   8.342  1.00  0.00    -0.360 N 
HETATM   18  H   UNL     1      42.968 -12.402   7.661  1.00  0.00     0.162 HD
HETATM   19  O   UNL     1      45.767 -12.806   9.113  1.00  0.00    -0.272 OA
BRANCH  17  20
HETATM   20  C   UNL     1      43.442 -11.171   9.344  1.00  0.00     0.118 C 
HETATM   21  C   UNL     1      42.251 -10.304   8.982  1.00  0.00     0.026 C 
ENDBRANCH  17  20
ENDBRANCH  15  16
ENDBRANCH  13  15
ENDBRANCH   1  13
TORSDOF 4
ENDMDL
MODEL 8
REMARK VINA RESULT:      -6.0      3.700      6.155
REMARK  4 active torsions:
REMARK  status: ('A' for Active; 'I' for Inactive)
REMARK    1  A    between atoms: C_2  and  N_3 
REMARK       I    between atoms: N_3  and  C_4 
REMARK    2  A    between atoms: C_4  and  C_5 
REMARK    3  A    between atoms: C_5  and  N_6 
REMARK    4  A    between atoms: N_6  and  C_7 
ROOT
HETATM    1  C   UNL     1      43.215 -17.060   4.511  1.00  0.00     0.022 A 
HETATM    2  C   UNL     1      43.774 -18.364   4.359  1.00  0.00     0.013 A 
HETATM    3  C   UNL     1      44.576 -18.892   5.407  1.00  0.00     0.044 A 
HETATM    4  C   UNL     1      45.130 -20.180   5.322  1.00  0.00     0.032 A 
HETATM    5  C   UNL     1      44.910 -20.967   4.192  1.00  0.00     0.021 A 
HETATM    6  C   UNL     1      44.144 -20.466   3.147  1.00  0.00     0.012 A 
HETATM    7 BR   UNL     1      43.856 -21.525   1.609  1.00  0.00    -0.051 Br
HETATM    8  C   UNL     1      43.586 -19.186   3.221  1.00  0.00     0.034 A 
HETATM    9  N   UNL     1      44.818 -18.140   6.494  1.00  0.00    -0.365 N 
HETATM   10  H   UNL     1      45.399 -18.528   7.236  1.00  0.00     0.165 HD
HETATM   11  C   UNL     1      44.352 -16.895   6.639  1.00  0.00     0.090 A 
HETATM   12  C   UNL     1      43.558 -16.329   5.654  1.00  0.00     0.041 A 
ENDROOT
BRANCH   1  13
HETATM   13  N   UNL     1      42.469 -16.484   3.470  1.00  0.00    -0.283 NA
HETATM   14  H   UNL     1      41.560 -16.140   3.785  1.00  0.00     0.128 HD
BRANCH  13  15
HETATM   15  C   UNL     1      43.084 -15.469   2.581  1.00  0.00     0.195 C 
BRANCH  15  16
HETATM   16  C   UNL     1      43.162 -14.107   3.280  1.00  0.00     0.230 C 
HETATM   17  N   UNL     1      41.929 -13.543   3.534  1.00  0.00    -0.360 N 
HETATM   18  H   UNL     1      41.104 -14.092   3.317  1.00  0.00     0.162 HD
HETATM   19  O   UNL     1      44.232 -13.568   3.540  1.00  0.00    -0.272 OA
BRANCH  17  20
HETATM   20  C   UNL     1      41.782 -12.252   4.170  1.00  0.00     0.118 C 
HETATM   21  C   UNL     1      41.635 -12.383   5.675  1.00  0.00     0.026 C 
ENDBRANCH  17  20
ENDBRANCH  15  16
ENDBRANCH  13  15
ENDBRANCH   1  13
TORSDOF 4
ENDMDL
MODEL 9
REMARK VINA RESULT:      -6.0      2.215      3.274
REMARK  4 active torsions:
REMARK  status: ('A' for Active; 'I' for Inactive)
REMARK    1  A    between atoms: C_2  and  N_3 
REMARK       I    between atoms: N_3  and  C_4 
REMARK    2  A    between atoms: C_4  and  C_5 
REMARK    3  A    between atoms: C_5  and  N_6 
REMARK    4  A    between atoms: N_6  and  C_7 
ROOT
HETATM    1  C   UNL     1      42.108 -16.539   4.078  1.00  0.00     0.022 A 
HETATM    2  C   UNL     1      42.893 -17.109   5.124  1.00  0.00     0.013 A 
HETATM    3  C   UNL     1      43.704 -16.253   5.916  1.00  0.00     0.044 A 
HETATM    4  C   UNL     1      44.478 -16.756   6.975  1.00  0.00     0.032 A 
HETATM    5  C   UNL     1      44.472 -18.120   7.263  1.00  0.00     0.021 A 
HETATM    6  C   UNL     1      43.702 -18.980   6.490  1.00  0.00     0.012 A 
HETATM    7 BR   UNL     1      43.704 -20.832   6.869  1.00  0.00    -0.051 Br
HETATM    8  C   UNL     1      42.927 -18.490   5.435  1.00  0.00     0.034 A 
HETATM    9  N   UNL     1      43.739 -14.938   5.640  1.00  0.00    -0.365 N 
HETATM   10  H   UNL     1      44.328 -14.335   6.213  1.00  0.00     0.165 HD
HETATM   11  C   UNL     1      43.056 -14.385   4.634  1.00  0.00     0.090 A 
HETATM   12  C   UNL     1      42.242 -15.168   3.830  1.00  0.00     0.041 A 
ENDROOT
BRANCH   1  13
HETATM   13  N   UNL     1      41.344 -17.363   3.237  1.00  0.00    -0.283 NA
HETATM   14  H   UNL     1      40.340 -17.194   3.331  1.00  0.00     0.128 HD
BRANCH  13  15
HETATM   15  C   UNL     1      41.677 -17.479   1.797  1.00  0.00     0.195 C 
BRANCH  15  16
HETATM   16  C   UNL     1      42.956 -18.300   1.597  1.00  0.00     0.230 C 
HETATM   17  N   UNL     1      42.844 -19.611   2.012  1.00  0.00    -0.360 N 
HETATM   18  H   UNL     1      41.935 -19.930   2.329  1.00  0.00     0.162 HD
HETATM   19  O   UNL     1      43.985 -17.806   1.149  1.00  0.00    -0.272 OA
BRANCH  17  20
HETATM   20  C   UNL     1      43.942 -20.549   1.928  1.00  0.00     0.118 C 
HETATM   21  C   UNL     1      44.792 -20.530   3.185  1.00  0.00     0.026 C 
ENDBRANCH  17  20
ENDBRANCH  15  16
ENDBRANCH  13  15
ENDBRANCH   1  13
TORSDOF 4
ENDMDL
MODEL 10
REMARK VINA RESULT:      -5.9      8.190     10.311
REMARK  4 active torsions:
REMARK  status: ('A' for Active; 'I' for Inactive)
REMARK    1  A    between atoms: C_2  and  N_3 
REMARK       I    between atoms: N_3  and  C_4 
REMARK    2  A    between atoms: C_4  and  C_5 
REMARK    3  A    between atoms: C_5  and  N_6 
REMARK    4  A    between atoms: N_6  and  C_7 
ROOT
HETATM    1  C   UNL     1      42.523 -10.606  11.246  1.00  0.00     0.022 A 
HETATM    2  C   UNL     1      41.587 -10.623  10.169  1.00  0.00     0.013 A 
HETATM    3  C   UNL     1      40.256 -11.046  10.425  1.00  0.00     0.044 A 
HETATM    4  C   UNL     1      39.287 -11.058   9.408  1.00  0.00     0.032 A 
HETATM    5  C   UNL     1      39.621 -10.662   8.114  1.00  0.00     0.021 A 
HETATM    6  C   UNL     1      40.921 -10.261   7.835  1.00  0.00     0.012 A 
HETATM    7 BR   UNL     1      41.381  -9.737   6.079  1.00  0.00    -0.051 Br
HETATM    8  C   UNL     1      41.894 -10.243   8.840  1.00  0.00     0.034 A 
HETATM    9  N   UNL     1      39.920 -11.453  11.661  1.00  0.00    -0.365 N 
HETATM   10  H   UNL     1      38.962 -11.759  11.830  1.00  0.00     0.165 HD
HETATM   11  C   UNL     1      40.789 -11.499  12.676  1.00  0.00     0.090 A 
HETATM   12  C   UNL     1      42.100 -11.091  12.490  1.00  0.00     0.041 A 
ENDROOT
BRANCH   1  13
HETATM   13  N   UNL     1      43.862 -10.252  11.016  1.00  0.00    -0.283 NA
HETATM   14  H   UNL     1      44.175  -9.492  11.623  1.00  0.00     0.128 HD
BRANCH  13  15
HETATM   15  C   UNL     1      44.915 -11.294  10.970  1.00  0.00     0.195 C 
BRANCH  15  16
HETATM   16  C   UNL     1      45.394 -11.523   9.532  1.00  0.00     0.230 C 
HETATM   17  N   UNL     1      44.938 -12.700   8.976  1.00  0.00    -0.360 N 
HETATM   18  H   UNL     1      44.285 -13.257   9.517  1.00  0.00     0.162 HD
HETATM   19  O   UNL     1      46.147 -10.741   8.963  1.00  0.00    -0.272 OA
BRANCH  17  20
HETATM   20  C   UNL     1      45.289 -13.114   7.635  1.00  0.00     0.118 C 
HETATM   21  C   UNL     1      44.560 -14.382   7.232  1.00  0.00     0.026 C 
ENDBRANCH  17  20
ENDBRANCH  15  16
ENDBRANCH  13  15
ENDBRANCH   1  13
TORSDOF 4
ENDMDL
