MODEL 1
REMARK VINA RESULT:      -8.6      0.000      0.000
REMARK  3 active torsions:
REMARK  status: ('A' for Active; 'I' for Inactive)
REMARK    1  A    between atoms: C_13  and  C_14 
REMARK    2  A    between atoms: C_14  and  N_15 
REMARK       I    between atoms: N_15  and  C_16 
REMARK    3  A    between atoms: C_16  and  C_17 
ROOT
HETATM    1  C   UNL     1      42.099 -17.895   2.103  1.00  0.00     0.002 A 
HETATM    2  C   UNL     1      42.869 -19.039   1.829  1.00  0.00     0.018 A 
HETATM    3  C   UNL     1      43.657 -19.524   2.868  1.00  0.00     0.045 A 
HETATM    4  C   UNL     1      43.650 -18.875   4.093  1.00  0.00     0.017 A 
HETATM    5  C   UNL     1      42.930 -17.761   4.414  1.00  0.00    -0.015 A 
HETATM    6  C   UNL     1      42.122 -17.262   3.365  1.00  0.00     0.013 A 
HETATM    7  C   UNL     1      44.497 -19.546   4.946  1.00  0.00     0.047 A 
HETATM    8  N   UNL     1      45.032 -20.609   4.242  1.00  0.00    -0.322 N 
HETATM    9  C   UNL     1      44.553 -20.663   2.925  1.00  0.00     0.257 A 
HETATM   10  O   UNL     1      44.872 -21.506   2.100  1.00  0.00    -0.267 OA
HETATM   11  C   UNL     1      44.690 -19.134   6.248  1.00  0.00     0.031 A 
HETATM   12  C   UNL     1      43.972 -17.984   6.634  1.00  0.00     0.012 A 
HETATM   13  C   UNL     1      43.108 -17.281   5.744  1.00  0.00    -0.029 A 
HETATM   14  H   UNL     1      45.690 -21.283   4.601  1.00  0.00     0.169 HD
ENDROOT
BRANCH  13  15
HETATM   15  C   UNL     1      42.389 -16.058   6.254  1.00  0.00     0.162 C 
BRANCH  15  16
HETATM   16  N   UNL     1      43.290 -15.163   6.935  1.00  0.00    -0.351 N 
HETATM   17  C   UNL     1      44.010 -14.190   6.279  1.00  0.00     0.275 C 
HETATM   18  O   UNL     1      43.901 -13.985   5.073  1.00  0.00    -0.265 OA
HETATM   19  H   UNL     1      43.518 -15.328   7.909  1.00  0.00     0.163 HD
BRANCH  17  20
HETATM   20  C   UNL     1      44.895 -13.436   7.142  1.00  0.00     0.142 A 
HETATM   21  O   UNL     1      46.175 -13.162   6.729  1.00  0.00    -0.317 OA
HETATM   22  C   UNL     1      46.777 -12.464   7.726  1.00  0.00     0.143 A 
HETATM   23  C   UNL     1      45.910 -12.276   8.777  1.00  0.00     0.027 A 
HETATM   24  C   UNL     1      44.697 -12.901   8.402  1.00  0.00     0.045 A 
ENDBRANCH  17  20
ENDBRANCH  15  16
ENDBRANCH  13  15
TORSDOF 3
ENDMDL
MODEL 2
REMARK VINA RESULT:      -8.6      1.626      2.200
REMARK  3 active torsions:
REMARK  status: ('A' for Active; 'I' for Inactive)
REMARK    1  A    between atoms: C_13  and  C_14 
REMARK    2  A    between atoms: C_14  and  N_15 
REMARK       I    between atoms: N_15  and  C_16 
REMARK    3  A    between atoms: C_16  and  C_17 
ROOT
HETATM    1  C   UNL     1      43.862 -18.081   2.975  1.00  0.00     0.002 A 
HETATM    2  C   UNL     1      44.069 -19.397   3.428  1.00  0.00     0.018 A 
HETATM    3  C   UNL     1      44.081 -19.586   4.806  1.00  0.00     0.045 A 
HETATM    4  C   UNL     1      43.896 -18.502   5.650  1.00  0.00     0.017 A 
HETATM    5  C   UNL     1      43.699 -17.207   5.269  1.00  0.00    -0.015 A 
HETATM    6  C   UNL     1      43.680 -17.002   3.868  1.00  0.00     0.013 A 
HETATM    7  C   UNL     1      43.945 -18.949   6.950  1.00  0.00     0.047 A 
HETATM    8  N   UNL     1      44.165 -20.313   6.909  1.00  0.00    -0.322 N 
HETATM    9  C   UNL     1      44.264 -20.791   5.594  1.00  0.00     0.257 A 
HETATM   10  O   UNL     1      44.458 -21.958   5.288  1.00  0.00    -0.267 OA
HETATM   11  C   UNL     1      43.783 -18.090   8.018  1.00  0.00     0.031 A 
HETATM   12  C   UNL     1      43.577 -16.737   7.683  1.00  0.00     0.012 A 
HETATM   13  C   UNL     1      43.546 -16.273   6.335  1.00  0.00    -0.029 A 
HETATM   14  H   UNL     1      44.250 -20.922   7.708  1.00  0.00     0.169 HD
ENDROOT
BRANCH  13  15
HETATM   15  C   UNL     1      43.324 -14.803   6.083  1.00  0.00     0.162 C 
BRANCH  15  16
HETATM   16  N   UNL     1      43.677 -14.013   7.236  1.00  0.00    -0.351 N 
HETATM   17  C   UNL     1      44.909 -13.416   7.380  1.00  0.00     0.275 C 
HETATM   18  O   UNL     1      45.779 -13.476   6.516  1.00  0.00    -0.265 OA
HETATM   19  H   UNL     1      43.059 -13.997   8.039  1.00  0.00     0.163 HD
BRANCH  17  20
HETATM   20  C   UNL     1      45.074 -12.712   8.635  1.00  0.00     0.142 A 
HETATM   21  O   UNL     1      44.397 -13.144   9.748  1.00  0.00    -0.317 OA
HETATM   22  C   UNL     1      44.723 -12.304  10.765  1.00  0.00     0.143 A 
HETATM   23  C   UNL     1      45.600 -11.338  10.331  1.00  0.00     0.027 A 
HETATM   24  C   UNL     1      45.829 -11.600   8.960  1.00  0.00     0.045 A 
ENDBRANCH  17  20
ENDBRANCH  15  16
ENDBRANCH  13  15
TORSDOF 3
ENDMDL
MODEL 3
REMARK VINA RESULT:      -8.2      2.886      4.401
REMARK  3 active torsions:
REMARK  status: ('A' for Active; 'I' for Inactive)
REMARK    1  A    between atoms: C_13  and  C_14 
REMARK    2  A    between atoms: C_14  and  N_15 
REMARK       I    between atoms: N_15  and  C_16 
REMARK    3  A    between atoms: C_16  and  C_17 
ROOT
HETATM    1  C   UNL     1      44.563 -20.037   6.021  1.00  0.00     0.002 A 
HETATM    2  C   UNL     1      44.698 -21.095   5.105  1.00  0.00     0.018 A 
HETATM    3  C   UNL     1      44.391 -20.813   3.778  1.00  0.00     0.045 A 
HETATM    4  C   UNL     1      43.974 -19.539   3.426  1.00  0.00     0.017 A 
HETATM    5  C   UNL     1      43.819 -18.478   4.270  1.00  0.00    -0.015 A 
HETATM    6  C   UNL     1      44.133 -18.752   5.622  1.00  0.00     0.013 A 
HETATM    7  C   UNL     1      43.740 -19.516   2.070  1.00  0.00     0.047 A 
HETATM    8  N   UNL     1      44.008 -20.783   1.585  1.00  0.00    -0.322 N 
HETATM    9  C   UNL     1      44.423 -21.658   2.599  1.00  0.00     0.257 A 
HETATM   10  O   UNL     1      44.718 -22.832   2.430  1.00  0.00    -0.267 OA
HETATM   11  C   UNL     1      43.319 -18.371   1.426  1.00  0.00     0.031 A 
HETATM   12  C   UNL     1      43.140 -17.243   2.251  1.00  0.00     0.012 A 
HETATM   13  C   UNL     1      43.365 -17.273   3.658  1.00  0.00    -0.029 A 
HETATM   14  H   UNL     1      43.927 -21.076   0.624  1.00  0.00     0.169 HD
ENDROOT
BRANCH  13  15
HETATM   15  C   UNL     1      43.139 -16.011   4.452  1.00  0.00     0.162 C 
BRANCH  15  16
HETATM   16  N   UNL     1      42.481 -15.003   3.661  1.00  0.00    -0.351 N 
HETATM   17  C   UNL     1      43.091 -13.821   3.306  1.00  0.00     0.275 C 
HETATM   18  O   UNL     1      44.255 -13.562   3.599  1.00  0.00    -0.265 OA
HETATM   19  H   UNL     1      41.491 -15.089   3.464  1.00  0.00     0.163 HD
BRANCH  17  20
HETATM   20  C   UNL     1      42.237 -12.925   2.554  1.00  0.00     0.142 A 
HETATM   21  O   UNL     1      42.616 -12.521   1.299  1.00  0.00    -0.317 OA
HETATM   22  C   UNL     1      41.648 -11.685   0.838  1.00  0.00     0.143 A 
HETATM   23  C   UNL     1      40.648 -11.544   1.771  1.00  0.00     0.027 A 
HETATM   24  C   UNL     1      41.025 -12.342   2.877  1.00  0.00     0.045 A 
ENDBRANCH  17  20
ENDBRANCH  15  16
ENDBRANCH  13  15
TORSDOF 3
ENDMDL
MODEL 4
REMARK VINA RESULT:      -8.1      3.352      5.178
REMARK  3 active torsions:
REMARK  status: ('A' for Active; 'I' for Inactive)
REMARK    1  A    between atoms: C_13  and  C_14 
REMARK    2  A    between atoms: C_14  and  N_15 
REMARK       I    between atoms: N_15  and  C_16 
REMARK    3  A    between atoms: C_16  and  C_17 
ROOT
HETATM    1  C   UNL     1      44.320 -19.494   6.195  1.00  0.00     0.002 A 
HETATM    2  C   UNL     1      44.504 -20.711   5.516  1.00  0.00     0.018 A 
HETATM    3  C   UNL     1      44.340 -20.685   4.134  1.00  0.00     0.045 A 
HETATM    4  C   UNL     1      44.010 -19.495   3.505  1.00  0.00     0.017 A 
HETATM    5  C   UNL     1      43.813 -18.288   4.111  1.00  0.00    -0.015 A 
HETATM    6  C   UNL     1      43.981 -18.302   5.516  1.00  0.00     0.013 A 
HETATM    7  C   UNL     1      43.912 -19.730   2.153  1.00  0.00     0.047 A 
HETATM    8  N   UNL     1      44.178 -21.071   1.948  1.00  0.00    -0.322 N 
HETATM    9  C   UNL     1      44.456 -21.742   3.147  1.00  0.00     0.257 A 
HETATM   10  O   UNL     1      44.722 -22.932   3.236  1.00  0.00    -0.267 OA
HETATM   11  C   UNL     1      43.602 -18.722   1.263  1.00  0.00     0.031 A 
HETATM   12  C   UNL     1      43.385 -17.453   1.835  1.00  0.00     0.012 A 
HETATM   13  C   UNL     1      43.469 -17.215   3.238  1.00  0.00    -0.029 A 
HETATM   14  H   UNL     1      44.181 -21.542   1.057  1.00  0.00     0.169 HD
ENDROOT
BRANCH  13  15
HETATM   15  C   UNL     1      43.214 -15.820   3.750  1.00  0.00     0.162 C 
BRANCH  15  16
HETATM   16  N   UNL     1      42.097 -15.209   3.076  1.00  0.00    -0.351 N 
HETATM   17  C   UNL     1      40.839 -15.140   3.632  1.00  0.00     0.275 C 
HETATM   18  O   UNL     1      40.590 -15.555   4.761  1.00  0.00    -0.265 OA
HETATM   19  H   UNL     1      42.188 -14.935   2.104  1.00  0.00     0.163 HD
BRANCH  17  20
HETATM   20  C   UNL     1      39.850 -14.532   2.766  1.00  0.00     0.142 A 
HETATM   21  O   UNL     1      39.636 -13.178   2.827  1.00  0.00    -0.317 OA
HETATM   22  C   UNL     1      38.659 -12.886   1.930  1.00  0.00     0.143 A 
HETATM   23  C   UNL     1      38.238 -14.026   1.287  1.00  0.00     0.027 A 
HETATM   24  C   UNL     1      39.005 -15.087   1.823  1.00  0.00     0.045 A 
ENDBRANCH  17  20
ENDBRANCH  15  16
ENDBRANCH  13  15
TORSDOF 3
ENDMDL
MODEL 5
REMARK VINA RESULT:      -8.0      3.610      6.244
REMARK  3 active torsions:
REMARK  status: ('A' for Active; 'I' for Inactive)
REMARK    1  A    between atoms: C_13  and  C_14 
REMARK    2  A    between atoms: C_14  and  N_15 
REMARK       I    between atoms: N_15  and  C_16 
REMARK    3  A    between atoms: C_16  and  C_17 
ROOT
HETATM    1  C   UNL     1      44.152 -17.647   6.296  1.00  0.00     0.002 A 
HETATM    2  C   UNL     1      44.612 -18.976   6.259  1.00  0.00     0.018 A 
HETATM    3  C   UNL     1      44.498 -19.641   5.042  1.00  0.00     0.045 A 
HETATM    4  C   UNL     1      43.949 -18.986   3.951  1.00  0.00     0.017 A 
HETATM    5  C   UNL     1      43.482 -17.703   3.930  1.00  0.00    -0.015 A 
HETATM    6  C   UNL     1      43.598 -17.015   5.161  1.00  0.00     0.013 A 
HETATM    7  C   UNL     1      43.953 -19.847   2.878  1.00  0.00     0.047 A 
HETATM    8  N   UNL     1      44.501 -21.041   3.311  1.00  0.00    -0.322 N 
HETATM    9  C   UNL     1      44.868 -20.991   4.664  1.00  0.00     0.257 A 
HETATM   10  O   UNL     1      45.373 -21.915   5.284  1.00  0.00    -0.267 OA
HETATM   11  C   UNL     1      43.472 -19.468   1.642  1.00  0.00     0.031 A 
HETATM   12  C   UNL     1      42.974 -18.152   1.562  1.00  0.00     0.012 A 
HETATM   13  C   UNL     1      42.955 -17.267   2.680  1.00  0.00    -0.029 A 
HETATM   14  H   UNL     1      44.635 -21.867   2.749  1.00  0.00     0.169 HD
ENDROOT
BRANCH  13  15
HETATM   15  C   UNL     1      42.395 -15.879   2.490  1.00  0.00     0.162 C 
BRANCH  15  16
HETATM   16  N   UNL     1      42.312 -15.532   1.095  1.00  0.00    -0.351 N 
HETATM   17  C   UNL     1      41.153 -15.072   0.510  1.00  0.00     0.275 C 
HETATM   18  O   UNL     1      40.120 -14.882   1.146  1.00  0.00    -0.265 OA
HETATM   19  H   UNL     1      43.084 -15.754   0.477  1.00  0.00     0.163 HD
BRANCH  17  20
HETATM   20  C   UNL     1      41.272 -14.830  -0.913  1.00  0.00     0.142 A 
HETATM   21  O   UNL     1      41.819 -13.653  -1.357  1.00  0.00    -0.317 OA
HETATM   22  C   UNL     1      41.795 -13.687  -2.715  1.00  0.00     0.143 A 
HETATM   23  C   UNL     1      41.245 -14.867  -3.158  1.00  0.00     0.027 A 
HETATM   24  C   UNL     1      40.909 -15.605  -1.999  1.00  0.00     0.045 A 
ENDBRANCH  17  20
ENDBRANCH  15  16
ENDBRANCH  13  15
TORSDOF 3
ENDMDL
MODEL 6
REMARK VINA RESULT:      -8.0      3.633      6.255
REMARK  3 active torsions:
REMARK  status: ('A' for Active; 'I' for Inactive)
REMARK    1  A    between atoms: C_13  and  C_14 
REMARK    2  A    between atoms: C_14  and  N_15 
REMARK       I    between atoms: N_15  and  C_16 
REMARK    3  A    between atoms: C_16  and  C_17 
ROOT
HETATM    1  C   UNL     1      44.726 -21.182   3.884  1.00  0.00     0.002 A 
HETATM    2  C   UNL     1      44.566 -21.020   5.271  1.00  0.00     0.018 A 
HETATM    3  C   UNL     1      44.136 -19.771   5.707  1.00  0.00     0.045 A 
HETATM    4  C   UNL     1      43.893 -18.768   4.782  1.00  0.00     0.017 A 
HETATM    5  C   UNL     1      44.037 -18.865   3.428  1.00  0.00    -0.015 A 
HETATM    6  C   UNL     1      44.470 -20.133   2.973  1.00  0.00     0.013 A 
HETATM    7  C   UNL     1      43.478 -17.643   5.458  1.00  0.00     0.047 A 
HETATM    8  N   UNL     1      43.469 -17.953   6.805  1.00  0.00    -0.322 N 
HETATM    9  C   UNL     1      43.872 -19.275   7.044  1.00  0.00     0.257 A 
HETATM   10  O   UNL     1      43.950 -19.791   8.149  1.00  0.00    -0.267 OA
HETATM   11  C   UNL     1      43.153 -16.478   4.795  1.00  0.00     0.031 A 
HETATM   12  C   UNL     1      43.285 -16.520   3.393  1.00  0.00     0.012 A 
HETATM   13  C   UNL     1      43.733 -17.681   2.696  1.00  0.00    -0.029 A 
HETATM   14  H   UNL     1      43.209 -17.328   7.552  1.00  0.00     0.169 HD
ENDROOT
BRANCH  13  15
HETATM   15  C   UNL     1      43.846 -17.621   1.193  1.00  0.00     0.162 C 
BRANCH  15  16
HETATM   16  N   UNL     1      43.001 -16.592   0.643  1.00  0.00    -0.351 N 
HETATM   17  C   UNL     1      41.646 -16.760   0.462  1.00  0.00     0.275 C 
HETATM   18  O   UNL     1      41.054 -17.782   0.798  1.00  0.00    -0.265 OA
HETATM   19  H   UNL     1      43.420 -15.759   0.245  1.00  0.00     0.163 HD
BRANCH  17  20
HETATM   20  C   UNL     1      40.993 -15.623  -0.153  1.00  0.00     0.142 A 
HETATM   21  O   UNL     1      40.219 -14.789   0.615  1.00  0.00    -0.317 OA
HETATM   22  C   UNL     1      39.725 -13.829  -0.211  1.00  0.00     0.143 A 
HETATM   23  C   UNL     1      40.168 -14.024  -1.498  1.00  0.00     0.027 A 
HETATM   24  C   UNL     1      40.986 -15.178  -1.462  1.00  0.00     0.045 A 
ENDBRANCH  17  20
ENDBRANCH  15  16
ENDBRANCH  13  15
TORSDOF 3
ENDMDL
MODEL 7
REMARK VINA RESULT:      -7.9      3.925      6.340
REMARK  3 active torsions:
REMARK  status: ('A' for Active; 'I' for Inactive)
REMARK    1  A    between atoms: C_13  and  C_14 
REMARK    2  A    between atoms: C_14  and  N_15 
REMARK       I    between atoms: N_15  and  C_16 
REMARK    3  A    between atoms: C_16  and  C_17 
ROOT
HETATM    1  C   UNL     1      44.592 -20.160   3.298  1.00  0.00     0.002 A 
HETATM    2  C   UNL     1      44.671 -20.134   4.702  1.00  0.00     0.018 A 
HETATM    3  C   UNL     1      43.823 -19.247   5.358  1.00  0.00     0.045 A 
HETATM    4  C   UNL     1      42.963 -18.448   4.620  1.00  0.00     0.017 A 
HETATM    5  C   UNL     1      42.848 -18.425   3.261  1.00  0.00    -0.015 A 
HETATM    6  C   UNL     1      43.703 -19.326   2.583  1.00  0.00     0.013 A 
HETATM    7  C   UNL     1      42.235 -17.672   5.492  1.00  0.00     0.047 A 
HETATM    8  N   UNL     1      42.650 -17.990   6.772  1.00  0.00    -0.322 N 
HETATM    9  C   UNL     1      43.649 -18.974   6.771  1.00  0.00     0.257 A 
HETATM   10  O   UNL     1      44.183 -19.428   7.774  1.00  0.00    -0.267 OA
HETATM   11  C   UNL     1      41.285 -16.776   5.046  1.00  0.00     0.031 A 
HETATM   12  C   UNL     1      41.125 -16.708   3.647  1.00  0.00     0.012 A 
HETATM   13  C   UNL     1      41.894 -17.500   2.744  1.00  0.00    -0.029 A 
HETATM   14  H   UNL     1      42.298 -17.584   7.625  1.00  0.00     0.169 HD
ENDROOT
BRANCH  13  15
HETATM   15  C   UNL     1      41.649 -17.349   1.264  1.00  0.00     0.162 C 
BRANCH  15  16
HETATM   16  N   UNL     1      40.535 -16.473   1.002  1.00  0.00    -0.351 N 
HETATM   17  C   UNL     1      40.691 -15.208   0.482  1.00  0.00     0.275 C 
HETATM   18  O   UNL     1      41.786 -14.753   0.161  1.00  0.00    -0.265 OA
HETATM   19  H   UNL     1      39.611 -16.726   1.331  1.00  0.00     0.163 HD
BRANCH  17  20
HETATM   20  C   UNL     1      39.449 -14.475   0.345  1.00  0.00     0.142 A 
HETATM   21  O   UNL     1      39.209 -13.754  -0.798  1.00  0.00    -0.317 OA
HETATM   22  C   UNL     1      37.994 -13.165  -0.652  1.00  0.00     0.143 A 
HETATM   23  C   UNL     1      37.440 -13.494   0.563  1.00  0.00     0.027 A 
HETATM   24  C   UNL     1      38.375 -14.339   1.206  1.00  0.00     0.045 A 
ENDBRANCH  17  20
ENDBRANCH  15  16
ENDBRANCH  13  15
TORSDOF 3
ENDMDL
MODEL 8
REMARK VINA RESULT:      -7.9      2.819      4.287
REMARK  3 active torsions:
REMARK  status: ('A' for Active; 'I' for Inactive)
REMARK    1  A    between atoms: C_13  and  C_14 
REMARK    2  A    between atoms: C_14  and  N_15 
REMARK       I    between atoms: N_15  and  C_16 
REMARK    3  A    between atoms: C_16  and  C_17 
ROOT
HETATM    1  C   UNL     1      43.747 -18.777   1.733  1.00  0.00     0.002 A 
HETATM    2  C   UNL     1      44.047 -20.140   1.904  1.00  0.00     0.018 A 
HETATM    3  C   UNL     1      44.249 -20.574   3.211  1.00  0.00     0.045 A 
HETATM    4  C   UNL     1      44.151 -19.670   4.257  1.00  0.00     0.017 A 
HETATM    5  C   UNL     1      43.870 -18.339   4.150  1.00  0.00    -0.015 A 
HETATM    6  C   UNL     1      43.658 -17.887   2.826  1.00  0.00     0.013 A 
HETATM    7  C   UNL     1      44.384 -20.340   5.435  1.00  0.00     0.047 A 
HETATM    8  N   UNL     1      44.633 -21.662   5.115  1.00  0.00    -0.322 N 
HETATM    9  C   UNL     1      44.567 -21.890   3.733  1.00  0.00     0.257 A 
HETATM   10  O   UNL     1      44.748 -22.972   3.194  1.00  0.00    -0.267 OA
HETATM   11  C   UNL     1      44.345 -19.697   6.655  1.00  0.00     0.031 A 
HETATM   12  C   UNL     1      44.061 -18.318   6.605  1.00  0.00     0.012 A 
HETATM   13  C   UNL     1      43.837 -17.621   5.382  1.00  0.00    -0.029 A 
HETATM   14  H   UNL     1      44.840 -22.400   5.770  1.00  0.00     0.169 HD
ENDROOT
BRANCH  13  15
HETATM   15  C   UNL     1      43.546 -16.143   5.436  1.00  0.00     0.162 C 
BRANCH  15  16
HETATM   16  N   UNL     1      42.597 -15.756   4.423  1.00  0.00    -0.351 N 
HETATM   17  C   UNL     1      41.257 -15.585   4.685  1.00  0.00     0.275 C 
HETATM   18  O   UNL     1      40.781 -15.705   5.811  1.00  0.00    -0.265 OA
HETATM   19  H   UNL     1      42.884 -15.735   3.451  1.00  0.00     0.163 HD
BRANCH  17  20
HETATM   20  C   UNL     1      40.471 -15.246   3.517  1.00  0.00     0.142 A 
HETATM   21  O   UNL     1      39.817 -14.040   3.466  1.00  0.00    -0.317 OA
HETATM   22  C   UNL     1      39.156 -13.993   2.279  1.00  0.00     0.143 A 
HETATM   23  C   UNL     1      39.373 -15.144   1.560  1.00  0.00     0.027 A 
HETATM   24  C   UNL     1      40.221 -15.952   2.355  1.00  0.00     0.045 A 
ENDBRANCH  17  20
ENDBRANCH  15  16
ENDBRANCH  13  15
TORSDOF 3
ENDMDL
MODEL 9
REMARK VINA RESULT:      -7.8      4.223      6.188
REMARK  3 active torsions:
REMARK  status: ('A' for Active; 'I' for Inactive)
REMARK    1  A    between atoms: C_13  and  C_14 
REMARK    2  A    between atoms: C_14  and  N_15 
REMARK       I    between atoms: N_15  and  C_16 
REMARK    3  A    between atoms: C_16  and  C_17 
ROOT
HETATM    1  C   UNL     1      44.366 -19.876   2.445  1.00  0.00     0.002 A 
HETATM    2  C   UNL     1      44.426 -19.927   3.849  1.00  0.00     0.018 A 
HETATM    3  C   UNL     1      43.621 -19.026   4.540  1.00  0.00     0.045 A 
HETATM    4  C   UNL     1      42.820 -18.141   3.835  1.00  0.00     0.017 A 
HETATM    5  C   UNL     1      42.727 -18.042   2.477  1.00  0.00    -0.015 A 
HETATM    6  C   UNL     1      43.537 -18.957   1.764  1.00  0.00     0.013 A 
HETATM    7  C   UNL     1      42.125 -17.369   4.737  1.00  0.00     0.047 A 
HETATM    8  N   UNL     1      42.503 -17.776   6.004  1.00  0.00    -0.322 N 
HETATM    9  C   UNL     1      43.443 -18.816   5.964  1.00  0.00     0.257 A 
HETATM   10  O   UNL     1      43.935 -19.350   6.947  1.00  0.00    -0.267 OA
HETATM   11  C   UNL     1      41.236 -16.398   4.327  1.00  0.00     0.031 A 
HETATM   12  C   UNL     1      41.101 -16.250   2.932  1.00  0.00     0.012 A 
HETATM   13  C   UNL     1      41.835 -17.038   1.998  1.00  0.00    -0.029 A 
HETATM   14  H   UNL     1      42.163 -17.394   6.872  1.00  0.00     0.169 HD
ENDROOT
BRANCH  13  15
HETATM   15  C   UNL     1      41.621 -16.797   0.526  1.00  0.00     0.162 C 
BRANCH  15  16
HETATM   16  N   UNL     1      41.965 -15.447   0.158  1.00  0.00    -0.351 N 
HETATM   17  C   UNL     1      41.463 -14.831  -0.966  1.00  0.00     0.275 C 
HETATM   18  O   UNL     1      40.652 -15.373  -1.712  1.00  0.00    -0.265 OA
HETATM   19  H   UNL     1      42.704 -14.965   0.658  1.00  0.00     0.163 HD
BRANCH  17  20
HETATM   20  C   UNL     1      41.976 -13.494  -1.179  1.00  0.00     0.142 A 
HETATM   21  O   UNL     1      42.014 -12.608  -0.131  1.00  0.00    -0.317 OA
HETATM   22  C   UNL     1      42.521 -11.442  -0.611  1.00  0.00     0.143 A 
HETATM   23  C   UNL     1      42.815 -11.558  -1.949  1.00  0.00     0.027 A 
HETATM   24  C   UNL     1      42.466 -12.879  -2.316  1.00  0.00     0.045 A 
ENDBRANCH  17  20
ENDBRANCH  15  16
ENDBRANCH  13  15
TORSDOF 3
ENDMDL
MODEL 10
REMARK VINA RESULT:      -7.7      3.013      3.579
REMARK  3 active torsions:
REMARK  status: ('A' for Active; 'I' for Inactive)
REMARK    1  A    between atoms: C_13  and  C_14 
REMARK    2  A    between atoms: C_14  and  N_15 
REMARK       I    between atoms: N_15  and  C_16 
REMARK    3  A    between atoms: C_16  and  C_17 
ROOT
HETATM    1  C   UNL     1      43.911 -20.695   1.489  1.00  0.00     0.002 A 
HETATM    2  C   UNL     1      44.339 -21.554   2.517  1.00  0.00     0.018 A 
HETATM    3  C   UNL     1      44.433 -21.002   3.791  1.00  0.00     0.045 A 
HETATM    4  C   UNL     1      44.112 -19.667   3.985  1.00  0.00     0.017 A 
HETATM    5  C   UNL     1      43.699 -18.787   3.027  1.00  0.00    -0.015 A 
HETATM    6  C   UNL     1      43.596 -19.339   1.728  1.00  0.00     0.013 A 
HETATM    7  C   UNL     1      44.279 -19.369   5.318  1.00  0.00     0.047 A 
HETATM    8  N   UNL     1      44.709 -20.523   5.947  1.00  0.00    -0.322 N 
HETATM    9  C   UNL     1      44.832 -21.596   5.052  1.00  0.00     0.257 A 
HETATM   10  O   UNL     1      45.194 -22.722   5.359  1.00  0.00    -0.267 OA
HETATM   11  C   UNL     1      44.025 -18.108   5.816  1.00  0.00     0.031 A 
HETATM   12  C   UNL     1      43.597 -17.156   4.869  1.00  0.00     0.012 A 
HETATM   13  C   UNL     1      43.442 -17.462   3.485  1.00  0.00    -0.029 A 
HETATM   14  H   UNL     1      44.918 -20.617   6.929  1.00  0.00     0.169 HD
ENDROOT
BRANCH  13  15
HETATM   15  C   UNL     1      42.984 -16.370   2.552  1.00  0.00     0.162 C 
BRANCH  15  16
HETATM   16  N   UNL     1      42.155 -15.409   3.234  1.00  0.00    -0.351 N 
HETATM   17  C   UNL     1      42.538 -14.101   3.426  1.00  0.00     0.275 C 
HETATM   18  O   UNL     1      43.593 -13.648   2.991  1.00  0.00    -0.265 OA
HETATM   19  H   UNL     1      41.318 -15.721   3.714  1.00  0.00     0.163 HD
BRANCH  17  20
HETATM   20  C   UNL     1      41.581 -13.317   4.180  1.00  0.00     0.142 A 
HETATM   21  O   UNL     1      42.028 -12.337   5.031  1.00  0.00    -0.317 OA
HETATM   22  C   UNL     1      40.933 -11.779   5.610  1.00  0.00     0.143 A 
HETATM   23  C   UNL     1      39.785 -12.377   5.147  1.00  0.00     0.027 A 
HETATM   24  C   UNL     1      40.200 -13.367   4.225  1.00  0.00     0.045 A 
ENDBRANCH  17  20
ENDBRANCH  15  16
ENDBRANCH  13  15
TORSDOF 3
ENDMDL
