MODEL 1
REMARK VINA RESULT:      -8.4      0.000      0.000
REMARK  2 active torsions:
REMARK  status: ('A' for Active; 'I' for Inactive)
REMARK    1  A    between atoms: O_2  and  C_3 
REMARK    2  A    between atoms: N_21  and  C_22 
ROOT
HETATM    1  C   UNL     1      41.267 -15.479  -0.370  1.00  0.00     0.069 A 
HETATM    2  C   UNL     1      41.663 -15.787   0.937  1.00  0.00     0.049 A 
HETATM    3  C   UNL     1      42.047 -14.746   1.775  1.00  0.00     0.018 A 
HETATM    4  C   UNL     1      42.001 -13.427   1.310  1.00  0.00     0.044 A 
HETATM    5  N   UNL     1      42.378 -12.543   2.307  1.00  0.00    -0.324 N 
HETATM    6  C   UNL     1      42.694 -13.213   3.472  1.00  0.00     0.264 A 
HETATM    7  O   UNL     1      43.017 -12.708   4.535  1.00  0.00    -0.270 OA
HETATM    8  C   UNL     1      42.482 -14.752   3.218  1.00  0.00     0.250 A 
HETATM    9  N   UNL     1      41.431 -15.351   4.134  1.00  0.00    -0.043 N 
HETATM   10  H   UNL     1      41.162 -16.262   3.735  1.00  0.00     0.282 HD
HETATM   11  C   UNL     1      42.125 -15.550   5.457  1.00  0.00     0.204 C 
HETATM   12  C   UNL     1      41.026 -16.240   6.230  1.00  0.00     0.036 C 
HETATM   13  C   UNL     1      39.773 -15.439   5.804  1.00  0.00     0.030 C 
HETATM   14  C   UNL     1      40.137 -14.701   4.501  1.00  0.00     0.237 C 
HETATM   15  C   UNL     1      43.480 -16.090   5.061  1.00  0.00     0.126 C 
HETATM   16  C   UNL     1      43.771 -15.481   3.683  1.00  0.00     0.145 C 
HETATM   17  C   UNL     1      44.123 -16.670   2.844  1.00  0.00     0.239 C 
HETATM   18  O   UNL     1      44.593 -16.519   1.728  1.00  0.00    -0.272 OA
HETATM   19  N   UNL     1      43.793 -17.830   3.516  1.00  0.00    -0.252 N 
HETATM   20  C   UNL     1      43.466 -17.566   4.829  1.00  0.00     0.238 C 
HETATM   21  O   UNL     1      43.139 -18.323   5.728  1.00  0.00    -0.272 OA
HETATM   22  C   UNL     1      41.602 -13.094   0.035  1.00  0.00     0.033 A 
HETATM   23  C   UNL     1      41.227 -14.141  -0.806  1.00  0.00     0.039 A 
HETATM   24  H   UNL     1      42.426 -11.535   2.207  1.00  0.00     0.169 HD
ENDROOT
BRANCH   1  25
HETATM   25  O   UNL     1      40.859 -16.388  -1.307  1.00  0.00    -0.356 OA
HETATM   26  C   UNL     1      40.782 -15.937  -2.654  1.00  0.00     0.210 C 
ENDBRANCH   1  25
BRANCH  19  27
HETATM   27  C   UNL     1      43.781 -19.141   2.926  1.00  0.00     0.045 A 
HETATM   28  C   UNL     1      42.783 -19.535   2.017  1.00  0.00     0.030 A 
HETATM   29  C   UNL     1      42.732 -20.835   1.494  1.00  0.00     0.002 A 
HETATM   30  C   UNL     1      43.682 -21.776   1.863  1.00  0.00     0.000 A 
HETATM   31  C   UNL     1      44.689 -21.415   2.745  1.00  0.00     0.002 A 
HETATM   32  C   UNL     1      44.738 -20.116   3.266  1.00  0.00     0.030 A 
ENDBRANCH  19  27
TORSDOF 2
ENDMDL
MODEL 2
REMARK VINA RESULT:      -8.4      2.192      5.014
REMARK  2 active torsions:
REMARK  status: ('A' for Active; 'I' for Inactive)
REMARK    1  A    between atoms: O_2  and  C_3 
REMARK    2  A    between atoms: N_21  and  C_22 
ROOT
HETATM    1  C   UNL     1      43.460 -13.699   5.926  1.00  0.00     0.069 A 
HETATM    2  C   UNL     1      42.872 -14.180   4.749  1.00  0.00     0.049 A 
HETATM    3  C   UNL     1      41.663 -13.628   4.340  1.00  0.00     0.018 A 
HETATM    4  C   UNL     1      41.082 -12.598   5.087  1.00  0.00     0.044 A 
HETATM    5  N   UNL     1      39.912 -12.160   4.490  1.00  0.00    -0.324 N 
HETATM    6  C   UNL     1      39.651 -12.864   3.331  1.00  0.00     0.264 A 
HETATM    7  O   UNL     1      38.721 -12.679   2.563  1.00  0.00    -0.270 OA
HETATM    8  C   UNL     1      40.817 -13.901   3.124  1.00  0.00     0.250 A 
HETATM    9  N   UNL     1      41.575 -13.669   1.830  1.00  0.00    -0.043 N 
HETATM   10  H   UNL     1      42.460 -14.193   1.897  1.00  0.00     0.282 HD
HETATM   11  C   UNL     1      40.706 -14.258   0.749  1.00  0.00     0.204 C 
HETATM   12  C   UNL     1      41.606 -14.067  -0.448  1.00  0.00     0.036 C 
HETATM   13  C   UNL     1      42.174 -12.648  -0.206  1.00  0.00     0.030 C 
HETATM   14  C   UNL     1      41.965 -12.332   1.288  1.00  0.00     0.237 C 
HETATM   15  C   UNL     1      40.219 -15.552   1.362  1.00  0.00     0.126 C 
HETATM   16  C   UNL     1      40.166 -15.288   2.873  1.00  0.00     0.145 C 
HETATM   17  C   UNL     1      40.942 -16.429   3.452  1.00  0.00     0.239 C 
HETATM   18  O   UNL     1      40.938 -16.628   4.657  1.00  0.00    -0.272 OA
HETATM   19  N   UNL     1      41.617 -17.093   2.448  1.00  0.00    -0.252 N 
HETATM   20  C   UNL     1      41.197 -16.669   1.205  1.00  0.00     0.238 C 
HETATM   21  O   UNL     1      41.544 -17.026   0.091  1.00  0.00    -0.272 OA
HETATM   22  C   UNL     1      41.644 -12.096   6.239  1.00  0.00     0.033 A 
HETATM   23  C   UNL     1      42.851 -12.659   6.652  1.00  0.00     0.039 A 
HETATM   24  H   UNL     1      39.313 -11.424   4.847  1.00  0.00     0.169 HD
ENDROOT
BRANCH   1  25
HETATM   25  O   UNL     1      44.643 -14.135   6.453  1.00  0.00    -0.356 OA
HETATM   26  C   UNL     1      45.082 -13.517   7.657  1.00  0.00     0.210 C 
ENDBRANCH   1  25
BRANCH  19  27
HETATM   27  C   UNL     1      42.631 -18.089   2.664  1.00  0.00     0.045 A 
HETATM   28  C   UNL     1      42.722 -19.240   1.862  1.00  0.00     0.030 A 
HETATM   29  C   UNL     1      43.668 -20.244   2.114  1.00  0.00     0.002 A 
HETATM   30  C   UNL     1      44.553 -20.121   3.175  1.00  0.00     0.000 A 
HETATM   31  C   UNL     1      44.500 -18.990   3.976  1.00  0.00     0.002 A 
HETATM   32  C   UNL     1      43.555 -17.990   3.722  1.00  0.00     0.030 A 
ENDBRANCH  19  27
TORSDOF 2
ENDMDL
MODEL 3
REMARK VINA RESULT:      -8.3      2.447      5.525
REMARK  2 active torsions:
REMARK  status: ('A' for Active; 'I' for Inactive)
REMARK    1  A    between atoms: O_2  and  C_3 
REMARK    2  A    between atoms: N_21  and  C_22 
ROOT
HETATM    1  C   UNL     1      39.358 -11.716   4.807  1.00  0.00     0.069 A 
HETATM    2  C   UNL     1      40.125 -12.759   4.274  1.00  0.00     0.049 A 
HETATM    3  C   UNL     1      41.298 -13.119   4.929  1.00  0.00     0.018 A 
HETATM    4  C   UNL     1      41.667 -12.460   6.106  1.00  0.00     0.044 A 
HETATM    5  N   UNL     1      42.836 -12.995   6.622  1.00  0.00    -0.324 N 
HETATM    6  C   UNL     1      43.305 -14.022   5.827  1.00  0.00     0.264 A 
HETATM    7  O   UNL     1      44.286 -14.716   6.042  1.00  0.00    -0.270 OA
HETATM    8  C   UNL     1      42.300 -14.203   4.629  1.00  0.00     0.250 A 
HETATM    9  N   UNL     1      41.668 -15.583   4.606  1.00  0.00    -0.043 N 
HETATM   10  H   UNL     1      40.850 -15.533   3.983  1.00  0.00     0.282 HD
HETATM   11  C   UNL     1      42.715 -16.490   4.014  1.00  0.00     0.204 C 
HETATM   12  C   UNL     1      41.937 -17.782   3.945  1.00  0.00     0.036 C 
HETATM   13  C   UNL     1      41.181 -17.782   5.296  1.00  0.00     0.030 C 
HETATM   14  C   UNL     1      41.185 -16.328   5.808  1.00  0.00     0.237 C 
HETATM   15  C   UNL     1      43.282 -15.671   2.877  1.00  0.00     0.126 C 
HETATM   16  C   UNL     1      43.135 -14.209   3.320  1.00  0.00     0.145 C 
HETATM   17  C   UNL     1      42.440 -13.563   2.163  1.00  0.00     0.239 C 
HETATM   18  O   UNL     1      42.334 -12.348   2.107  1.00  0.00    -0.272 OA
HETATM   19  N   UNL     1      41.965 -14.532   1.302  1.00  0.00    -0.252 N 
HETATM   20  C   UNL     1      42.466 -15.774   1.630  1.00  0.00     0.238 C 
HETATM   21  O   UNL     1      42.290 -16.861   1.103  1.00  0.00    -0.272 OA
HETATM   22  C   UNL     1      40.925 -11.442   6.661  1.00  0.00     0.033 A 
HETATM   23  C   UNL     1      39.755 -11.076   5.997  1.00  0.00     0.039 A 
HETATM   24  H   UNL     1      43.300 -12.681   7.466  1.00  0.00     0.169 HD
ENDROOT
BRANCH   1  25
HETATM   25  O   UNL     1      38.184 -11.252   4.284  1.00  0.00    -0.356 OA
HETATM   26  C   UNL     1      38.143 -11.035   2.878  1.00  0.00     0.210 C 
ENDBRANCH   1  25
BRANCH  19  27
HETATM   27  C   UNL     1      41.058 -14.287   0.214  1.00  0.00     0.045 A 
HETATM   28  C   UNL     1      41.513 -14.117  -1.106  1.00  0.00     0.030 A 
HETATM   29  C   UNL     1      40.636 -13.810  -2.156  1.00  0.00     0.002 A 
HETATM   30  C   UNL     1      39.278 -13.669  -1.915  1.00  0.00     0.000 A 
HETATM   31  C   UNL     1      38.794 -13.845  -0.627  1.00  0.00     0.002 A 
HETATM   32  C   UNL     1      39.671 -14.152   0.420  1.00  0.00     0.030 A 
ENDBRANCH  19  27
TORSDOF 2
ENDMDL
MODEL 4
REMARK VINA RESULT:      -8.0      2.197      5.903
REMARK  2 active torsions:
REMARK  status: ('A' for Active; 'I' for Inactive)
REMARK    1  A    between atoms: O_2  and  C_3 
REMARK    2  A    between atoms: N_21  and  C_22 
ROOT
HETATM    1  C   UNL     1      44.320 -19.747   3.573  1.00  0.00     0.069 A 
HETATM    2  C   UNL     1      43.769 -18.541   4.022  1.00  0.00     0.049 A 
HETATM    3  C   UNL     1      43.524 -18.391   5.382  1.00  0.00     0.018 A 
HETATM    4  C   UNL     1      43.856 -19.424   6.266  1.00  0.00     0.044 A 
HETATM    5  N   UNL     1      43.575 -19.060   7.572  1.00  0.00    -0.324 N 
HETATM    6  C   UNL     1      43.046 -17.786   7.631  1.00  0.00     0.264 A 
HETATM    7  O   UNL     1      42.740 -17.173   8.641  1.00  0.00    -0.270 OA
HETATM    8  C   UNL     1      42.981 -17.222   6.163  1.00  0.00     0.250 A 
HETATM    9  N   UNL     1      43.822 -15.970   5.986  1.00  0.00    -0.043 N 
HETATM   10  H   UNL     1      43.944 -15.826   4.974  1.00  0.00     0.282 HD
HETATM   11  C   UNL     1      43.000 -14.853   6.573  1.00  0.00     0.204 C 
HETATM   12  C   UNL     1      43.881 -13.673   6.240  1.00  0.00     0.036 C 
HETATM   13  C   UNL     1      45.294 -14.221   6.553  1.00  0.00     0.030 C 
HETATM   14  C   UNL     1      45.183 -15.759   6.567  1.00  0.00     0.237 C 
HETATM   15  C   UNL     1      41.603 -15.153   6.079  1.00  0.00     0.126 C 
HETATM   16  C   UNL     1      41.544 -16.680   5.936  1.00  0.00     0.145 C 
HETATM   17  C   UNL     1      41.042 -16.879   4.541  1.00  0.00     0.239 C 
HETATM   18  O   UNL     1      40.699 -17.989   4.161  1.00  0.00    -0.272 OA
HETATM   19  N   UNL     1      41.090 -15.685   3.851  1.00  0.00    -0.252 N 
HETATM   20  C   UNL     1      41.354 -14.633   4.701  1.00  0.00     0.238 C 
HETATM   21  O   UNL     1      41.459 -13.439   4.471  1.00  0.00    -0.272 OA
HETATM   22  C   UNL     1      44.412 -20.614   5.854  1.00  0.00     0.033 A 
HETATM   23  C   UNL     1      44.648 -20.765   4.488  1.00  0.00     0.039 A 
HETATM   24  H   UNL     1      43.727 -19.644   8.387  1.00  0.00     0.169 HD
ENDROOT
BRANCH   1  25
HETATM   25  O   UNL     1      44.622 -20.042   2.273  1.00  0.00    -0.356 OA
HETATM   26  C   UNL     1      44.060 -21.232   1.732  1.00  0.00     0.210 C 
ENDBRANCH   1  25
BRANCH  19  27
HETATM   27  C   UNL     1      40.900 -15.552   2.432  1.00  0.00     0.045 A 
HETATM   28  C   UNL     1      41.828 -16.067   1.509  1.00  0.00     0.030 A 
HETATM   29  C   UNL     1      41.678 -15.878   0.128  1.00  0.00     0.002 A 
HETATM   30  C   UNL     1      40.593 -15.172  -0.369  1.00  0.00     0.000 A 
HETATM   31  C   UNL     1      39.651 -14.664   0.514  1.00  0.00     0.002 A 
HETATM   32  C   UNL     1      39.803 -14.854   1.892  1.00  0.00     0.030 A 
ENDBRANCH  19  27
TORSDOF 2
ENDMDL
MODEL 5
REMARK VINA RESULT:      -7.8      2.703      5.660
REMARK  2 active torsions:
REMARK  status: ('A' for Active; 'I' for Inactive)
REMARK    1  A    between atoms: O_2  and  C_3 
REMARK    2  A    between atoms: N_21  and  C_22 
ROOT
HETATM    1  C   UNL     1      41.721 -12.893   5.466  1.00  0.00     0.069 A 
HETATM    2  C   UNL     1      41.380 -13.170   4.137  1.00  0.00     0.049 A 
HETATM    3  C   UNL     1      40.201 -12.632   3.631  1.00  0.00     0.018 A 
HETATM    4  C   UNL     1      39.407 -11.814   4.442  1.00  0.00     0.044 A 
HETATM    5  N   UNL     1      38.308 -11.347   3.740  1.00  0.00    -0.324 N 
HETATM    6  C   UNL     1      38.307 -11.823   2.444  1.00  0.00     0.264 A 
HETATM    7  O   UNL     1      37.497 -11.554   1.572  1.00  0.00    -0.270 OA
HETATM    8  C   UNL     1      39.591 -12.716   2.256  1.00  0.00     0.250 A 
HETATM    9  N   UNL     1      40.517 -12.180   1.180  1.00  0.00    -0.043 N 
HETATM   10  H   UNL     1      41.428 -12.643   1.303  1.00  0.00     0.282 HD
HETATM   11  C   UNL     1      39.894 -12.600  -0.126  1.00  0.00     0.204 C 
HETATM   12  C   UNL     1      40.948 -12.113  -1.091  1.00  0.00     0.036 C 
HETATM   13  C   UNL     1      41.324 -10.735  -0.495  1.00  0.00     0.030 C 
HETATM   14  C   UNL     1      40.849 -10.738   0.971  1.00  0.00     0.237 C 
HETATM   15  C   UNL     1      39.449 -14.020   0.143  1.00  0.00     0.126 C 
HETATM   16  C   UNL     1      39.131 -14.066   1.644  1.00  0.00     0.145 C 
HETATM   17  C   UNL     1      39.918 -15.243   2.130  1.00  0.00     0.239 C 
HETATM   18  O   UNL     1      39.743 -15.678   3.257  1.00  0.00    -0.272 OA
HETATM   19  N   UNL     1      40.807 -15.647   1.154  1.00  0.00    -0.252 N 
HETATM   20  C   UNL     1      40.549 -15.014  -0.043  1.00  0.00     0.238 C 
HETATM   21  O   UNL     1      41.102 -15.117  -1.126  1.00  0.00    -0.272 OA
HETATM   22  C   UNL     1      39.726 -11.514   5.747  1.00  0.00     0.033 A 
HETATM   23  C   UNL     1      40.903 -12.062   6.254  1.00  0.00     0.039 A 
HETATM   24  H   UNL     1      37.589 -10.740   4.116  1.00  0.00     0.169 HD
ENDROOT
BRANCH   1  25
HETATM   25  O   UNL     1      42.845 -13.343   6.102  1.00  0.00    -0.356 OA
HETATM   26  C   UNL     1      43.632 -14.311   5.418  1.00  0.00     0.210 C 
ENDBRANCH   1  25
BRANCH  19  27
HETATM   27  C   UNL     1      41.870 -16.593   1.357  1.00  0.00     0.045 A 
HETATM   28  C   UNL     1      41.618 -17.967   1.521  1.00  0.00     0.030 A 
HETATM   29  C   UNL     1      42.647 -18.880   1.786  1.00  0.00     0.002 A 
HETATM   30  C   UNL     1      43.960 -18.446   1.890  1.00  0.00     0.000 A 
HETATM   31  C   UNL     1      44.245 -17.099   1.718  1.00  0.00     0.002 A 
HETATM   32  C   UNL     1      43.215 -16.189   1.453  1.00  0.00     0.030 A 
ENDBRANCH  19  27
TORSDOF 2
ENDMDL
MODEL 6
REMARK VINA RESULT:      -7.6      3.076      5.992
REMARK  2 active torsions:
REMARK  status: ('A' for Active; 'I' for Inactive)
REMARK    1  A    between atoms: O_2  and  C_3 
REMARK    2  A    between atoms: N_21  and  C_22 
ROOT
HETATM    1  C   UNL     1      40.383 -10.146   3.976  1.00  0.00     0.069 A 
HETATM    2  C   UNL     1      40.539 -11.459   3.514  1.00  0.00     0.049 A 
HETATM    3  C   UNL     1      39.529 -12.009   2.731  1.00  0.00     0.018 A 
HETATM    4  C   UNL     1      38.407 -11.239   2.403  1.00  0.00     0.044 A 
HETATM    5  N   UNL     1      37.546 -11.952   1.586  1.00  0.00    -0.324 N 
HETATM    6  C   UNL     1      38.037 -13.217   1.330  1.00  0.00     0.264 A 
HETATM    7  O   UNL     1      37.529 -14.061   0.610  1.00  0.00    -0.270 OA
HETATM    8  C   UNL     1      39.422 -13.356   2.066  1.00  0.00     0.250 A 
HETATM    9  N   UNL     1      40.566 -13.618   1.104  1.00  0.00    -0.043 N 
HETATM   10  H   UNL     1      41.441 -13.429   1.613  1.00  0.00     0.282 HD
HETATM   11  C   UNL     1      40.472 -15.082   0.763  1.00  0.00     0.204 C 
HETATM   12  C   UNL     1      41.706 -15.234  -0.094  1.00  0.00     0.036 C 
HETATM   13  C   UNL     1      41.670 -13.946  -0.950  1.00  0.00     0.030 C 
HETATM   14  C   UNL     1      40.746 -12.951  -0.221  1.00  0.00     0.237 C 
HETATM   15  C   UNL     1      40.165 -15.730   2.095  1.00  0.00     0.126 C 
HETATM   16  C   UNL     1      39.381 -14.674   2.886  1.00  0.00     0.145 C 
HETATM   17  C   UNL     1      40.120 -14.595   4.185  1.00  0.00     0.239 C 
HETATM   18  O   UNL     1      39.647 -13.978   5.127  1.00  0.00    -0.272 OA
HETATM   19  N   UNL     1      41.327 -15.256   4.078  1.00  0.00    -0.252 N 
HETATM   20  C   UNL     1      41.391 -15.983   2.909  1.00  0.00     0.238 C 
HETATM   21  O   UNL     1      42.278 -16.698   2.472  1.00  0.00    -0.272 OA
HETATM   22  C   UNL     1      38.235  -9.943   2.832  1.00  0.00     0.033 A 
HETATM   23  C   UNL     1      39.244  -9.397   3.624  1.00  0.00     0.039 A 
HETATM   24  H   UNL     1      36.667 -11.606   1.221  1.00  0.00     0.169 HD
ENDROOT
BRANCH   1  25
HETATM   25  O   UNL     1      41.286  -9.468   4.747  1.00  0.00    -0.356 OA
HETATM   26  C   UNL     1      41.363  -9.829   6.121  1.00  0.00     0.210 C 
ENDBRANCH   1  25
BRANCH  19  27
HETATM   27  C   UNL     1      42.385 -15.190   5.050  1.00  0.00     0.045 A 
HETATM   28  C   UNL     1      42.544 -16.175   6.040  1.00  0.00     0.030 A 
HETATM   29  C   UNL     1      43.533 -16.076   7.029  1.00  0.00     0.002 A 
HETATM   30  C   UNL     1      44.395 -14.989   7.051  1.00  0.00     0.000 A 
HETATM   31  C   UNL     1      44.275 -14.007   6.078  1.00  0.00     0.002 A 
HETATM   32  C   UNL     1      43.287 -14.109   5.092  1.00  0.00     0.030 A 
ENDBRANCH  19  27
TORSDOF 2
ENDMDL
MODEL 7
REMARK VINA RESULT:      -7.6      2.450      5.768
REMARK  2 active torsions:
REMARK  status: ('A' for Active; 'I' for Inactive)
REMARK    1  A    between atoms: O_2  and  C_3 
REMARK    2  A    between atoms: N_21  and  C_22 
ROOT
HETATM    1  C   UNL     1      42.145 -12.446   0.291  1.00  0.00     0.069 A 
HETATM    2  C   UNL     1      41.946 -13.406   1.290  1.00  0.00     0.049 A 
HETATM    3  C   UNL     1      41.519 -14.675   0.912  1.00  0.00     0.018 A 
HETATM    4  C   UNL     1      41.327 -14.969  -0.442  1.00  0.00     0.044 A 
HETATM    5  N   UNL     1      40.946 -16.290  -0.608  1.00  0.00    -0.324 N 
HETATM    6  C   UNL     1      40.861 -16.939   0.608  1.00  0.00     0.264 A 
HETATM    7  O   UNL     1      40.594 -18.116   0.785  1.00  0.00    -0.270 OA
HETATM    8  C   UNL     1      41.255 -15.910   1.733  1.00  0.00     0.250 A 
HETATM    9  N   UNL     1      42.476 -16.352   2.519  1.00  0.00    -0.043 N 
HETATM   10  H   UNL     1      42.822 -15.528   3.032  1.00  0.00     0.282 HD
HETATM   11  C   UNL     1      41.971 -17.390   3.487  1.00  0.00     0.204 C 
HETATM   12  C   UNL     1      43.235 -17.660   4.268  1.00  0.00     0.036 C 
HETATM   13  C   UNL     1      44.308 -17.688   3.153  1.00  0.00     0.030 C 
HETATM   14  C   UNL     1      43.700 -16.974   1.930  1.00  0.00     0.237 C 
HETATM   15  C   UNL     1      40.668 -16.802   3.979  1.00  0.00     0.126 C 
HETATM   16  C   UNL     1      40.141 -15.955   2.813  1.00  0.00     0.145 C 
HETATM   17  C   UNL     1      39.866 -14.627   3.445  1.00  0.00     0.239 C 
HETATM   18  O   UNL     1      39.255 -13.766   2.830  1.00  0.00    -0.272 OA
HETATM   19  N   UNL     1      40.427 -14.583   4.706  1.00  0.00    -0.252 N 
HETATM   20  C   UNL     1      40.860 -15.831   5.098  1.00  0.00     0.238 C 
HETATM   21  O   UNL     1      41.390 -16.193   6.137  1.00  0.00    -0.272 OA
HETATM   22  C   UNL     1      41.529 -14.049  -1.446  1.00  0.00     0.033 A 
HETATM   23  C   UNL     1      41.948 -12.775  -1.064  1.00  0.00     0.039 A 
HETATM   24  H   UNL     1      40.748 -16.734  -1.497  1.00  0.00     0.169 HD
ENDROOT
BRANCH   1  25
HETATM   25  O   UNL     1      42.566 -11.163   0.502  1.00  0.00    -0.356 OA
HETATM   26  C   UNL     1      42.959 -10.414  -0.643  1.00  0.00     0.210 C 
ENDBRANCH   1  25
BRANCH  19  27
HETATM   27  C   UNL     1      40.555 -13.394   5.503  1.00  0.00     0.045 A 
HETATM   28  C   UNL     1      39.486 -12.897   6.270  1.00  0.00     0.030 A 
HETATM   29  C   UNL     1      39.589 -11.702   6.994  1.00  0.00     0.002 A 
HETATM   30  C   UNL     1      40.767 -10.970   6.974  1.00  0.00     0.000 A 
HETATM   31  C   UNL     1      41.846 -11.440   6.240  1.00  0.00     0.002 A 
HETATM   32  C   UNL     1      41.741 -12.635   5.519  1.00  0.00     0.030 A 
ENDBRANCH  19  27
TORSDOF 2
ENDMDL
MODEL 8
REMARK VINA RESULT:      -7.4      2.938      7.057
REMARK  2 active torsions:
REMARK  status: ('A' for Active; 'I' for Inactive)
REMARK    1  A    between atoms: O_2  and  C_3 
REMARK    2  A    between atoms: N_21  and  C_22 
ROOT
HETATM    1  C   UNL     1      41.374 -16.814   4.753  1.00  0.00     0.069 A 
HETATM    2  C   UNL     1      41.023 -15.585   4.181  1.00  0.00     0.049 A 
HETATM    3  C   UNL     1      41.371 -15.350   2.855  1.00  0.00     0.018 A 
HETATM    4  C   UNL     1      42.031 -16.344   2.123  1.00  0.00     0.044 A 
HETATM    5  N   UNL     1      42.246 -15.930   0.819  1.00  0.00    -0.324 N 
HETATM    6  C   UNL     1      41.753 -14.657   0.614  1.00  0.00     0.264 A 
HETATM    7  O   UNL     1      41.753 -14.039  -0.439  1.00  0.00    -0.270 OA
HETATM    8  C   UNL     1      41.108 -14.165   1.963  1.00  0.00     0.250 A 
HETATM    9  N   UNL     1      39.626 -13.867   1.822  1.00  0.00    -0.043 N 
HETATM   10  H   UNL     1      39.233 -13.819   2.773  1.00  0.00     0.282 HD
HETATM   11  C   UNL     1      39.554 -12.515   1.162  1.00  0.00     0.204 C 
HETATM   12  C   UNL     1      38.060 -12.291   1.181  1.00  0.00     0.036 C 
HETATM   13  C   UNL     1      37.516 -13.687   0.792  1.00  0.00     0.030 C 
HETATM   14  C   UNL     1      38.652 -14.696   1.050  1.00  0.00     0.237 C 
HETATM   15  C   UNL     1      40.632 -11.726   1.869  1.00  0.00     0.126 C 
HETATM   16  C   UNL     1      41.692 -12.760   2.272  1.00  0.00     0.145 C 
HETATM   17  C   UNL     1      41.892 -12.502   3.732  1.00  0.00     0.239 C 
HETATM   18  O   UNL     1      42.814 -13.033   4.332  1.00  0.00    -0.272 OA
HETATM   19  N   UNL     1      40.896 -11.668   4.201  1.00  0.00    -0.252 N 
HETATM   20  C   UNL     1      40.164 -11.138   3.160  1.00  0.00     0.238 C 
HETATM   21  O   UNL     1      39.224 -10.359   3.172  1.00  0.00    -0.272 OA
HETATM   22  C   UNL     1      42.375 -17.565   2.656  1.00  0.00     0.033 A 
HETATM   23  C   UNL     1      42.033 -17.795   3.988  1.00  0.00     0.039 A 
HETATM   24  H   UNL     1      42.708 -16.476   0.101  1.00  0.00     0.169 HD
ENDROOT
BRANCH   1  25
HETATM   25  O   UNL     1      41.098 -17.194   6.037  1.00  0.00    -0.356 OA
HETATM   26  C   UNL     1      42.152 -17.077   6.987  1.00  0.00     0.210 C 
ENDBRANCH   1  25
BRANCH  19  27
HETATM   27  C   UNL     1      40.644 -11.395   5.589  1.00  0.00     0.045 A 
HETATM   28  C   UNL     1      41.378 -10.428   6.299  1.00  0.00     0.030 A 
HETATM   29  C   UNL     1      41.179 -10.209   7.669  1.00  0.00     0.002 A 
HETATM   30  C   UNL     1      40.237 -10.949   8.368  1.00  0.00     0.000 A 
HETATM   31  C   UNL     1      39.484 -11.899   7.694  1.00  0.00     0.002 A 
HETATM   32  C   UNL     1      39.685 -12.116   6.325  1.00  0.00     0.030 A 
ENDBRANCH  19  27
TORSDOF 2
ENDMDL
MODEL 9
REMARK VINA RESULT:      -7.4      2.961      6.072
REMARK  2 active torsions:
REMARK  status: ('A' for Active; 'I' for Inactive)
REMARK    1  A    between atoms: O_2  and  C_3 
REMARK    2  A    between atoms: N_21  and  C_22 
ROOT
HETATM    1  C   UNL     1      40.620 -12.141   4.801  1.00  0.00     0.069 A 
HETATM    2  C   UNL     1      40.528 -12.583   3.475  1.00  0.00     0.049 A 
HETATM    3  C   UNL     1      39.441 -12.168   2.713  1.00  0.00     0.018 A 
HETATM    4  C   UNL     1      38.491 -11.306   3.270  1.00  0.00     0.044 A 
HETATM    5  N   UNL     1      37.519 -10.980   2.339  1.00  0.00    -0.324 N 
HETATM    6  C   UNL     1      37.763 -11.599   1.129  1.00  0.00     0.264 A 
HETATM    7  O   UNL     1      37.112 -11.472   0.104  1.00  0.00    -0.270 OA
HETATM    8  C   UNL     1      39.087 -12.438   1.274  1.00  0.00     0.250 A 
HETATM    9  N   UNL     1      40.172 -11.979   0.317  1.00  0.00    -0.043 N 
HETATM   10  H   UNL     1      41.061 -12.378   0.650  1.00  0.00     0.282 HD
HETATM   11  C   UNL     1      39.805 -12.577  -1.016  1.00  0.00     0.204 C 
HETATM   12  C   UNL     1      40.998 -12.147  -1.837  1.00  0.00     0.036 C 
HETATM   13  C   UNL     1      41.218 -10.693  -1.356  1.00  0.00     0.030 C 
HETATM   14  C   UNL     1      40.491 -10.555  -0.004  1.00  0.00     0.237 C 
HETATM   15  C   UNL     1      39.364 -13.978  -0.659  1.00  0.00     0.126 C 
HETATM   16  C   UNL     1      38.787 -13.871   0.759  1.00  0.00     0.145 C 
HETATM   17  C   UNL     1      39.512 -14.943   1.510  1.00  0.00     0.239 C 
HETATM   18  O   UNL     1      39.153 -15.257   2.635  1.00  0.00    -0.272 OA
HETATM   19  N   UNL     1      40.572 -15.407   0.758  1.00  0.00    -0.252 N 
HETATM   20  C   UNL     1      40.510 -14.928  -0.532  1.00  0.00     0.238 C 
HETATM   21  O   UNL     1      41.250 -15.124  -1.483  1.00  0.00    -0.272 OA
HETATM   22  C   UNL     1      38.563 -10.844   4.565  1.00  0.00     0.033 A 
HETATM   23  C   UNL     1      39.648 -11.270   5.330  1.00  0.00     0.039 A 
HETATM   24  H   UNL     1      36.726 -10.373   2.509  1.00  0.00     0.169 HD
ENDROOT
BRANCH   1  25
HETATM   25  O   UNL     1      41.626 -12.456   5.671  1.00  0.00    -0.356 OA
HETATM   26  C   UNL     1      42.564 -13.438   5.245  1.00  0.00     0.210 C 
ENDBRANCH   1  25
BRANCH  19  27
HETATM   27  C   UNL     1      41.611 -16.268   1.254  1.00  0.00     0.045 A 
HETATM   28  C   UNL     1      42.877 -15.771   1.613  1.00  0.00     0.030 A 
HETATM   29  C   UNL     1      43.912 -16.619   2.032  1.00  0.00     0.002 A 
HETATM   30  C   UNL     1      43.708 -17.989   2.108  1.00  0.00     0.000 A 
HETATM   31  C   UNL     1      42.466 -18.510   1.777  1.00  0.00     0.002 A 
HETATM   32  C   UNL     1      41.434 -17.661   1.359  1.00  0.00     0.030 A 
ENDBRANCH  19  27
TORSDOF 2
ENDMDL
MODEL 10
REMARK VINA RESULT:      -7.2      3.813      8.669
REMARK  2 active torsions:
REMARK  status: ('A' for Active; 'I' for Inactive)
REMARK    1  A    between atoms: O_2  and  C_3 
REMARK    2  A    between atoms: N_21  and  C_22 
ROOT
HETATM    1  C   UNL     1      41.952 -14.160   1.639  1.00  0.00     0.069 A 
HETATM    2  C   UNL     1      41.570 -13.474   0.479  1.00  0.00     0.049 A 
HETATM    3  C   UNL     1      41.278 -14.214  -0.661  1.00  0.00     0.018 A 
HETATM    4  C   UNL     1      41.343 -15.611  -0.619  1.00  0.00     0.044 A 
HETATM    5  N   UNL     1      40.974 -16.156  -1.837  1.00  0.00    -0.324 N 
HETATM    6  C   UNL     1      40.651 -15.168  -2.746  1.00  0.00     0.264 A 
HETATM    7  O   UNL     1      40.248 -15.334  -3.886  1.00  0.00    -0.270 OA
HETATM    8  C   UNL     1      40.812 -13.777  -2.026  1.00  0.00     0.250 A 
HETATM    9  N   UNL     1      39.511 -12.999  -1.970  1.00  0.00    -0.043 N 
HETATM   10  H   UNL     1      39.631 -12.254  -1.269  1.00  0.00     0.282 HD
HETATM   11  C   UNL     1      39.348 -12.398  -3.342  1.00  0.00     0.204 C 
HETATM   12  C   UNL     1      38.100 -11.576  -3.124  1.00  0.00     0.036 C 
HETATM   13  C   UNL     1      37.223 -12.530  -2.278  1.00  0.00     0.030 C 
HETATM   14  C   UNL     1      38.169 -13.587  -1.673  1.00  0.00     0.237 C 
HETATM   15  C   UNL     1      40.742 -11.921  -3.680  1.00  0.00     0.126 C 
HETATM   16  C   UNL     1      41.687 -12.879  -2.942  1.00  0.00     0.145 C 
HETATM   17  C   UNL     1      42.596 -11.959  -2.189  1.00  0.00     0.239 C 
HETATM   18  O   UNL     1      43.595 -12.395  -1.638  1.00  0.00    -0.272 OA
HETATM   19  N   UNL     1      42.089 -10.676  -2.215  1.00  0.00    -0.252 N 
HETATM   20  C   UNL     1      41.045 -10.574  -3.109  1.00  0.00     0.238 C 
HETATM   21  O   UNL     1      40.360  -9.612  -3.417  1.00  0.00    -0.272 OA
HETATM   22  C   UNL     1      41.701 -16.312   0.511  1.00  0.00     0.033 A 
HETATM   23  C   UNL     1      42.003 -15.567   1.650  1.00  0.00     0.039 A 
HETATM   24  H   UNL     1      40.946 -17.146  -2.050  1.00  0.00     0.169 HD
ENDROOT
BRANCH   1  25
HETATM   25  O   UNL     1      42.265 -13.577   2.835  1.00  0.00    -0.356 OA
HETATM   26  C   UNL     1      43.448 -14.027   3.484  1.00  0.00     0.210 C 
ENDBRANCH   1  25
BRANCH  19  27
HETATM   27  C   UNL     1      42.575  -9.588  -1.411  1.00  0.00     0.045 A 
HETATM   28  C   UNL     1      43.781  -8.928  -1.708  1.00  0.00     0.030 A 
HETATM   29  C   UNL     1      44.290  -7.913  -0.886  1.00  0.00     0.002 A 
HETATM   30  C   UNL     1      43.603  -7.525   0.255  1.00  0.00     0.000 A 
HETATM   31  C   UNL     1      42.402  -8.145   0.568  1.00  0.00     0.002 A 
HETATM   32  C   UNL     1      41.896  -9.158  -0.255  1.00  0.00     0.030 A 
ENDBRANCH  19  27
TORSDOF 2
ENDMDL
