MODEL 1
REMARK VINA RESULT:      -8.3      0.000      0.000
REMARK  7 active torsions:
REMARK  status: ('A' for Active; 'I' for Inactive)
REMARK    1  A    between atoms: O_2  and  C_3 
REMARK    2  A    between atoms: C_5  and  C_6 
REMARK    3  A    between atoms: C_8  and  C_9 
REMARK    4  A    between atoms: C_9  and  N_10 
REMARK    5  A    between atoms: N_10  and  C_13 
REMARK    6  A    between atoms: C_13  and  C_14 
REMARK    7  A    between atoms: C_24  and  O_25 
ROOT
HETATM    1  C   UNL     1      42.702 -17.895   2.446  1.00  0.00    -0.007 A 
HETATM    2  C   UNL     1      43.457 -16.791   2.888  1.00  0.00     0.025 A 
HETATM    3  C   UNL     1      42.981 -15.471   2.792  1.00  0.00     0.001 A 
HETATM    4  C   UNL     1      41.711 -15.261   2.255  1.00  0.00     0.073 A 
HETATM    5  C   UNL     1      40.929 -16.329   1.829  1.00  0.00     0.038 A 
HETATM    6  C   UNL     1      41.426 -17.634   1.921  1.00  0.00     0.016 A 
ENDROOT
BRANCH   3   7
HETATM    7  C   UNL     1      43.857 -14.328   3.212  1.00  0.00     0.274 C 
BRANCH   7   8
HETATM    8  N   UNL     1      43.181 -13.412   4.172  1.00  0.00    -0.067 N 
HETATM    9  H   UNL     1      43.508 -12.452   4.019  1.00  0.00     0.277 HD
HETATM   10  H   UNL     1      42.173 -13.397   3.976  1.00  0.00     0.277 HD
BRANCH   8  11
HETATM   11  C   UNL     1      43.372 -13.745   5.614  1.00  0.00     0.272 C 
BRANCH  11  12
HETATM   12  C   UNL     1      42.561 -14.965   5.970  1.00  0.00    -0.022 A 
HETATM   13  C   UNL     1      43.176 -16.200   6.336  1.00  0.00    -0.018 A 
HETATM   14  C   UNL     1      42.343 -17.326   6.562  1.00  0.00    -0.025 A 
HETATM   15  C   UNL     1      44.574 -16.384   6.488  1.00  0.00     0.013 A 
HETATM   16  C   UNL     1      42.907 -18.563   6.910  1.00  0.00     0.012 A 
HETATM   17  C   UNL     1      40.952 -17.207   6.439  1.00  0.00     0.012 A 
HETATM   18  C   UNL     1      44.285 -18.712   7.045  1.00  0.00     0.001 A 
HETATM   19  C   UNL     1      45.117 -17.621   6.839  1.00  0.00     0.001 A 
HETATM   20  C   UNL     1      40.364 -15.995   6.092  1.00  0.00     0.002 A 
HETATM   21  C   UNL     1      41.160 -14.882   5.854  1.00  0.00     0.010 A 
ENDBRANCH  11  12
ENDBRANCH   8  11
ENDBRANCH   7   8
ENDBRANCH   3   7
BRANCH   4  22
HETATM   22  O   UNL     1      41.266 -13.979   2.121  1.00  0.00    -0.360 OA
HETATM   23  H   UNL     1      40.302 -13.961   2.286  1.00  0.00     0.217 HD
ENDBRANCH   4  22
BRANCH   1  24
HETATM   24  C   UNL     1      43.273 -19.257   2.512  1.00  0.00     0.070 A 
HETATM   25  N   UNL     1      44.059 -19.493   3.597  1.00  0.00    -0.224 NA
HETATM   26  C   UNL     1      44.619 -20.721   3.704  1.00  0.00     0.164 A 
HETATM   27  C   UNL     1      44.434 -21.737   2.782  1.00  0.00     0.058 A 
HETATM   28  C   UNL     1      43.623 -21.487   1.685  1.00  0.00     0.007 A 
HETATM   29  C   UNL     1      43.033 -20.233   1.546  1.00  0.00     0.032 A 
BRANCH  26  30
HETATM   30  O   UNL     1      45.428 -21.022   4.780  1.00  0.00    -0.339 OA
HETATM   31  C   UNL     1      45.192 -22.314   5.326  1.00  0.00     0.211 C 
ENDBRANCH  26  30
ENDBRANCH   1  24
TORSDOF 7
ENDMDL
MODEL 2
REMARK VINA RESULT:      -8.2      1.833      4.184
REMARK  7 active torsions:
REMARK  status: ('A' for Active; 'I' for Inactive)
REMARK    1  A    between atoms: O_2  and  C_3 
REMARK    2  A    between atoms: C_5  and  C_6 
REMARK    3  A    between atoms: C_8  and  C_9 
REMARK    4  A    between atoms: C_9  and  N_10 
REMARK    5  A    between atoms: N_10  and  C_13 
REMARK    6  A    between atoms: C_13  and  C_14 
REMARK    7  A    between atoms: C_24  and  O_25 
ROOT
HETATM    1  C   UNL     1      43.639 -18.637   4.796  1.00  0.00    -0.007 A 
HETATM    2  C   UNL     1      42.361 -18.164   5.153  1.00  0.00     0.025 A 
HETATM    3  C   UNL     1      42.170 -17.232   6.189  1.00  0.00     0.001 A 
HETATM    4  C   UNL     1      43.291 -16.754   6.867  1.00  0.00     0.073 A 
HETATM    5  C   UNL     1      44.569 -17.181   6.526  1.00  0.00     0.038 A 
HETATM    6  C   UNL     1      44.738 -18.119   5.501  1.00  0.00     0.016 A 
ENDROOT
BRANCH   3   7
HETATM    7  C   UNL     1      40.781 -16.819   6.575  1.00  0.00     0.274 C 
BRANCH   7   8
HETATM    8  N   UNL     1      40.596 -15.342   6.552  1.00  0.00    -0.067 N 
HETATM    9  H   UNL     1      39.896 -15.072   7.252  1.00  0.00     0.277 HD
HETATM   10  H   UNL     1      41.469 -14.885   6.842  1.00  0.00     0.277 HD
BRANCH   8  11
HETATM   11  C   UNL     1      40.185 -14.770   5.237  1.00  0.00     0.272 C 
BRANCH  11  12
HETATM   12  C   UNL     1      41.371 -14.710   4.309  1.00  0.00    -0.022 A 
HETATM   13  C   UNL     1      41.430 -15.477   3.108  1.00  0.00    -0.018 A 
HETATM   14  C   UNL     1      42.623 -15.438   2.341  1.00  0.00    -0.025 A 
HETATM   15  C   UNL     1      40.372 -16.286   2.623  1.00  0.00     0.013 A 
HETATM   16  C   UNL     1      42.729 -16.188   1.160  1.00  0.00     0.012 A 
HETATM   17  C   UNL     1      43.702 -14.648   2.761  1.00  0.00     0.012 A 
HETATM   18  C   UNL     1      41.672 -16.978   0.713  1.00  0.00     0.001 A 
HETATM   19  C   UNL     1      40.492 -17.023   1.442  1.00  0.00     0.001 A 
HETATM   20  C   UNL     1      43.629 -13.896   3.929  1.00  0.00     0.002 A 
HETATM   21  C   UNL     1      42.475 -13.929   4.702  1.00  0.00     0.010 A 
ENDBRANCH  11  12
ENDBRANCH   8  11
ENDBRANCH   7   8
ENDBRANCH   3   7
BRANCH   4  22
HETATM   22  O   UNL     1      43.103 -15.884   7.900  1.00  0.00    -0.360 OA
HETATM   23  H   UNL     1      43.865 -15.273   7.939  1.00  0.00     0.217 HD
ENDBRANCH   4  22
BRANCH   1  24
HETATM   24  C   UNL     1      43.781 -19.663   3.741  1.00  0.00     0.070 A 
HETATM   25  N   UNL     1      44.285 -20.853   4.167  1.00  0.00    -0.224 NA
HETATM   26  C   UNL     1      44.448 -21.827   3.241  1.00  0.00     0.164 A 
HETATM   27  C   UNL     1      44.131 -21.680   1.902  1.00  0.00     0.058 A 
HETATM   28  C   UNL     1      43.609 -20.465   1.481  1.00  0.00     0.007 A 
HETATM   29  C   UNL     1      43.430 -19.443   2.410  1.00  0.00     0.032 A 
BRANCH  26  30
HETATM   30  O   UNL     1      44.956 -23.055   3.610  1.00  0.00    -0.339 OA
HETATM   31  C   UNL     1      45.355 -23.120   4.973  1.00  0.00     0.211 C 
ENDBRANCH  26  30
ENDBRANCH   1  24
TORSDOF 7
ENDMDL
MODEL 3
REMARK VINA RESULT:      -8.2      1.405      3.817
REMARK  7 active torsions:
REMARK  status: ('A' for Active; 'I' for Inactive)
REMARK    1  A    between atoms: O_2  and  C_3 
REMARK    2  A    between atoms: C_5  and  C_6 
REMARK    3  A    between atoms: C_8  and  C_9 
REMARK    4  A    between atoms: C_9  and  N_10 
REMARK    5  A    between atoms: N_10  and  C_13 
REMARK    6  A    between atoms: C_13  and  C_14 
REMARK    7  A    between atoms: C_24  and  O_25 
ROOT
HETATM    1  C   UNL     1      42.743 -17.853   5.815  1.00  0.00    -0.007 A 
HETATM    2  C   UNL     1      43.422 -16.623   5.716  1.00  0.00     0.025 A 
HETATM    3  C   UNL     1      42.766 -15.390   5.885  1.00  0.00     0.001 A 
HETATM    4  C   UNL     1      41.402 -15.398   6.176  1.00  0.00     0.073 A 
HETATM    5  C   UNL     1      40.705 -16.594   6.304  1.00  0.00     0.038 A 
HETATM    6  C   UNL     1      41.372 -17.810   6.119  1.00  0.00     0.016 A 
ENDROOT
BRANCH   3   7
HETATM    7  C   UNL     1      43.523 -14.109   5.697  1.00  0.00     0.274 C 
BRANCH   7   8
HETATM    8  N   UNL     1      42.849 -13.180   4.749  1.00  0.00    -0.067 N 
HETATM    9  H   UNL     1      41.840 -13.172   4.934  1.00  0.00     0.277 HD
HETATM   10  H   UNL     1      43.172 -12.221   4.926  1.00  0.00     0.277 HD
BRANCH   8  11
HETATM   11  C   UNL     1      43.057 -13.483   3.303  1.00  0.00     0.272 C 
BRANCH  11  12
HETATM   12  C   UNL     1      42.067 -14.525   2.849  1.00  0.00    -0.022 A 
HETATM   13  C   UNL     1      42.484 -15.758   2.264  1.00  0.00    -0.018 A 
HETATM   14  C   UNL     1      41.488 -16.642   1.774  1.00  0.00    -0.025 A 
HETATM   15  C   UNL     1      43.836 -16.164   2.132  1.00  0.00     0.013 A 
HETATM   16  C   UNL     1      41.854 -17.859   1.179  1.00  0.00     0.012 A 
HETATM   17  C   UNL     1      40.132 -16.303   1.885  1.00  0.00     0.012 A 
HETATM   18  C   UNL     1      43.193 -18.226   1.060  1.00  0.00     0.001 A 
HETATM   19  C   UNL     1      44.182 -17.381   1.541  1.00  0.00     0.001 A 
HETATM   20  C   UNL     1      39.738 -15.103   2.468  1.00  0.00     0.002 A 
HETATM   21  C   UNL     1      40.696 -14.216   2.942  1.00  0.00     0.010 A 
ENDBRANCH  11  12
ENDBRANCH   8  11
ENDBRANCH   7   8
ENDBRANCH   3   7
BRANCH   4  22
HETATM   22  O   UNL     1      40.756 -14.203   6.297  1.00  0.00    -0.360 OA
HETATM   23  H   UNL     1      40.604 -13.836   5.403  1.00  0.00     0.217 HD
ENDBRANCH   4  22
BRANCH   1  24
HETATM   24  C   UNL     1      43.465 -19.119   5.567  1.00  0.00     0.070 A 
HETATM   25  N   UNL     1      43.903 -19.286   4.290  1.00  0.00    -0.224 NA
HETATM   26  C   UNL     1      44.562 -20.433   4.003  1.00  0.00     0.164 A 
HETATM   27  C   UNL     1      44.812 -21.432   4.928  1.00  0.00     0.058 A 
HETATM   28  C   UNL     1      44.369 -21.247   6.229  1.00  0.00     0.007 A 
HETATM   29  C   UNL     1      43.688 -20.077   6.556  1.00  0.00     0.032 A 
BRANCH  26  30
HETATM   30  O   UNL     1      45.029 -20.662   2.725  1.00  0.00    -0.339 OA
HETATM   31  C   UNL     1      44.347 -21.708   2.047  1.00  0.00     0.211 C 
ENDBRANCH  26  30
ENDBRANCH   1  24
TORSDOF 7
ENDMDL
MODEL 4
REMARK VINA RESULT:      -7.9      1.427      5.359
REMARK  7 active torsions:
REMARK  status: ('A' for Active; 'I' for Inactive)
REMARK    1  A    between atoms: O_2  and  C_3 
REMARK    2  A    between atoms: C_5  and  C_6 
REMARK    3  A    between atoms: C_8  and  C_9 
REMARK    4  A    between atoms: C_9  and  N_10 
REMARK    5  A    between atoms: N_10  and  C_13 
REMARK    6  A    between atoms: C_13  and  C_14 
REMARK    7  A    between atoms: C_24  and  O_25 
ROOT
HETATM    1  C   UNL     1      42.843 -18.058   2.706  1.00  0.00    -0.007 A 
HETATM    2  C   UNL     1      43.406 -18.209   3.988  1.00  0.00     0.025 A 
HETATM    3  C   UNL     1      44.124 -19.360   4.360  1.00  0.00     0.001 A 
HETATM    4  C   UNL     1      44.292 -20.372   3.415  1.00  0.00     0.073 A 
HETATM    5  C   UNL     1      43.770 -20.246   2.132  1.00  0.00     0.038 A 
HETATM    6  C   UNL     1      43.047 -19.099   1.786  1.00  0.00     0.016 A 
ENDROOT
BRANCH   3   7
HETATM    7  C   UNL     1      44.640 -19.498   5.761  1.00  0.00     0.274 C 
BRANCH   7   8
HETATM    8  N   UNL     1      45.191 -18.223   6.297  1.00  0.00    -0.067 N 
HETATM    9  H   UNL     1      46.127 -18.388   6.683  1.00  0.00     0.277 HD
HETATM   10  H   UNL     1      45.321 -17.558   5.525  1.00  0.00     0.277 HD
BRANCH   8  11
HETATM   11  C   UNL     1      44.363 -17.562   7.348  1.00  0.00     0.272 C 
BRANCH  11  12
HETATM   12  C   UNL     1      43.956 -16.185   6.890  1.00  0.00    -0.022 A 
HETATM   13  C   UNL     1      42.630 -15.898   6.448  1.00  0.00    -0.018 A 
HETATM   14  C   UNL     1      42.354 -14.602   5.941  1.00  0.00    -0.025 A 
HETATM   15  C   UNL     1      41.558 -16.827   6.476  1.00  0.00     0.013 A 
HETATM   16  C   UNL     1      41.067 -14.281   5.483  1.00  0.00     0.012 A 
HETATM   17  C   UNL     1      43.368 -13.635   5.897  1.00  0.00     0.012 A 
HETATM   18  C   UNL     1      40.037 -15.219   5.519  1.00  0.00     0.001 A 
HETATM   19  C   UNL     1      40.282 -16.489   6.020  1.00  0.00     0.001 A 
HETATM   20  C   UNL     1      44.654 -13.923   6.342  1.00  0.00     0.002 A 
HETATM   21  C   UNL     1      44.950 -15.190   6.829  1.00  0.00     0.010 A 
ENDBRANCH  11  12
ENDBRANCH   8  11
ENDBRANCH   7   8
ENDBRANCH   3   7
BRANCH   4  22
HETATM   22  O   UNL     1      44.950 -21.506   3.788  1.00  0.00    -0.360 OA
HETATM   23  H   UNL     1      45.817 -21.530   3.336  1.00  0.00     0.217 HD
ENDBRANCH   4  22
BRANCH   1  24
HETATM   24  C   UNL     1      42.045 -16.856   2.384  1.00  0.00     0.070 A 
HETATM   25  N   UNL     1      42.751 -15.693   2.357  1.00  0.00    -0.224 NA
HETATM   26  C   UNL     1      42.069 -14.557   2.080  1.00  0.00     0.164 A 
HETATM   27  C   UNL     1      40.710 -14.516   1.821  1.00  0.00     0.058 A 
HETATM   28  C   UNL     1      40.002 -15.709   1.842  1.00  0.00     0.007 A 
HETATM   29  C   UNL     1      40.675 -16.895   2.125  1.00  0.00     0.032 A 
BRANCH  26  30
HETATM   30  O   UNL     1      42.727 -13.346   2.039  1.00  0.00    -0.339 OA
HETATM   31  C   UNL     1      41.917 -12.271   1.583  1.00  0.00     0.211 C 
ENDBRANCH  26  30
ENDBRANCH   1  24
TORSDOF 7
ENDMDL
MODEL 5
REMARK VINA RESULT:      -7.9      3.138      5.883
REMARK  7 active torsions:
REMARK  status: ('A' for Active; 'I' for Inactive)
REMARK    1  A    between atoms: O_2  and  C_3 
REMARK    2  A    between atoms: C_5  and  C_6 
REMARK    3  A    between atoms: C_8  and  C_9 
REMARK    4  A    between atoms: C_9  and  N_10 
REMARK    5  A    between atoms: N_10  and  C_13 
REMARK    6  A    between atoms: C_13  and  C_14 
REMARK    7  A    between atoms: C_24  and  O_25 
ROOT
HETATM    1  C   UNL     1      41.068 -14.113   0.781  1.00  0.00    -0.007 A 
HETATM    2  C   UNL     1      41.512 -13.372   1.894  1.00  0.00     0.025 A 
HETATM    3  C   UNL     1      41.094 -13.666   3.205  1.00  0.00     0.001 A 
HETATM    4  C   UNL     1      40.224 -14.740   3.399  1.00  0.00     0.073 A 
HETATM    5  C   UNL     1      39.785 -15.507   2.326  1.00  0.00     0.038 A 
HETATM    6  C   UNL     1      40.202 -15.190   1.028  1.00  0.00     0.016 A 
ENDROOT
BRANCH   3   7
HETATM    7  C   UNL     1      41.540 -12.799   4.344  1.00  0.00     0.274 C 
BRANCH   7   8
HETATM    8  N   UNL     1      42.312 -13.553   5.369  1.00  0.00    -0.067 N 
HETATM    9  H   UNL     1      42.627 -12.911   6.104  1.00  0.00     0.277 HD
HETATM   10  H   UNL     1      41.692 -14.226   5.835  1.00  0.00     0.277 HD
BRANCH   8  11
HETATM   11  C   UNL     1      43.502 -14.293   4.855  1.00  0.00     0.272 C 
BRANCH  11  12
HETATM   12  C   UNL     1      43.266 -15.779   4.957  1.00  0.00    -0.022 A 
HETATM   13  C   UNL     1      43.326 -16.633   3.816  1.00  0.00    -0.018 A 
HETATM   14  C   UNL     1      42.996 -18.003   3.981  1.00  0.00    -0.025 A 
HETATM   15  C   UNL     1      43.694 -16.205   2.515  1.00  0.00     0.013 A 
HETATM   16  C   UNL     1      43.029 -18.875   2.882  1.00  0.00     0.012 A 
HETATM   17  C   UNL     1      42.635 -18.490   5.244  1.00  0.00     0.012 A 
HETATM   18  C   UNL     1      43.390 -18.421   1.615  1.00  0.00     0.001 A 
HETATM   19  C   UNL     1      43.727 -17.088   1.433  1.00  0.00     0.001 A 
HETATM   20  C   UNL     1      42.590 -17.650   6.352  1.00  0.00     0.002 A 
HETATM   21  C   UNL     1      42.897 -16.303   6.211  1.00  0.00     0.010 A 
ENDBRANCH  11  12
ENDBRANCH   8  11
ENDBRANCH   7   8
ENDBRANCH   3   7
BRANCH   4  22
HETATM   22  O   UNL     1      39.784 -14.999   4.663  1.00  0.00    -0.360 OA
HETATM   23  H   UNL     1      39.424 -15.907   4.691  1.00  0.00     0.217 HD
ENDBRANCH   4  22
BRANCH   1  24
HETATM   24  C   UNL     1      41.488 -13.725  -0.582  1.00  0.00     0.070 A 
HETATM   25  N   UNL     1      41.006 -14.520  -1.576  1.00  0.00    -0.224 NA
HETATM   26  C   UNL     1      41.368 -14.218  -2.845  1.00  0.00     0.164 A 
HETATM   27  C   UNL     1      42.189 -13.156  -3.181  1.00  0.00     0.058 A 
HETATM   28  C   UNL     1      42.667 -12.347  -2.161  1.00  0.00     0.007 A 
HETATM   29  C   UNL     1      42.313 -12.631  -0.845  1.00  0.00     0.032 A 
BRANCH  26  30
HETATM   30  O   UNL     1      40.914 -14.987  -3.895  1.00  0.00    -0.339 OA
HETATM   31  C   UNL     1      39.801 -15.807  -3.562  1.00  0.00     0.211 C 
ENDBRANCH  26  30
ENDBRANCH   1  24
TORSDOF 7
ENDMDL
MODEL 6
REMARK VINA RESULT:      -7.9      4.782      8.809
REMARK  7 active torsions:
REMARK  status: ('A' for Active; 'I' for Inactive)
REMARK    1  A    between atoms: O_2  and  C_3 
REMARK    2  A    between atoms: C_5  and  C_6 
REMARK    3  A    between atoms: C_8  and  C_9 
REMARK    4  A    between atoms: C_9  and  N_10 
REMARK    5  A    between atoms: N_10  and  C_13 
REMARK    6  A    between atoms: C_13  and  C_14 
REMARK    7  A    between atoms: C_24  and  O_25 
ROOT
HETATM    1  C   UNL     1      44.282 -11.631  10.006  1.00  0.00    -0.007 A 
HETATM    2  C   UNL     1      44.179 -12.668   9.058  1.00  0.00     0.025 A 
HETATM    3  C   UNL     1      45.204 -12.944   8.134  1.00  0.00     0.001 A 
HETATM    4  C   UNL     1      46.363 -12.169   8.179  1.00  0.00     0.073 A 
HETATM    5  C   UNL     1      46.509 -11.153   9.116  1.00  0.00     0.038 A 
HETATM    6  C   UNL     1      45.473 -10.886  10.018  1.00  0.00     0.016 A 
ENDROOT
BRANCH   3   7
HETATM    7  C   UNL     1      45.010 -14.012   7.100  1.00  0.00     0.274 C 
BRANCH   7   8
HETATM    8  N   UNL     1      43.871 -14.917   7.418  1.00  0.00    -0.067 N 
HETATM    9  H   UNL     1      44.199 -15.685   8.013  1.00  0.00     0.277 HD
HETATM   10  H   UNL     1      43.178 -14.407   7.979  1.00  0.00     0.277 HD
BRANCH   8  11
HETATM   11  C   UNL     1      43.174 -15.505   6.237  1.00  0.00     0.272 C 
BRANCH  11  12
HETATM   12  C   UNL     1      43.554 -16.956   6.086  1.00  0.00    -0.022 A 
HETATM   13  C   UNL     1      43.684 -17.573   4.807  1.00  0.00    -0.018 A 
HETATM   14  C   UNL     1      43.948 -18.966   4.754  1.00  0.00    -0.025 A 
HETATM   15  C   UNL     1      43.563 -16.887   3.572  1.00  0.00     0.013 A 
HETATM   16  C   UNL     1      44.070 -19.616   3.516  1.00  0.00     0.012 A 
HETATM   17  C   UNL     1      44.090 -19.699   5.940  1.00  0.00     0.012 A 
HETATM   18  C   UNL     1      43.940 -18.913   2.320  1.00  0.00     0.001 A 
HETATM   19  C   UNL     1      43.692 -17.549   2.349  1.00  0.00     0.001 A 
HETATM   20  C   UNL     1      43.971 -19.083   7.182  1.00  0.00     0.002 A 
HETATM   21  C   UNL     1      43.700 -17.724   7.258  1.00  0.00     0.010 A 
ENDBRANCH  11  12
ENDBRANCH   8  11
ENDBRANCH   7   8
ENDBRANCH   3   7
BRANCH   4  22
HETATM   22  O   UNL     1      47.338 -12.407   7.256  1.00  0.00    -0.360 OA
HETATM   23  H   UNL     1      46.928 -12.456   6.370  1.00  0.00     0.217 HD
ENDBRANCH   4  22
BRANCH   1  24
HETATM   24  C   UNL     1      43.152 -11.342  10.914  1.00  0.00     0.070 A 
HETATM   25  N   UNL     1      41.974 -11.071  10.289  1.00  0.00    -0.224 NA
HETATM   26  C   UNL     1      40.906 -10.787  11.071  1.00  0.00     0.164 A 
HETATM   27  C   UNL     1      40.947 -10.762  12.454  1.00  0.00     0.058 A 
HETATM   28  C   UNL     1      42.151 -11.050  13.080  1.00  0.00     0.007 A 
HETATM   29  C   UNL     1      43.268 -11.345  12.303  1.00  0.00     0.032 A 
BRANCH  26  30
HETATM   30  O   UNL     1      39.684 -10.502  10.498  1.00  0.00    -0.339 OA
HETATM   31  C   UNL     1      39.512 -11.077   9.208  1.00  0.00     0.211 C 
ENDBRANCH  26  30
ENDBRANCH   1  24
TORSDOF 7
ENDMDL
MODEL 7
REMARK VINA RESULT:      -7.9      2.290      6.352
REMARK  7 active torsions:
REMARK  status: ('A' for Active; 'I' for Inactive)
REMARK    1  A    between atoms: O_2  and  C_3 
REMARK    2  A    between atoms: C_5  and  C_6 
REMARK    3  A    between atoms: C_8  and  C_9 
REMARK    4  A    between atoms: C_9  and  N_10 
REMARK    5  A    between atoms: N_10  and  C_13 
REMARK    6  A    between atoms: C_13  and  C_14 
REMARK    7  A    between atoms: C_24  and  O_25 
ROOT
HETATM    1  C   UNL     1      41.784 -14.633   4.607  1.00  0.00    -0.007 A 
HETATM    2  C   UNL     1      41.906 -15.669   5.554  1.00  0.00     0.025 A 
HETATM    3  C   UNL     1      42.910 -15.668   6.539  1.00  0.00     0.001 A 
HETATM    4  C   UNL     1      43.798 -14.593   6.581  1.00  0.00     0.073 A 
HETATM    5  C   UNL     1      43.691 -13.541   5.678  1.00  0.00     0.038 A 
HETATM    6  C   UNL     1      42.694 -13.567   4.697  1.00  0.00     0.016 A 
ENDROOT
BRANCH   3   7
HETATM    7  C   UNL     1      43.039 -16.833   7.475  1.00  0.00     0.274 C 
BRANCH   7   8
HETATM    8  N   UNL     1      43.223 -18.125   6.758  1.00  0.00    -0.067 N 
HETATM    9  H   UNL     1      43.167 -18.900   7.428  1.00  0.00     0.277 HD
HETATM   10  H   UNL     1      42.444 -18.266   6.104  1.00  0.00     0.277 HD
BRANCH   8  11
HETATM   11  C   UNL     1      44.500 -18.257   5.997  1.00  0.00     0.272 C 
BRANCH  11  12
HETATM   12  C   UNL     1      44.216 -18.725   4.593  1.00  0.00    -0.022 A 
HETATM   13  C   UNL     1      44.371 -20.089   4.207  1.00  0.00    -0.018 A 
HETATM   14  C   UNL     1      44.177 -20.429   2.843  1.00  0.00    -0.025 A 
HETATM   15  C   UNL     1      44.711 -21.140   5.096  1.00  0.00     0.013 A 
HETATM   16  C   UNL     1      44.332 -21.757   2.416  1.00  0.00     0.012 A 
HETATM   17  C   UNL     1      43.828 -19.439   1.915  1.00  0.00     0.012 A 
HETATM   18  C   UNL     1      44.673 -22.765   3.316  1.00  0.00     0.001 A 
HETATM   19  C   UNL     1      44.857 -22.457   4.656  1.00  0.00     0.001 A 
HETATM   20  C   UNL     1      43.669 -18.113   2.306  1.00  0.00     0.002 A 
HETATM   21  C   UNL     1      43.866 -17.755   3.634  1.00  0.00     0.010 A 
ENDBRANCH  11  12
ENDBRANCH   8  11
ENDBRANCH   7   8
ENDBRANCH   3   7
BRANCH   4  22
HETATM   22  O   UNL     1      44.798 -14.613   7.508  1.00  0.00    -0.360 OA
HETATM   23  H   UNL     1      45.088 -13.694   7.677  1.00  0.00     0.217 HD
ENDBRANCH   4  22
BRANCH   1  24
HETATM   24  C   UNL     1      40.750 -14.711   3.554  1.00  0.00     0.070 A 
HETATM   25  N   UNL     1      40.083 -13.548   3.321  1.00  0.00    -0.224 NA
HETATM   26  C   UNL     1      39.116 -13.563   2.373  1.00  0.00     0.164 A 
HETATM   27  C   UNL     1      38.776 -14.684   1.636  1.00  0.00     0.058 A 
HETATM   28  C   UNL     1      39.469 -15.862   1.875  1.00  0.00     0.007 A 
HETATM   29  C   UNL     1      40.469 -15.878   2.844  1.00  0.00     0.032 A 
BRANCH  26  30
HETATM   30  O   UNL     1      38.404 -12.416   2.092  1.00  0.00    -0.339 OA
HETATM   31  C   UNL     1      38.177 -12.212   0.704  1.00  0.00     0.211 C 
ENDBRANCH  26  30
ENDBRANCH   1  24
TORSDOF 7
ENDMDL
MODEL 8
REMARK VINA RESULT:      -7.8      2.735      5.936
REMARK  7 active torsions:
REMARK  status: ('A' for Active; 'I' for Inactive)
REMARK    1  A    between atoms: O_2  and  C_3 
REMARK    2  A    between atoms: C_5  and  C_6 
REMARK    3  A    between atoms: C_8  and  C_9 
REMARK    4  A    between atoms: C_9  and  N_10 
REMARK    5  A    between atoms: N_10  and  C_13 
REMARK    6  A    between atoms: C_13  and  C_14 
REMARK    7  A    between atoms: C_24  and  O_25 
ROOT
HETATM    1  C   UNL     1      40.211 -14.361   2.678  1.00  0.00    -0.007 A 
HETATM    2  C   UNL     1      40.568 -15.320   3.646  1.00  0.00     0.025 A 
HETATM    3  C   UNL     1      40.443 -15.074   5.025  1.00  0.00     0.001 A 
HETATM    4  C   UNL     1      39.933 -13.843   5.437  1.00  0.00     0.073 A 
HETATM    5  C   UNL     1      39.548 -12.882   4.509  1.00  0.00     0.038 A 
HETATM    6  C   UNL     1      39.692 -13.140   3.141  1.00  0.00     0.016 A 
ENDROOT
BRANCH   3   7
HETATM    7  C   UNL     1      40.907 -16.104   6.012  1.00  0.00     0.274 C 
BRANCH   7   8
HETATM    8  N   UNL     1      42.171 -15.714   6.695  1.00  0.00    -0.067 N 
HETATM    9  H   UNL     1      42.105 -14.741   7.012  1.00  0.00     0.277 HD
HETATM   10  H   UNL     1      42.287 -16.277   7.546  1.00  0.00     0.277 HD
BRANCH   8  11
HETATM   11  C   UNL     1      43.409 -15.853   5.873  1.00  0.00     0.272 C 
BRANCH  11  12
HETATM   12  C   UNL     1      43.761 -17.310   5.716  1.00  0.00    -0.022 A 
HETATM   13  C   UNL     1      43.828 -17.937   4.436  1.00  0.00    -0.018 A 
HETATM   14  C   UNL     1      44.070 -19.334   4.381  1.00  0.00    -0.025 A 
HETATM   15  C   UNL     1      43.666 -17.256   3.202  1.00  0.00     0.013 A 
HETATM   16  C   UNL     1      44.130 -19.993   3.144  1.00  0.00     0.012 A 
HETATM   17  C   UNL     1      44.250 -20.062   5.565  1.00  0.00     0.012 A 
HETATM   18  C   UNL     1      43.960 -19.296   1.950  1.00  0.00     0.001 A 
HETATM   19  C   UNL     1      43.733 -17.928   1.979  1.00  0.00     0.001 A 
HETATM   20  C   UNL     1      44.193 -19.437   6.807  1.00  0.00     0.002 A 
HETATM   21  C   UNL     1      43.945 -18.073   6.885  1.00  0.00     0.010 A 
ENDBRANCH  11  12
ENDBRANCH   8  11
ENDBRANCH   7   8
ENDBRANCH   3   7
BRANCH   4  22
HETATM   22  O   UNL     1      39.853 -13.587   6.774  1.00  0.00    -0.360 OA
HETATM   23  H   UNL     1      39.379 -12.742   6.905  1.00  0.00     0.217 HD
ENDBRANCH   4  22
BRANCH   1  24
HETATM   24  C   UNL     1      40.419 -14.644   1.242  1.00  0.00     0.070 A 
HETATM   25  N   UNL     1      39.760 -13.808   0.394  1.00  0.00    -0.224 NA
HETATM   26  C   UNL     1      39.905 -14.028  -0.934  1.00  0.00     0.164 A 
HETATM   27  C   UNL     1      40.679 -15.043  -1.468  1.00  0.00     0.058 A 
HETATM   28  C   UNL     1      41.353 -15.884  -0.594  1.00  0.00     0.007 A 
HETATM   29  C   UNL     1      41.224 -15.684   0.778  1.00  0.00     0.032 A 
BRANCH  26  30
HETATM   30  O   UNL     1      39.262 -13.216  -1.844  1.00  0.00    -0.339 OA
HETATM   31  C   UNL     1      38.008 -13.728  -2.279  1.00  0.00     0.211 C 
ENDBRANCH  26  30
ENDBRANCH   1  24
TORSDOF 7
ENDMDL
MODEL 9
REMARK VINA RESULT:      -7.8      2.158      4.495
REMARK  7 active torsions:
REMARK  status: ('A' for Active; 'I' for Inactive)
REMARK    1  A    between atoms: O_2  and  C_3 
REMARK    2  A    between atoms: C_5  and  C_6 
REMARK    3  A    between atoms: C_8  and  C_9 
REMARK    4  A    between atoms: C_9  and  N_10 
REMARK    5  A    between atoms: N_10  and  C_13 
REMARK    6  A    between atoms: C_13  and  C_14 
REMARK    7  A    between atoms: C_24  and  O_25 
ROOT
HETATM    1  C   UNL     1      44.067 -17.927   4.962  1.00  0.00    -0.007 A 
HETATM    2  C   UNL     1      43.447 -16.678   4.753  1.00  0.00     0.025 A 
HETATM    3  C   UNL     1      43.432 -15.676   5.739  1.00  0.00     0.001 A 
HETATM    4  C   UNL     1      44.067 -15.930   6.954  1.00  0.00     0.073 A 
HETATM    5  C   UNL     1      44.708 -17.141   7.187  1.00  0.00     0.038 A 
HETATM    6  C   UNL     1      44.702 -18.131   6.198  1.00  0.00     0.016 A 
ENDROOT
BRANCH   3   7
HETATM    7  C   UNL     1      42.695 -14.394   5.488  1.00  0.00     0.274 C 
BRANCH   7   8
HETATM    8  N   UNL     1      41.387 -14.337   6.198  1.00  0.00    -0.067 N 
HETATM    9  H   UNL     1      41.466 -14.814   7.103  1.00  0.00     0.277 HD
HETATM   10  H   UNL     1      41.162 -13.359   6.418  1.00  0.00     0.277 HD
BRANCH   8  11
HETATM   11  C   UNL     1      40.234 -14.926   5.458  1.00  0.00     0.272 C 
BRANCH  11  12
HETATM   12  C   UNL     1      39.995 -14.159   4.183  1.00  0.00    -0.022 A 
HETATM   13  C   UNL     1      40.268 -14.721   2.901  1.00  0.00    -0.018 A 
HETATM   14  C   UNL     1      40.108 -13.898   1.756  1.00  0.00    -0.025 A 
HETATM   15  C   UNL     1      40.694 -16.057   2.687  1.00  0.00     0.013 A 
HETATM   16  C   UNL     1      40.378 -14.407   0.476  1.00  0.00     0.012 A 
HETATM   17  C   UNL     1      39.678 -12.572   1.899  1.00  0.00     0.012 A 
HETATM   18  C   UNL     1      40.802 -15.723   0.301  1.00  0.00     0.001 A 
HETATM   19  C   UNL     1      40.955 -16.548   1.406  1.00  0.00     0.001 A 
HETATM   20  C   UNL     1      39.404 -12.038   3.154  1.00  0.00     0.002 A 
HETATM   21  C   UNL     1      39.566 -12.822   4.289  1.00  0.00     0.010 A 
ENDBRANCH  11  12
ENDBRANCH   8  11
ENDBRANCH   7   8
ENDBRANCH   3   7
BRANCH   4  22
HETATM   22  O   UNL     1      44.014 -14.975   7.927  1.00  0.00    -0.360 OA
HETATM   23  H   UNL     1      44.696 -14.299   7.741  1.00  0.00     0.217 HD
ENDBRANCH   4  22
BRANCH   1  24
HETATM   24  C   UNL     1      44.002 -18.970   3.917  1.00  0.00     0.070 A 
HETATM   25  N   UNL     1      44.398 -20.208   4.321  1.00  0.00    -0.224 NA
HETATM   26  C   UNL     1      44.371 -21.201   3.401  1.00  0.00     0.164 A 
HETATM   27  C   UNL     1      43.964 -21.027   2.090  1.00  0.00     0.058 A 
HETATM   28  C   UNL     1      43.554 -19.764   1.692  1.00  0.00     0.007 A 
HETATM   29  C   UNL     1      43.571 -18.720   2.614  1.00  0.00     0.032 A 
BRANCH  26  30
HETATM   30  O   UNL     1      44.761 -22.477   3.749  1.00  0.00    -0.339 OA
HETATM   31  C   UNL     1      45.214 -22.588   5.092  1.00  0.00     0.211 C 
ENDBRANCH  26  30
ENDBRANCH   1  24
TORSDOF 7
ENDMDL
MODEL 10
REMARK VINA RESULT:      -7.7      2.739      6.156
REMARK  7 active torsions:
REMARK  status: ('A' for Active; 'I' for Inactive)
REMARK    1  A    between atoms: O_2  and  C_3 
REMARK    2  A    between atoms: C_5  and  C_6 
REMARK    3  A    between atoms: C_8  and  C_9 
REMARK    4  A    between atoms: C_9  and  N_10 
REMARK    5  A    between atoms: N_10  and  C_13 
REMARK    6  A    between atoms: C_13  and  C_14 
REMARK    7  A    between atoms: C_24  and  O_25 
ROOT
HETATM    1  C   UNL     1      40.861 -14.024   2.115  1.00  0.00    -0.007 A 
HETATM    2  C   UNL     1      40.399 -14.229   3.431  1.00  0.00     0.025 A 
HETATM    3  C   UNL     1      41.275 -14.313   4.528  1.00  0.00     0.001 A 
HETATM    4  C   UNL     1      42.643 -14.170   4.297  1.00  0.00     0.073 A 
HETATM    5  C   UNL     1      43.133 -13.943   3.015  1.00  0.00     0.038 A 
HETATM    6  C   UNL     1      42.246 -13.877   1.935  1.00  0.00     0.016 A 
ENDROOT
BRANCH   3   7
HETATM    7  C   UNL     1      40.734 -14.604   5.896  1.00  0.00     0.274 C 
BRANCH   7   8
HETATM    8  N   UNL     1      41.348 -15.815   6.508  1.00  0.00    -0.067 N 
HETATM    9  H   UNL     1      42.368 -15.712   6.524  1.00  0.00     0.277 HD
HETATM   10  H   UNL     1      41.060 -15.882   7.491  1.00  0.00     0.277 HD
BRANCH   8  11
HETATM   11  C   UNL     1      41.019 -17.106   5.836  1.00  0.00     0.272 C 
BRANCH  11  12
HETATM   12  C   UNL     1      42.288 -17.818   5.443  1.00  0.00    -0.022 A 
HETATM   13  C   UNL     1      42.640 -18.035   4.077  1.00  0.00    -0.018 A 
HETATM   14  C   UNL     1      43.802 -18.799   3.793  1.00  0.00    -0.025 A 
HETATM   15  C   UNL     1      41.902 -17.539   2.972  1.00  0.00     0.013 A 
HETATM   16  C   UNL     1      44.177 -19.048   2.465  1.00  0.00     0.012 A 
HETATM   17  C   UNL     1      44.580 -19.308   4.842  1.00  0.00     0.012 A 
HETATM   18  C   UNL     1      43.426 -18.551   1.401  1.00  0.00     0.001 A 
HETATM   19  C   UNL     1      42.293 -17.792   1.656  1.00  0.00     0.001 A 
HETATM   20  C   UNL     1      44.233 -19.080   6.170  1.00  0.00     0.002 A 
HETATM   21  C   UNL     1      43.093 -18.346   6.470  1.00  0.00     0.010 A 
ENDBRANCH  11  12
ENDBRANCH   8  11
ENDBRANCH   7   8
ENDBRANCH   3   7
BRANCH   4  22
HETATM   22  O   UNL     1      43.497 -14.294   5.353  1.00  0.00    -0.360 OA
HETATM   23  H   UNL     1      44.369 -14.587   5.020  1.00  0.00     0.217 HD
ENDBRANCH   4  22
BRANCH   1  24
HETATM   24  C   UNL     1      39.904 -14.006   0.989  1.00  0.00     0.070 A 
HETATM   25  N   UNL     1      40.468 -14.152  -0.241  1.00  0.00    -0.224 NA
HETATM   26  C   UNL     1      39.640 -14.131  -1.312  1.00  0.00     0.164 A 
HETATM   27  C   UNL     1      38.267 -13.975  -1.223  1.00  0.00     0.058 A 
HETATM   28  C   UNL     1      37.703 -13.837   0.036  1.00  0.00     0.007 A 
HETATM   29  C   UNL     1      38.528 -13.853   1.158  1.00  0.00     0.032 A 
BRANCH  26  30
HETATM   30  O   UNL     1      40.151 -14.272  -2.585  1.00  0.00    -0.339 OA
HETATM   31  C   UNL     1      40.740 -15.544  -2.825  1.00  0.00     0.211 C 
ENDBRANCH  26  30
ENDBRANCH   1  24
TORSDOF 7
ENDMDL
