MODEL 1
REMARK VINA RESULT:      -8.6      0.000      0.000
REMARK  5 active torsions:
REMARK  status: ('A' for Active; 'I' for Inactive)
REMARK    1  A    between atoms: O_2  and  C_3 
REMARK    2  A    between atoms: C_4  and  N_5 
REMARK       I    between atoms: N_5  and  C_6 
REMARK       I    between atoms: C_6  and  N_7 
REMARK    3  A    between atoms: N_7  and  N_8 
REMARK       I    between atoms: N_8  and  C_9 
REMARK    4  A    between atoms: C_9  and  C_10 
REMARK    5  A    between atoms: C_11  and  N_12 
ROOT
HETATM    1  N   UNL     1      42.551 -17.421   3.485  1.00  0.00    -0.262 N 
HETATM    2  C   UNL     1      43.560 -17.999   2.731  1.00  0.00     0.272 C 
HETATM    3  O   UNL     1      44.332 -17.363   2.022  1.00  0.00    -0.266 OA
HETATM    4  H   UNL     1      42.037 -17.956   4.181  1.00  0.00     0.190 HD
ENDROOT
BRANCH   1   5
HETATM    5  N   UNL     1      42.618 -16.033   3.706  1.00  0.00    -0.249 N 
HETATM    6  C   UNL     1      41.645 -15.193   3.210  1.00  0.00     0.339 C 
HETATM    7  N   UNL     1      41.120 -15.610   2.014  1.00  0.00    -0.305 N 
HETATM    8  O   UNL     1      41.346 -14.175   3.826  1.00  0.00    -0.245 OA
HETATM    9  H   UNL     1      41.722 -16.226   1.478  1.00  0.00     0.171 HD
HETATM   10  H   UNL     1      43.038 -15.741   4.585  1.00  0.00     0.192 HD
BRANCH   7  11
HETATM   11  C   UNL     1      40.070 -14.999   1.300  1.00  0.00     0.069 A 
HETATM   12  C   UNL     1      40.359 -14.439   0.044  1.00  0.00     0.095 A 
HETATM   13  C   UNL     1      39.341 -13.877  -0.733  1.00  0.00     0.039 A 
HETATM   14  C   UNL     1      38.036 -13.840  -0.244  1.00  0.00     0.003 A 
HETATM   15  C   UNL     1      37.748 -14.369   1.013  1.00  0.00     0.002 A 
HETATM   16  C   UNL     1      38.761 -14.948   1.782  1.00  0.00     0.032 A 
BRANCH  12  17
HETATM   17  O   UNL     1      41.663 -14.476  -0.389  1.00  0.00    -0.354 OA
HETATM   18  C   UNL     1      41.943 -13.460  -1.353  1.00  0.00     0.210 C 
ENDBRANCH  12  17
ENDBRANCH   7  11
ENDBRANCH   1   5
BRANCH   2  19
HETATM   19  C   UNL     1      43.770 -19.462   2.928  1.00  0.00     0.060 A 
HETATM   20  C   UNL     1      44.278 -20.085   4.083  1.00  0.00     0.054 A 
HETATM   21  C   UNL     1      44.631 -21.449   4.026  1.00  0.00     0.031 A 
HETATM   22  C   UNL     1      44.438 -22.191   2.859  1.00  0.00     0.002 A 
HETATM   23  C   UNL     1      43.892 -21.587   1.733  1.00  0.00     0.001 A 
HETATM   24  C   UNL     1      43.564 -20.233   1.767  1.00  0.00     0.019 A 
BRANCH  20  25
HETATM   25  N   UNL     1      44.399 -19.422   5.336  1.00  0.00    -0.332 N 
HETATM   26  C   UNL     1      45.308 -18.439   5.672  1.00  0.00     0.096 A 
HETATM   27  C   UNL     1      45.099 -18.060   6.980  1.00  0.00     0.019 A 
HETATM   28  C   UNL     1      44.014 -18.815   7.468  1.00  0.00     0.019 A 
HETATM   29  C   UNL     1      43.587 -19.622   6.437  1.00  0.00     0.096 A 
ENDBRANCH  20  25
ENDBRANCH   2  19
TORSDOF 5
ENDMDL
MODEL 2
REMARK VINA RESULT:      -8.2      6.948      9.725
REMARK  5 active torsions:
REMARK  status: ('A' for Active; 'I' for Inactive)
REMARK    1  A    between atoms: O_2  and  C_3 
REMARK    2  A    between atoms: C_4  and  N_5 
REMARK       I    between atoms: N_5  and  C_6 
REMARK       I    between atoms: C_6  and  N_7 
REMARK    3  A    between atoms: N_7  and  N_8 
REMARK       I    between atoms: N_8  and  C_9 
REMARK    4  A    between atoms: C_9  and  C_10 
REMARK    5  A    between atoms: C_11  and  N_12 
ROOT
HETATM    1  N   UNL     1      43.735 -12.300   8.923  1.00  0.00    -0.262 N 
HETATM    2  C   UNL     1      43.636 -11.015   9.429  1.00  0.00     0.272 C 
HETATM    3  O   UNL     1      44.603 -10.330   9.746  1.00  0.00    -0.266 OA
HETATM    4  H   UNL     1      42.930 -12.776   8.521  1.00  0.00     0.190 HD
ENDROOT
BRANCH   1   5
HETATM    5  N   UNL     1      44.992 -12.717   8.445  1.00  0.00    -0.249 N 
HETATM    6  C   UNL     1      45.087 -13.661   7.444  1.00  0.00     0.339 C 
HETATM    7  N   UNL     1      44.090 -14.601   7.482  1.00  0.00    -0.305 N 
HETATM    8  O   UNL     1      46.017 -13.611   6.646  1.00  0.00    -0.245 OA
HETATM    9  H   UNL     1      43.652 -14.719   8.389  1.00  0.00     0.171 HD
HETATM   10  H   UNL     1      45.727 -12.015   8.452  1.00  0.00     0.192 HD
BRANCH   7  11
HETATM   11  C   UNL     1      43.885 -15.644   6.558  1.00  0.00     0.069 A 
HETATM   12  C   UNL     1      43.083 -15.388   5.434  1.00  0.00     0.095 A 
HETATM   13  C   UNL     1      42.900 -16.369   4.454  1.00  0.00     0.039 A 
HETATM   14  C   UNL     1      43.489 -17.623   4.610  1.00  0.00     0.003 A 
HETATM   15  C   UNL     1      44.263 -17.893   5.738  1.00  0.00     0.002 A 
HETATM   16  C   UNL     1      44.462 -16.907   6.708  1.00  0.00     0.032 A 
BRANCH  12  17
HETATM   17  O   UNL     1      42.502 -14.146   5.331  1.00  0.00    -0.354 OA
HETATM   18  C   UNL     1      43.008 -13.402   4.221  1.00  0.00     0.210 C 
ENDBRANCH  12  17
ENDBRANCH   7  11
ENDBRANCH   1   5
BRANCH   2  19
HETATM   19  C   UNL     1      42.269 -10.419   9.444  1.00  0.00     0.060 A 
HETATM   20  C   UNL     1      41.518 -10.081  10.585  1.00  0.00     0.054 A 
HETATM   21  C   UNL     1      40.158  -9.743  10.434  1.00  0.00     0.031 A 
HETATM   22  C   UNL     1      39.567  -9.696   9.170  1.00  0.00     0.002 A 
HETATM   23  C   UNL     1      40.321  -9.984   8.039  1.00  0.00     0.001 A 
HETATM   24  C   UNL     1      41.661 -10.345   8.175  1.00  0.00     0.019 A 
BRANCH  20  25
HETATM   25  N   UNL     1      42.079 -10.002  11.890  1.00  0.00    -0.332 N 
HETATM   26  C   UNL     1      42.829  -8.967  12.411  1.00  0.00     0.096 A 
HETATM   27  C   UNL     1      43.186  -9.276  13.706  1.00  0.00     0.019 A 
HETATM   28  C   UNL     1      42.625 -10.533  14.007  1.00  0.00     0.019 A 
HETATM   29  C   UNL     1      41.932 -10.945  12.891  1.00  0.00     0.096 A 
ENDBRANCH  20  25
ENDBRANCH   2  19
TORSDOF 5
ENDMDL
MODEL 3
REMARK VINA RESULT:      -8.2      1.722      2.545
REMARK  5 active torsions:
REMARK  status: ('A' for Active; 'I' for Inactive)
REMARK    1  A    between atoms: O_2  and  C_3 
REMARK    2  A    between atoms: C_4  and  N_5 
REMARK       I    between atoms: N_5  and  C_6 
REMARK       I    between atoms: C_6  and  N_7 
REMARK    3  A    between atoms: N_7  and  N_8 
REMARK       I    between atoms: N_8  and  C_9 
REMARK    4  A    between atoms: C_9  and  C_10 
REMARK    5  A    between atoms: C_11  and  N_12 
ROOT
HETATM    1  N   UNL     1      41.225 -17.404   2.437  1.00  0.00    -0.262 N 
HETATM    2  C   UNL     1      42.562 -17.328   2.789  1.00  0.00     0.272 C 
HETATM    3  O   UNL     1      43.186 -16.275   2.877  1.00  0.00    -0.266 OA
HETATM    4  H   UNL     1      40.701 -18.271   2.530  1.00  0.00     0.190 HD
ENDROOT
BRANCH   1   5
HETATM    5  N   UNL     1      40.466 -16.221   2.505  1.00  0.00    -0.249 N 
HETATM    6  C   UNL     1      40.225 -15.473   1.372  1.00  0.00     0.339 C 
HETATM    7  N   UNL     1      41.254 -15.505   0.466  1.00  0.00    -0.305 N 
HETATM    8  O   UNL     1      39.174 -14.848   1.266  1.00  0.00    -0.245 OA
HETATM    9  H   UNL     1      42.159 -15.736   0.860  1.00  0.00     0.171 HD
HETATM   10  H   UNL     1      39.727 -16.203   3.202  1.00  0.00     0.192 HD
BRANCH   7  11
HETATM   11  C   UNL     1      41.272 -14.899  -0.805  1.00  0.00     0.069 A 
HETATM   12  C   UNL     1      41.735 -13.576  -0.903  1.00  0.00     0.095 A 
HETATM   13  C   UNL     1      41.832 -12.949  -2.150  1.00  0.00     0.039 A 
HETATM   14  C   UNL     1      41.434 -13.628  -3.301  1.00  0.00     0.003 A 
HETATM   15  C   UNL     1      40.947 -14.931  -3.207  1.00  0.00     0.002 A 
HETATM   16  C   UNL     1      40.868 -15.565  -1.964  1.00  0.00     0.032 A 
BRANCH  12  17
HETATM   17  O   UNL     1      42.094 -12.935   0.258  1.00  0.00    -0.354 OA
HETATM   18  C   UNL     1      42.132 -11.515   0.105  1.00  0.00     0.210 C 
ENDBRANCH  12  17
ENDBRANCH   7  11
ENDBRANCH   1   5
BRANCH   2  19
HETATM   19  C   UNL     1      43.205 -18.607   3.207  1.00  0.00     0.060 A 
HETATM   20  C   UNL     1      43.757 -18.890   4.469  1.00  0.00     0.054 A 
HETATM   21  C   UNL     1      44.530 -20.058   4.632  1.00  0.00     0.031 A 
HETATM   22  C   UNL     1      44.710 -20.951   3.574  1.00  0.00     0.002 A 
HETATM   23  C   UNL     1      44.125 -20.695   2.340  1.00  0.00     0.001 A 
HETATM   24  C   UNL     1      43.381 -19.530   2.157  1.00  0.00     0.019 A 
BRANCH  20  25
HETATM   25  N   UNL     1      43.525 -18.085   5.619  1.00  0.00    -0.332 N 
HETATM   26  C   UNL     1      42.320 -17.873   6.256  1.00  0.00     0.096 A 
HETATM   27  C   UNL     1      42.518 -17.029   7.327  1.00  0.00     0.019 A 
HETATM   28  C   UNL     1      43.892 -16.720   7.370  1.00  0.00     0.019 A 
HETATM   29  C   UNL     1      44.491 -17.397   6.331  1.00  0.00     0.096 A 
ENDBRANCH  20  25
ENDBRANCH   2  19
TORSDOF 5
ENDMDL
MODEL 4
REMARK VINA RESULT:      -8.2      1.979      3.247
REMARK  5 active torsions:
REMARK  status: ('A' for Active; 'I' for Inactive)
REMARK    1  A    between atoms: O_2  and  C_3 
REMARK    2  A    between atoms: C_4  and  N_5 
REMARK       I    between atoms: N_5  and  C_6 
REMARK       I    between atoms: C_6  and  N_7 
REMARK    3  A    between atoms: N_7  and  N_8 
REMARK       I    between atoms: N_8  and  C_9 
REMARK    4  A    between atoms: C_9  and  C_10 
REMARK    5  A    between atoms: C_11  and  N_12 
ROOT
HETATM    1  N   UNL     1      42.546 -16.615   0.817  1.00  0.00    -0.262 N 
HETATM    2  C   UNL     1      41.901 -17.678   1.427  1.00  0.00     0.272 C 
HETATM    3  O   UNL     1      40.769 -18.048   1.132  1.00  0.00    -0.266 OA
HETATM    4  H   UNL     1      43.537 -16.438   0.972  1.00  0.00     0.190 HD
ENDROOT
BRANCH   1   5
HETATM    5  N   UNL     1      42.025 -16.150  -0.404  1.00  0.00    -0.249 N 
HETATM    6  C   UNL     1      41.145 -15.089  -0.436  1.00  0.00     0.339 C 
HETATM    7  N   UNL     1      40.323 -15.027   0.659  1.00  0.00    -0.305 N 
HETATM    8  O   UNL     1      41.144 -14.327  -1.398  1.00  0.00    -0.245 OA
HETATM    9  H   UNL     1      40.194 -15.909   1.143  1.00  0.00     0.171 HD
HETATM   10  H   UNL     1      42.637 -16.232  -1.211  1.00  0.00     0.192 HD
BRANCH   7  11
HETATM   11  C   UNL     1      39.373 -14.025   0.940  1.00  0.00     0.069 A 
HETATM   12  C   UNL     1      39.734 -12.997   1.827  1.00  0.00     0.095 A 
HETATM   13  C   UNL     1      38.852 -11.944   2.090  1.00  0.00     0.039 A 
HETATM   14  C   UNL     1      37.591 -11.931   1.495  1.00  0.00     0.003 A 
HETATM   15  C   UNL     1      37.216 -12.963   0.635  1.00  0.00     0.002 A 
HETATM   16  C   UNL     1      38.105 -14.005   0.356  1.00  0.00     0.032 A 
BRANCH  12  17
HETATM   17  O   UNL     1      40.977 -13.062   2.410  1.00  0.00    -0.354 OA
HETATM   18  C   UNL     1      41.224 -11.958   3.283  1.00  0.00     0.210 C 
ENDBRANCH  12  17
ENDBRANCH   7  11
ENDBRANCH   1   5
BRANCH   2  19
HETATM   19  C   UNL     1      42.712 -18.473   2.393  1.00  0.00     0.060 A 
HETATM   20  C   UNL     1      43.015 -18.118   3.720  1.00  0.00     0.054 A 
HETATM   21  C   UNL     1      43.981 -18.864   4.425  1.00  0.00     0.031 A 
HETATM   22  C   UNL     1      44.599 -19.971   3.840  1.00  0.00     0.002 A 
HETATM   23  C   UNL     1      44.265 -20.351   2.545  1.00  0.00     0.001 A 
HETATM   24  C   UNL     1      43.331 -19.606   1.827  1.00  0.00     0.019 A 
BRANCH  20  25
HETATM   25  N   UNL     1      42.348 -17.072   4.417  1.00  0.00    -0.332 N 
HETATM   26  C   UNL     1      41.174 -17.169   5.137  1.00  0.00     0.096 A 
HETATM   27  C   UNL     1      40.860 -15.932   5.656  1.00  0.00     0.019 A 
HETATM   28  C   UNL     1      41.879 -15.041   5.265  1.00  0.00     0.019 A 
HETATM   29  C   UNL     1      42.791 -15.767   4.530  1.00  0.00     0.096 A 
ENDBRANCH  20  25
ENDBRANCH   2  19
TORSDOF 5
ENDMDL
MODEL 5
REMARK VINA RESULT:      -8.1      1.602      3.685
REMARK  5 active torsions:
REMARK  status: ('A' for Active; 'I' for Inactive)
REMARK    1  A    between atoms: O_2  and  C_3 
REMARK    2  A    between atoms: C_4  and  N_5 
REMARK       I    between atoms: N_5  and  C_6 
REMARK       I    between atoms: C_6  and  N_7 
REMARK    3  A    between atoms: N_7  and  N_8 
REMARK       I    between atoms: N_8  and  C_9 
REMARK    4  A    between atoms: C_9  and  C_10 
REMARK    5  A    between atoms: C_11  and  N_12 
ROOT
HETATM    1  N   UNL     1      42.179 -17.161   1.314  1.00  0.00    -0.262 N 
HETATM    2  C   UNL     1      43.424 -17.263   1.912  1.00  0.00     0.272 C 
HETATM    3  O   UNL     1      44.480 -17.032   1.333  1.00  0.00    -0.266 OA
HETATM    4  H   UNL     1      41.322 -17.202   1.863  1.00  0.00     0.190 HD
ENDROOT
BRANCH   1   5
HETATM    5  N   UNL     1      42.095 -16.452   0.102  1.00  0.00    -0.249 N 
HETATM    6  C   UNL     1      41.347 -15.297   0.012  1.00  0.00     0.339 C 
HETATM    7  N   UNL     1      40.233 -15.302   0.812  1.00  0.00    -0.305 N 
HETATM    8  O   UNL     1      41.698 -14.402  -0.750  1.00  0.00    -0.245 OA
HETATM    9  H   UNL     1      39.898 -16.225   1.065  1.00  0.00     0.171 HD
HETATM   10  H   UNL     1      42.919 -16.484  -0.492  1.00  0.00     0.192 HD
BRANCH   7  11
HETATM   11  C   UNL     1      39.319 -14.245   0.983  1.00  0.00     0.069 A 
HETATM   12  C   UNL     1      39.508 -13.372   2.068  1.00  0.00     0.095 A 
HETATM   13  C   UNL     1      38.667 -12.269   2.247  1.00  0.00     0.039 A 
HETATM   14  C   UNL     1      37.610 -12.053   1.363  1.00  0.00     0.003 A 
HETATM   15  C   UNL     1      37.399 -12.932   0.301  1.00  0.00     0.002 A 
HETATM   16  C   UNL     1      38.252 -14.023   0.110  1.00  0.00     0.032 A 
BRANCH  12  17
HETATM   17  O   UNL     1      40.548 -13.635   2.927  1.00  0.00    -0.354 OA
HETATM   18  C   UNL     1      40.107 -14.257   4.136  1.00  0.00     0.210 C 
ENDBRANCH  12  17
ENDBRANCH   7  11
ENDBRANCH   1   5
BRANCH   2  19
HETATM   19  C   UNL     1      43.428 -17.539   3.378  1.00  0.00     0.060 A 
HETATM   20  C   UNL     1      43.469 -18.806   3.989  1.00  0.00     0.054 A 
HETATM   21  C   UNL     1      43.235 -18.904   5.376  1.00  0.00     0.031 A 
HETATM   22  C   UNL     1      43.012 -17.762   6.148  1.00  0.00     0.002 A 
HETATM   23  C   UNL     1      43.019 -16.507   5.552  1.00  0.00     0.001 A 
HETATM   24  C   UNL     1      43.223 -16.397   4.177  1.00  0.00     0.019 A 
BRANCH  20  25
HETATM   25  N   UNL     1      43.797 -19.999   3.287  1.00  0.00    -0.332 N 
HETATM   26  C   UNL     1      44.721 -20.954   3.658  1.00  0.00     0.096 A 
HETATM   27  C   UNL     1      44.744 -21.952   2.708  1.00  0.00     0.019 A 
HETATM   28  C   UNL     1      43.792 -21.618   1.725  1.00  0.00     0.019 A 
HETATM   29  C   UNL     1      43.208 -20.432   2.114  1.00  0.00     0.096 A 
ENDBRANCH  20  25
ENDBRANCH   2  19
TORSDOF 5
ENDMDL
MODEL 6
REMARK VINA RESULT:      -8.1      5.741      8.190
REMARK  5 active torsions:
REMARK  status: ('A' for Active; 'I' for Inactive)
REMARK    1  A    between atoms: O_2  and  C_3 
REMARK    2  A    between atoms: C_4  and  N_5 
REMARK       I    between atoms: N_5  and  C_6 
REMARK       I    between atoms: C_6  and  N_7 
REMARK    3  A    between atoms: N_7  and  N_8 
REMARK       I    between atoms: N_8  and  C_9 
REMARK    4  A    between atoms: C_9  and  C_10 
REMARK    5  A    between atoms: C_11  and  N_12 
ROOT
HETATM    1  N   UNL     1      44.531 -14.193   7.618  1.00  0.00    -0.262 N 
HETATM    2  C   UNL     1      44.165 -14.560   6.334  1.00  0.00     0.272 C 
HETATM    3  O   UNL     1      44.246 -13.816   5.362  1.00  0.00    -0.266 OA
HETATM    4  H   UNL     1      44.602 -14.880   8.365  1.00  0.00     0.190 HD
ENDROOT
BRANCH   1   5
HETATM    5  N   UNL     1      45.330 -13.045   7.764  1.00  0.00    -0.249 N 
HETATM    6  C   UNL     1      45.145 -12.189   8.829  1.00  0.00     0.339 C 
HETATM    7  N   UNL     1      43.839 -12.098   9.237  1.00  0.00    -0.305 N 
HETATM    8  O   UNL     1      46.104 -11.585   9.298  1.00  0.00    -0.245 OA
HETATM    9  H   UNL     1      43.156 -12.344   8.530  1.00  0.00     0.171 HD
HETATM   10  H   UNL     1      46.287 -13.121   7.429  1.00  0.00     0.192 HD
BRANCH   7  11
HETATM   11  C   UNL     1      43.353 -11.360  10.334  1.00  0.00     0.069 A 
HETATM   12  C   UNL     1      42.620 -10.190  10.075  1.00  0.00     0.095 A 
HETATM   13  C   UNL     1      42.061  -9.455  11.126  1.00  0.00     0.039 A 
HETATM   14  C   UNL     1      42.263  -9.867  12.443  1.00  0.00     0.003 A 
HETATM   15  C   UNL     1      43.013 -11.011  12.708  1.00  0.00     0.002 A 
HETATM   16  C   UNL     1      43.555 -11.756  11.658  1.00  0.00     0.032 A 
BRANCH  12  17
HETATM   17  O   UNL     1      42.466  -9.808   8.764  1.00  0.00    -0.354 OA
HETATM   18  C   UNL     1      41.093  -9.748   8.375  1.00  0.00     0.210 C 
ENDBRANCH  12  17
ENDBRANCH   7  11
ENDBRANCH   1   5
BRANCH   2  19
HETATM   19  C   UNL     1      43.786 -15.990   6.141  1.00  0.00     0.060 A 
HETATM   20  C   UNL     1      42.526 -16.474   5.744  1.00  0.00     0.054 A 
HETATM   21  C   UNL     1      42.265 -17.857   5.832  1.00  0.00     0.031 A 
HETATM   22  C   UNL     1      43.252 -18.746   6.261  1.00  0.00     0.002 A 
HETATM   23  C   UNL     1      44.512 -18.273   6.608  1.00  0.00     0.001 A 
HETATM   24  C   UNL     1      44.775 -16.905   6.551  1.00  0.00     0.019 A 
BRANCH  20  25
HETATM   25  N   UNL     1      41.511 -15.642   5.195  1.00  0.00    -0.332 N 
HETATM   26  C   UNL     1      41.246 -15.426   3.858  1.00  0.00     0.096 A 
HETATM   27  C   UNL     1      40.186 -14.553   3.744  1.00  0.00     0.019 A 
HETATM   28  C   UNL     1      39.765 -14.230   5.049  1.00  0.00     0.019 A 
HETATM   29  C   UNL     1      40.574 -14.928   5.919  1.00  0.00     0.096 A 
ENDBRANCH  20  25
ENDBRANCH   2  19
TORSDOF 5
ENDMDL
MODEL 7
REMARK VINA RESULT:      -7.9      2.369      3.342
REMARK  5 active torsions:
REMARK  status: ('A' for Active; 'I' for Inactive)
REMARK    1  A    between atoms: O_2  and  C_3 
REMARK    2  A    between atoms: C_4  and  N_5 
REMARK       I    between atoms: N_5  and  C_6 
REMARK       I    between atoms: C_6  and  N_7 
REMARK    3  A    between atoms: N_7  and  N_8 
REMARK       I    between atoms: N_8  and  C_9 
REMARK    4  A    between atoms: C_9  and  C_10 
REMARK    5  A    between atoms: C_11  and  N_12 
ROOT
HETATM    1  N   UNL     1      42.665 -16.726   0.746  1.00  0.00    -0.262 N 
HETATM    2  C   UNL     1      41.947 -17.469   1.667  1.00  0.00     0.272 C 
HETATM    3  O   UNL     1      40.723 -17.458   1.748  1.00  0.00    -0.266 OA
HETATM    4  H   UNL     1      43.661 -16.880   0.601  1.00  0.00     0.190 HD
ENDROOT
BRANCH   1   5
HETATM    5  N   UNL     1      41.963 -16.193  -0.351  1.00  0.00    -0.249 N 
HETATM    6  C   UNL     1      41.489 -14.899  -0.322  1.00  0.00     0.339 C 
HETATM    7  N   UNL     1      41.106 -14.483   0.927  1.00  0.00    -0.305 N 
HETATM    8  O   UNL     1      41.427 -14.250  -1.361  1.00  0.00    -0.245 OA
HETATM    9  H   UNL     1      40.867 -15.232   1.568  1.00  0.00     0.171 HD
HETATM   10  H   UNL     1      42.240 -16.534  -1.267  1.00  0.00     0.192 HD
BRANCH   7  11
HETATM   11  C   UNL     1      40.647 -13.199   1.280  1.00  0.00     0.069 A 
HETATM   12  C   UNL     1      39.312 -13.061   1.694  1.00  0.00     0.095 A 
HETATM   13  C   UNL     1      38.824 -11.820   2.116  1.00  0.00     0.039 A 
HETATM   14  C   UNL     1      39.659 -10.703   2.092  1.00  0.00     0.003 A 
HETATM   15  C   UNL     1      40.977 -10.828   1.656  1.00  0.00     0.002 A 
HETATM   16  C   UNL     1      41.471 -12.072   1.254  1.00  0.00     0.032 A 
BRANCH  12  17
HETATM   17  O   UNL     1      38.518 -14.183   1.679  1.00  0.00    -0.354 OA
HETATM   18  C   UNL     1      37.454 -14.081   0.730  1.00  0.00     0.210 C 
ENDBRANCH  12  17
ENDBRANCH   7  11
ENDBRANCH   1   5
BRANCH   2  19
HETATM   19  C   UNL     1      42.734 -18.426   2.497  1.00  0.00     0.060 A 
HETATM   20  C   UNL     1      43.031 -18.296   3.866  1.00  0.00     0.054 A 
HETATM   21  C   UNL     1      43.976 -19.166   4.447  1.00  0.00     0.031 A 
HETATM   22  C   UNL     1      44.580 -20.175   3.694  1.00  0.00     0.002 A 
HETATM   23  C   UNL     1      44.251 -20.333   2.353  1.00  0.00     0.001 A 
HETATM   24  C   UNL     1      43.338 -19.464   1.759  1.00  0.00     0.019 A 
BRANCH  20  25
HETATM   25  N   UNL     1      42.376 -17.365   4.719  1.00  0.00    -0.332 N 
HETATM   26  C   UNL     1      42.821 -16.107   5.074  1.00  0.00     0.096 A 
HETATM   27  C   UNL     1      41.901 -15.526   5.919  1.00  0.00     0.019 A 
HETATM   28  C   UNL     1      40.841 -16.440   6.079  1.00  0.00     0.019 A 
HETATM   29  C   UNL     1      41.142 -17.546   5.317  1.00  0.00     0.096 A 
ENDBRANCH  20  25
ENDBRANCH   2  19
TORSDOF 5
ENDMDL
MODEL 8
REMARK VINA RESULT:      -7.9      5.630      7.935
REMARK  5 active torsions:
REMARK  status: ('A' for Active; 'I' for Inactive)
REMARK    1  A    between atoms: O_2  and  C_3 
REMARK    2  A    between atoms: C_4  and  N_5 
REMARK       I    between atoms: N_5  and  C_6 
REMARK       I    between atoms: C_6  and  N_7 
REMARK    3  A    between atoms: N_7  and  N_8 
REMARK       I    between atoms: N_8  and  C_9 
REMARK    4  A    between atoms: C_9  and  C_10 
REMARK    5  A    between atoms: C_11  and  N_12 
ROOT
HETATM    1  N   UNL     1      43.542 -13.774   6.972  1.00  0.00    -0.262 N 
HETATM    2  C   UNL     1      43.619 -14.005   5.608  1.00  0.00     0.272 C 
HETATM    3  O   UNL     1      44.557 -13.643   4.907  1.00  0.00    -0.266 OA
HETATM    4  H   UNL     1      42.833 -14.226   7.546  1.00  0.00     0.190 HD
ENDROOT
BRANCH   1   5
HETATM    5  N   UNL     1      44.725 -13.405   7.637  1.00  0.00    -0.249 N 
HETATM    6  C   UNL     1      44.677 -12.688   8.813  1.00  0.00     0.339 C 
HETATM    7  N   UNL     1      43.625 -11.812   8.877  1.00  0.00    -0.305 N 
HETATM    8  O   UNL     1      45.543 -12.857   9.666  1.00  0.00    -0.245 OA
HETATM    9  H   UNL     1      43.254 -11.528   7.977  1.00  0.00     0.171 HD
HETATM   10  H   UNL     1      45.505 -14.052   7.554  1.00  0.00     0.192 HD
BRANCH   7  11
HETATM   11  C   UNL     1      43.278 -10.996   9.972  1.00  0.00     0.069 A 
HETATM   12  C   UNL     1      41.987 -10.441  10.004  1.00  0.00     0.095 A 
HETATM   13  C   UNL     1      41.571  -9.676  11.099  1.00  0.00     0.039 A 
HETATM   14  C   UNL     1      42.454  -9.432  12.150  1.00  0.00     0.003 A 
HETATM   15  C   UNL     1      43.745  -9.956  12.111  1.00  0.00     0.002 A 
HETATM   16  C   UNL     1      44.155 -10.737  11.027  1.00  0.00     0.032 A 
BRANCH  12  17
HETATM   17  O   UNL     1      41.158 -10.687   8.936  1.00  0.00    -0.354 OA
HETATM   18  C   UNL     1      39.820 -10.980   9.345  1.00  0.00     0.210 C 
ENDBRANCH  12  17
ENDBRANCH   7  11
ENDBRANCH   1   5
BRANCH   2  19
HETATM   19  C   UNL     1      42.547 -14.863   5.026  1.00  0.00     0.060 A 
HETATM   20  C   UNL     1      42.423 -16.257   5.167  1.00  0.00     0.054 A 
HETATM   21  C   UNL     1      41.489 -16.946   4.367  1.00  0.00     0.031 A 
HETATM   22  C   UNL     1      40.660 -16.258   3.479  1.00  0.00     0.002 A 
HETATM   23  C   UNL     1      40.749 -14.875   3.374  1.00  0.00     0.001 A 
HETATM   24  C   UNL     1      41.687 -14.184   4.139  1.00  0.00     0.019 A 
BRANCH  20  25
HETATM   25  N   UNL     1      43.155 -17.010   6.128  1.00  0.00    -0.332 N 
HETATM   26  C   UNL     1      42.802 -17.250   7.440  1.00  0.00     0.096 A 
HETATM   27  C   UNL     1      43.779 -18.017   8.036  1.00  0.00     0.019 A 
HETATM   28  C   UNL     1      44.762 -18.279   7.061  1.00  0.00     0.019 A 
HETATM   29  C   UNL     1      44.346 -17.674   5.895  1.00  0.00     0.096 A 
ENDBRANCH  20  25
ENDBRANCH   2  19
TORSDOF 5
ENDMDL
MODEL 9
REMARK VINA RESULT:      -7.9      3.132      7.259
REMARK  5 active torsions:
REMARK  status: ('A' for Active; 'I' for Inactive)
REMARK    1  A    between atoms: O_2  and  C_3 
REMARK    2  A    between atoms: C_4  and  N_5 
REMARK       I    between atoms: N_5  and  C_6 
REMARK       I    between atoms: C_6  and  N_7 
REMARK    3  A    between atoms: N_7  and  N_8 
REMARK       I    between atoms: N_8  and  C_9 
REMARK    4  A    between atoms: C_9  and  C_10 
REMARK    5  A    between atoms: C_11  and  N_12 
ROOT
HETATM    1  N   UNL     1      39.509 -14.682   5.224  1.00  0.00    -0.262 N 
HETATM    2  C   UNL     1      39.600 -13.359   5.625  1.00  0.00     0.272 C 
HETATM    3  O   UNL     1      39.707 -13.007   6.795  1.00  0.00    -0.266 OA
HETATM    4  H   UNL     1      39.583 -14.944   4.243  1.00  0.00     0.190 HD
ENDROOT
BRANCH   1   5
HETATM    5  N   UNL     1      39.885 -15.671   6.151  1.00  0.00    -0.249 N 
HETATM    6  C   UNL     1      40.921 -16.537   5.876  1.00  0.00     0.339 C 
HETATM    7  N   UNL     1      41.033 -16.853   4.546  1.00  0.00    -0.305 N 
HETATM    8  O   UNL     1      41.621 -16.960   6.791  1.00  0.00    -0.245 OA
HETATM    9  H   UNL     1      40.180 -16.735   4.010  1.00  0.00     0.171 HD
HETATM   10  H   UNL     1      39.767 -15.431   7.132  1.00  0.00     0.192 HD
BRANCH   7  11
HETATM   11  C   UNL     1      42.028 -17.655   3.955  1.00  0.00     0.069 A 
HETATM   12  C   UNL     1      42.032 -17.786   2.557  1.00  0.00     0.095 A 
HETATM   13  C   UNL     1      43.036 -18.518   1.915  1.00  0.00     0.039 A 
HETATM   14  C   UNL     1      44.020 -19.155   2.671  1.00  0.00     0.003 A 
HETATM   15  C   UNL     1      44.005 -19.053   4.061  1.00  0.00     0.002 A 
HETATM   16  C   UNL     1      43.014 -18.304   4.701  1.00  0.00     0.032 A 
BRANCH  12  17
HETATM   17  O   UNL     1      41.030 -17.162   1.852  1.00  0.00    -0.354 OA
HETATM   18  C   UNL     1      41.466 -16.722   0.564  1.00  0.00     0.210 C 
ENDBRANCH  12  17
ENDBRANCH   7  11
ENDBRANCH   1   5
BRANCH   2  19
HETATM   19  C   UNL     1      39.705 -12.347   4.534  1.00  0.00     0.060 A 
HETATM   20  C   UNL     1      40.840 -12.084   3.746  1.00  0.00     0.054 A 
HETATM   21  C   UNL     1      40.848 -10.944   2.917  1.00  0.00     0.031 A 
HETATM   22  C   UNL     1      39.733 -10.108   2.837  1.00  0.00     0.002 A 
HETATM   23  C   UNL     1      38.594 -10.394   3.581  1.00  0.00     0.001 A 
HETATM   24  C   UNL     1      38.581 -11.504   4.425  1.00  0.00     0.019 A 
BRANCH  20  25
HETATM   25  N   UNL     1      41.968 -12.950   3.692  1.00  0.00    -0.332 N 
HETATM   26  C   UNL     1      42.869 -13.205   4.706  1.00  0.00     0.096 A 
HETATM   27  C   UNL     1      43.817 -14.096   4.253  1.00  0.00     0.019 A 
HETATM   28  C   UNL     1      43.486 -14.421   2.923  1.00  0.00     0.019 A 
HETATM   29  C   UNL     1      42.338 -13.728   2.611  1.00  0.00     0.096 A 
ENDBRANCH  20  25
ENDBRANCH   2  19
TORSDOF 5
ENDMDL
MODEL 10
REMARK VINA RESULT:      -7.7      2.289      7.586
REMARK  5 active torsions:
REMARK  status: ('A' for Active; 'I' for Inactive)
REMARK    1  A    between atoms: O_2  and  C_3 
REMARK    2  A    between atoms: C_4  and  N_5 
REMARK       I    between atoms: N_5  and  C_6 
REMARK       I    between atoms: C_6  and  N_7 
REMARK    3  A    between atoms: N_7  and  N_8 
REMARK       I    between atoms: N_8  and  C_9 
REMARK    4  A    between atoms: C_9  and  C_10 
REMARK    5  A    between atoms: C_11  and  N_12 
ROOT
HETATM    1  N   UNL     1      41.764 -15.512  -0.498  1.00  0.00    -0.262 N 
HETATM    2  C   UNL     1      41.104 -14.420  -1.037  1.00  0.00     0.272 C 
HETATM    3  O   UNL     1      39.935 -14.444  -1.407  1.00  0.00    -0.266 OA
HETATM    4  H   UNL     1      42.675 -15.415  -0.056  1.00  0.00     0.190 HD
ENDROOT
BRANCH   1   5
HETATM    5  N   UNL     1      40.979 -16.591  -0.052  1.00  0.00    -0.249 N 
HETATM    6  C   UNL     1      41.222 -17.180   1.171  1.00  0.00     0.339 C 
HETATM    7  N   UNL     1      42.546 -17.182   1.525  1.00  0.00    -0.305 N 
HETATM    8  O   UNL     1      40.291 -17.655   1.814  1.00  0.00    -0.245 OA
HETATM    9  H   UNL     1      43.193 -17.108   0.747  1.00  0.00     0.171 HD
HETATM   10  H   UNL     1      40.007 -16.590  -0.348  1.00  0.00     0.192 HD
BRANCH   7  11
HETATM   11  C   UNL     1      43.090 -17.649   2.737  1.00  0.00     0.069 A 
HETATM   12  C   UNL     1      43.604 -18.957   2.774  1.00  0.00     0.095 A 
HETATM   13  C   UNL     1      44.212 -19.447   3.934  1.00  0.00     0.039 A 
HETATM   14  C   UNL     1      44.278 -18.647   5.074  1.00  0.00     0.003 A 
HETATM   15  C   UNL     1      43.745 -17.359   5.052  1.00  0.00     0.002 A 
HETATM   16  C   UNL     1      43.155 -16.861   3.888  1.00  0.00     0.032 A 
BRANCH  12  17
HETATM   17  O   UNL     1      43.496 -19.719   1.636  1.00  0.00    -0.354 OA
HETATM   18  C   UNL     1      43.733 -21.106   1.888  1.00  0.00     0.210 C 
ENDBRANCH  12  17
ENDBRANCH   7  11
ENDBRANCH   1   5
BRANCH   2  19
HETATM   19  C   UNL     1      41.850 -13.129  -1.023  1.00  0.00     0.060 A 
HETATM   20  C   UNL     1      41.977 -12.249   0.067  1.00  0.00     0.054 A 
HETATM   21  C   UNL     1      42.519 -10.966  -0.148  1.00  0.00     0.031 A 
HETATM   22  C   UNL     1      42.970 -10.581  -1.412  1.00  0.00     0.002 A 
HETATM   23  C   UNL     1      42.889 -11.468  -2.479  1.00  0.00     0.001 A 
HETATM   24  C   UNL     1      42.331 -12.731  -2.287  1.00  0.00     0.019 A 
BRANCH  20  25
HETATM   25  N   UNL     1      41.641 -12.611   1.402  1.00  0.00    -0.332 N 
HETATM   26  C   UNL     1      40.436 -12.399   2.042  1.00  0.00     0.096 A 
HETATM   27  C   UNL     1      40.516 -12.892   3.326  1.00  0.00     0.019 A 
HETATM   28  C   UNL     1      41.803 -13.444   3.485  1.00  0.00     0.019 A 
HETATM   29  C   UNL     1      42.463 -13.283   2.287  1.00  0.00     0.096 A 
ENDBRANCH  20  25
ENDBRANCH   2  19
TORSDOF 5
ENDMDL
