MODEL 1
REMARK VINA RESULT:      -8.2      0.000      0.000
REMARK  7 active torsions:
REMARK  status: ('A' for Active; 'I' for Inactive)
REMARK    1  A    between atoms: O_2  and  C_3 
REMARK    2  A    between atoms: C_6  and  C_7 
REMARK    3  A    between atoms: C_7  and  C_8 
REMARK    4  A    between atoms: C_8  and  C_9 
REMARK    5  A    between atoms: C_9  and  O_10 
REMARK    6  A    between atoms: N_13  and  C_14 
REMARK    7  A    between atoms: C_14  and  N_15 
ROOT
HETATM    1  C   UNL     1      40.413 -15.550   1.874  1.00  0.00     0.175 C 
HETATM    2  C   UNL     1      40.350 -14.916   0.440  1.00  0.00     0.265 C 
HETATM    3  O   UNL     1      40.855 -15.282  -0.613  1.00  0.00    -0.269 OA
HETATM    4  N   UNL     1      39.566 -13.758   0.520  1.00  0.00    -0.289 N 
HETATM    5  C   UNL     1      39.469 -13.351   1.858  1.00  0.00     0.049 A 
HETATM    6  C   UNL     1      40.013 -14.338   2.695  1.00  0.00     0.014 A 
HETATM    7  C   UNL     1      38.975 -12.161   2.366  1.00  0.00     0.032 A 
HETATM    8  C   UNL     1      39.033 -11.969   3.751  1.00  0.00     0.021 A 
HETATM    9  C   UNL     1      39.574 -12.958   4.590  1.00  0.00     0.011 A 
HETATM   10 BR   UNL     1      39.631 -12.661   6.456  1.00  0.00    -0.051 Br
HETATM   11  C   UNL     1      40.063 -14.157   4.070  1.00  0.00     0.032 A 
ENDROOT
BRANCH   1  12
HETATM   12  C   UNL     1      41.792 -16.131   2.187  1.00  0.00     0.137 C 
BRANCH  12  13
HETATM   13  C   UNL     1      41.882 -17.617   1.862  1.00  0.00     0.163 C 
HETATM   14  O   UNL     1      41.238 -18.137   0.953  1.00  0.00    -0.292 OA
BRANCH  13  15
HETATM   15  C   UNL     1      42.803 -18.482   2.663  1.00  0.00     0.010 A 
HETATM   16  C   UNL     1      43.079 -18.251   4.015  1.00  0.00     0.018 A 
HETATM   17  C   UNL     1      43.954 -19.099   4.713  1.00  0.00     0.037 A 
HETATM   18  C   UNL     1      44.557 -20.178   4.066  1.00  0.00     0.068 A 
HETATM   19  C   UNL     1      44.286 -20.402   2.717  1.00  0.00     0.037 A 
HETATM   20  C   UNL     1      43.414 -19.565   2.019  1.00  0.00     0.018 A 
BRANCH  18  21
HETATM   21  O   UNL     1      45.424 -21.073   4.627  1.00  0.00    -0.356 OA
HETATM   22  C   UNL     1      44.900 -22.343   4.996  1.00  0.00     0.210 C 
ENDBRANCH  18  21
ENDBRANCH  13  15
ENDBRANCH  12  13
ENDBRANCH   1  12
BRANCH   1  23
HETATM   23  O   UNL     1      39.401 -16.525   2.106  1.00  0.00    -0.375 OA
HETATM   24  H   UNL     1      38.732 -16.179   2.718  1.00  0.00     0.211 HD
ENDBRANCH   1  23
BRANCH   4  25
HETATM   25  C   UNL     1      39.362 -12.887  -0.603  1.00  0.00     0.367 C 
BRANCH  25  26
HETATM   26  N   UNL     1      40.661 -12.551  -1.271  1.00  0.00    -0.055 N 
HETATM   27  H   UNL     1      41.241 -13.398  -1.104  1.00  0.00     0.281 HD
HETATM   28  C   UNL     1      40.573 -12.411  -2.768  1.00  0.00     0.237 C 
HETATM   29  C   UNL     1      41.983 -12.330  -3.340  1.00  0.00     0.028 C 
HETATM   30  C   UNL     1      42.785 -11.197  -2.709  1.00  0.00     0.003 C 
HETATM   31  C   UNL     1      42.781 -11.293  -1.186  1.00  0.00     0.028 C 
HETATM   32  C   UNL     1      41.369 -11.396  -0.627  1.00  0.00     0.237 C 
ENDBRANCH  25  26
ENDBRANCH   4  25
TORSDOF 7
ENDMDL
MODEL 2
REMARK VINA RESULT:      -8.1      2.040      2.806
REMARK  7 active torsions:
REMARK  status: ('A' for Active; 'I' for Inactive)
REMARK    1  A    between atoms: O_2  and  C_3 
REMARK    2  A    between atoms: C_6  and  C_7 
REMARK    3  A    between atoms: C_7  and  C_8 
REMARK    4  A    between atoms: C_8  and  C_9 
REMARK    5  A    between atoms: C_9  and  O_10 
REMARK    6  A    between atoms: N_13  and  C_14 
REMARK    7  A    between atoms: C_14  and  N_15 
ROOT
HETATM    1  C   UNL     1      40.830 -15.217   2.427  1.00  0.00     0.175 C 
HETATM    2  C   UNL     1      41.302 -15.315   0.933  1.00  0.00     0.265 C 
HETATM    3  O   UNL     1      42.120 -16.055   0.405  1.00  0.00    -0.269 OA
HETATM    4  N   UNL     1      40.601 -14.347   0.201  1.00  0.00    -0.289 N 
HETATM    5  C   UNL     1      40.068 -13.392   1.078  1.00  0.00     0.049 A 
HETATM    6  C   UNL     1      40.235 -13.821   2.405  1.00  0.00     0.014 A 
HETATM    7  C   UNL     1      39.493 -12.169   0.779  1.00  0.00     0.032 A 
HETATM    8  C   UNL     1      39.077 -11.365   1.846  1.00  0.00     0.021 A 
HETATM    9  C   UNL     1      39.240 -11.794   3.173  1.00  0.00     0.011 A 
HETATM   10 BR   UNL     1      38.663 -10.680   4.587  1.00  0.00    -0.051 Br
HETATM   11  C   UNL     1      39.815 -13.032   3.466  1.00  0.00     0.032 A 
ENDROOT
BRANCH   1  12
HETATM   12  C   UNL     1      41.982 -15.426   3.409  1.00  0.00     0.137 C 
BRANCH  12  13
HETATM   13  C   UNL     1      41.833 -16.714   4.210  1.00  0.00     0.163 C 
HETATM   14  O   UNL     1      41.031 -16.832   5.133  1.00  0.00    -0.292 OA
BRANCH  13  15
HETATM   15  C   UNL     1      42.678 -17.895   3.851  1.00  0.00     0.010 A 
HETATM   16  C   UNL     1      43.546 -18.514   4.757  1.00  0.00     0.018 A 
HETATM   17  C   UNL     1      44.314 -19.619   4.360  1.00  0.00     0.037 A 
HETATM   18  C   UNL     1      44.222 -20.111   3.057  1.00  0.00     0.068 A 
HETATM   19  C   UNL     1      43.361 -19.490   2.153  1.00  0.00     0.037 A 
HETATM   20  C   UNL     1      42.593 -18.392   2.544  1.00  0.00     0.018 A 
BRANCH  18  21
HETATM   21  O   UNL     1      44.911 -21.174   2.546  1.00  0.00    -0.356 OA
HETATM   22  C   UNL     1      44.222 -22.020   1.635  1.00  0.00     0.210 C 
ENDBRANCH  18  21
ENDBRANCH  13  15
ENDBRANCH  12  13
ENDBRANCH   1  12
BRANCH   1  23
HETATM   23  O   UNL     1      39.750 -16.092   2.736  1.00  0.00    -0.375 OA
HETATM   24  H   UNL     1      39.254 -16.316   1.932  1.00  0.00     0.211 HD
ENDBRANCH   1  23
BRANCH   4  25
HETATM   25  C   UNL     1      40.845 -14.110  -1.194  1.00  0.00     0.367 C 
BRANCH  25  26
HETATM   26  N   UNL     1      39.810 -14.780  -2.047  1.00  0.00    -0.055 N 
HETATM   27  H   UNL     1      39.375 -15.468  -1.399  1.00  0.00     0.281 HD
HETATM   28  C   UNL     1      38.690 -13.877  -2.490  1.00  0.00     0.237 C 
HETATM   29  C   UNL     1      37.591 -14.725  -3.118  1.00  0.00     0.028 C 
HETATM   30  C   UNL     1      38.122 -15.577  -4.266  1.00  0.00     0.003 C 
HETATM   31  C   UNL     1      39.322 -16.412  -3.831  1.00  0.00     0.028 C 
HETATM   32  C   UNL     1      40.404 -15.559  -3.184  1.00  0.00     0.237 C 
ENDBRANCH  25  26
ENDBRANCH   4  25
TORSDOF 7
ENDMDL
MODEL 3
REMARK VINA RESULT:      -8.0      1.281      1.641
REMARK  7 active torsions:
REMARK  status: ('A' for Active; 'I' for Inactive)
REMARK    1  A    between atoms: O_2  and  C_3 
REMARK    2  A    between atoms: C_6  and  C_7 
REMARK    3  A    between atoms: C_7  and  C_8 
REMARK    4  A    between atoms: C_8  and  C_9 
REMARK    5  A    between atoms: C_9  and  O_10 
REMARK    6  A    between atoms: N_13  and  C_14 
REMARK    7  A    between atoms: C_14  and  N_15 
ROOT
HETATM    1  C   UNL     1      40.938 -15.441   2.571  1.00  0.00     0.175 C 
HETATM    2  C   UNL     1      40.643 -15.306   1.035  1.00  0.00     0.265 C 
HETATM    3  O   UNL     1      41.159 -15.862   0.075  1.00  0.00    -0.269 OA
HETATM    4  N   UNL     1      39.611 -14.371   0.880  1.00  0.00    -0.289 N 
HETATM    5  C   UNL     1      39.497 -13.603   2.048  1.00  0.00     0.049 A 
HETATM    6  C   UNL     1      40.308 -14.149   3.055  1.00  0.00     0.014 A 
HETATM    7  C   UNL     1      38.764 -12.447   2.254  1.00  0.00     0.032 A 
HETATM    8  C   UNL     1      38.854 -11.832   3.508  1.00  0.00     0.021 A 
HETATM    9  C   UNL     1      39.662 -12.378   4.518  1.00  0.00     0.011 A 
HETATM   10 BR   UNL     1      39.755 -11.519   6.199  1.00  0.00    -0.051 Br
HETATM   11  C   UNL     1      40.393 -13.548   4.304  1.00  0.00     0.032 A 
ENDROOT
BRANCH   1  12
HETATM   12  C   UNL     1      42.432 -15.594   2.859  1.00  0.00     0.137 C 
BRANCH  12  13
HETATM   13  C   UNL     1      42.711 -16.651   3.921  1.00  0.00     0.163 C 
HETATM   14  O   UNL     1      42.529 -16.451   5.119  1.00  0.00    -0.292 OA
BRANCH  13  15
HETATM   15  C   UNL     1      43.206 -17.997   3.493  1.00  0.00     0.010 A 
HETATM   16  C   UNL     1      42.967 -18.527   2.221  1.00  0.00     0.018 A 
HETATM   17  C   UNL     1      43.459 -19.796   1.879  1.00  0.00     0.037 A 
HETATM   18  C   UNL     1      44.189 -20.543   2.805  1.00  0.00     0.068 A 
HETATM   19  C   UNL     1      44.421 -20.016   4.074  1.00  0.00     0.037 A 
HETATM   20  C   UNL     1      43.937 -18.752   4.419  1.00  0.00     0.018 A 
BRANCH  18  21
HETATM   21  O   UNL     1      44.720 -21.785   2.600  1.00  0.00    -0.356 OA
HETATM   22  C   UNL     1      44.671 -22.701   3.686  1.00  0.00     0.210 C 
ENDBRANCH  18  21
ENDBRANCH  13  15
ENDBRANCH  12  13
ENDBRANCH   1  12
BRANCH   1  23
HETATM   23  O   UNL     1      40.203 -16.487   3.197  1.00  0.00    -0.375 OA
HETATM   24  H   UNL     1      40.806 -17.112   3.631  1.00  0.00     0.211 HD
ENDBRANCH   1  23
BRANCH   4  25
HETATM   25  C   UNL     1      39.141 -13.950  -0.409  1.00  0.00     0.367 C 
BRANCH  25  26
HETATM   26  N   UNL     1      40.282 -13.589  -1.311  1.00  0.00    -0.055 N 
HETATM   27  H   UNL     1      41.076 -14.139  -0.922  1.00  0.00     0.281 HD
HETATM   28  C   UNL     1      40.125 -14.059  -2.733  1.00  0.00     0.237 C 
HETATM   29  C   UNL     1      41.444 -13.862  -3.468  1.00  0.00     0.028 C 
HETATM   30  C   UNL     1      41.921 -12.414  -3.396  1.00  0.00     0.003 C 
HETATM   31  C   UNL     1      41.979 -11.918  -1.955  1.00  0.00     0.028 C 
HETATM   32  C   UNL     1      40.663 -12.141  -1.223  1.00  0.00     0.237 C 
ENDBRANCH  25  26
ENDBRANCH   4  25
TORSDOF 7
ENDMDL
MODEL 4
REMARK VINA RESULT:      -7.9      1.890      2.665
REMARK  7 active torsions:
REMARK  status: ('A' for Active; 'I' for Inactive)
REMARK    1  A    between atoms: O_2  and  C_3 
REMARK    2  A    between atoms: C_6  and  C_7 
REMARK    3  A    between atoms: C_7  and  C_8 
REMARK    4  A    between atoms: C_8  and  C_9 
REMARK    5  A    between atoms: C_9  and  O_10 
REMARK    6  A    between atoms: N_13  and  C_14 
REMARK    7  A    between atoms: C_14  and  N_15 
ROOT
HETATM    1  C   UNL     1      40.872 -16.496   1.914  1.00  0.00     0.175 C 
HETATM    2  C   UNL     1      41.299 -15.237   1.081  1.00  0.00     0.265 C 
HETATM    3  O   UNL     1      41.395 -15.079  -0.129  1.00  0.00    -0.269 OA
HETATM    4  N   UNL     1      41.591 -14.206   1.985  1.00  0.00    -0.289 N 
HETATM    5  C   UNL     1      41.805 -14.750   3.259  1.00  0.00     0.049 A 
HETATM    6  C   UNL     1      41.461 -16.111   3.258  1.00  0.00     0.014 A 
HETATM    7  C   UNL     1      42.316 -14.132   4.388  1.00  0.00     0.032 A 
HETATM    8  C   UNL     1      42.481 -14.909   5.539  1.00  0.00     0.021 A 
HETATM    9  C   UNL     1      42.135 -16.270   5.541  1.00  0.00     0.011 A 
HETATM   10 BR   UNL     1      42.371 -17.286   7.118  1.00  0.00    -0.051 Br
HETATM   11  C   UNL     1      41.614 -16.884   4.400  1.00  0.00     0.032 A 
ENDROOT
BRANCH   1  12
HETATM   12  C   UNL     1      41.405 -17.795   1.309  1.00  0.00     0.137 C 
BRANCH  12  13
HETATM   13  C   UNL     1      42.920 -17.912   1.434  1.00  0.00     0.163 C 
HETATM   14  O   UNL     1      43.691 -17.085   0.953  1.00  0.00    -0.292 OA
BRANCH  13  15
HETATM   15  C   UNL     1      43.499 -19.066   2.188  1.00  0.00     0.010 A 
HETATM   16  C   UNL     1      44.148 -18.922   3.420  1.00  0.00     0.018 A 
HETATM   17  C   UNL     1      44.670 -20.045   4.080  1.00  0.00     0.037 A 
HETATM   18  C   UNL     1      44.551 -21.315   3.515  1.00  0.00     0.068 A 
HETATM   19  C   UNL     1      43.910 -21.456   2.286  1.00  0.00     0.037 A 
HETATM   20  C   UNL     1      43.385 -20.343   1.626  1.00  0.00     0.018 A 
BRANCH  18  21
HETATM   21  O   UNL     1      45.014 -22.483   4.051  1.00  0.00    -0.356 OA
HETATM   22  C   UNL     1      45.052 -22.579   5.469  1.00  0.00     0.210 C 
ENDBRANCH  18  21
ENDBRANCH  13  15
ENDBRANCH  12  13
ENDBRANCH   1  12
BRANCH   1  23
HETATM   23  O   UNL     1      39.466 -16.586   2.120  1.00  0.00    -0.375 OA
HETATM   24  H   UNL     1      39.268 -17.216   2.832  1.00  0.00     0.211 HD
ENDBRANCH   1  23
BRANCH   4  25
HETATM   25  C   UNL     1      42.088 -12.928   1.561  1.00  0.00     0.367 C 
BRANCH  25  26
HETATM   26  N   UNL     1      41.231 -12.344   0.479  1.00  0.00    -0.055 N 
HETATM   27  H   UNL     1      40.956 -13.176  -0.083  1.00  0.00     0.281 HD
HETATM   28  C   UNL     1      39.940 -11.740   0.965  1.00  0.00     0.237 C 
HETATM   29  C   UNL     1      39.060 -11.423  -0.237  1.00  0.00     0.028 C 
HETATM   30  C   UNL     1      39.771 -10.517  -1.236  1.00  0.00     0.003 C 
HETATM   31  C   UNL     1      41.124 -11.091  -1.643  1.00  0.00     0.028 C 
HETATM   32  C   UNL     1      41.987 -11.426  -0.435  1.00  0.00     0.237 C 
ENDBRANCH  25  26
ENDBRANCH   4  25
TORSDOF 7
ENDMDL
MODEL 5
REMARK VINA RESULT:      -7.8      2.807      5.258
REMARK  7 active torsions:
REMARK  status: ('A' for Active; 'I' for Inactive)
REMARK    1  A    between atoms: O_2  and  C_3 
REMARK    2  A    between atoms: C_6  and  C_7 
REMARK    3  A    between atoms: C_7  and  C_8 
REMARK    4  A    between atoms: C_8  and  C_9 
REMARK    5  A    between atoms: C_9  and  O_10 
REMARK    6  A    between atoms: N_13  and  C_14 
REMARK    7  A    between atoms: C_14  and  N_15 
ROOT
HETATM    1  C   UNL     1      42.044 -13.104   1.584  1.00  0.00     0.175 C 
HETATM    2  C   UNL     1      42.720 -13.548   2.928  1.00  0.00     0.265 C 
HETATM    3  O   UNL     1      43.647 -14.320   3.135  1.00  0.00    -0.269 OA
HETATM    4  N   UNL     1      42.065 -12.884   3.974  1.00  0.00    -0.289 N 
HETATM    5  C   UNL     1      40.823 -12.413   3.523  1.00  0.00     0.049 A 
HETATM    6  C   UNL     1      40.731 -12.579   2.132  1.00  0.00     0.014 A 
HETATM    7  C   UNL     1      39.775 -11.894   4.264  1.00  0.00     0.032 A 
HETATM    8  C   UNL     1      38.608 -11.535   3.580  1.00  0.00     0.021 A 
HETATM    9  C   UNL     1      38.515 -11.697   2.188  1.00  0.00     0.011 A 
HETATM   10 BR   UNL     1      36.922 -11.197   1.300  1.00  0.00    -0.051 Br
HETATM   11  C   UNL     1      39.579 -12.215   1.448  1.00  0.00     0.032 A 
ENDROOT
BRANCH   1  12
HETATM   12  C   UNL     1      41.927 -14.260   0.589  1.00  0.00     0.137 C 
BRANCH  12  13
HETATM   13  C   UNL     1      41.205 -15.463   1.184  1.00  0.00     0.163 C 
HETATM   14  O   UNL     1      39.980 -15.528   1.264  1.00  0.00    -0.292 OA
BRANCH  13  15
HETATM   15  C   UNL     1      42.010 -16.625   1.671  1.00  0.00     0.010 A 
HETATM   16  C   UNL     1      41.723 -17.304   2.861  1.00  0.00     0.018 A 
HETATM   17  C   UNL     1      42.517 -18.389   3.265  1.00  0.00     0.037 A 
HETATM   18  C   UNL     1      43.599 -18.800   2.487  1.00  0.00     0.068 A 
HETATM   19  C   UNL     1      43.887 -18.120   1.305  1.00  0.00     0.037 A 
HETATM   20  C   UNL     1      43.099 -17.042   0.896  1.00  0.00     0.018 A 
BRANCH  18  21
HETATM   21  O   UNL     1      44.447 -19.835   2.767  1.00  0.00    -0.356 OA
HETATM   22  C   UNL     1      44.713 -20.107   4.137  1.00  0.00     0.210 C 
ENDBRANCH  18  21
ENDBRANCH  13  15
ENDBRANCH  12  13
ENDBRANCH   1  12
BRANCH   1  23
HETATM   23  O   UNL     1      42.681 -11.987   0.972  1.00  0.00    -0.375 OA
HETATM   24  H   UNL     1      43.115 -11.435   1.643  1.00  0.00     0.211 HD
ENDBRANCH   1  23
BRANCH   4  25
HETATM   25  C   UNL     1      42.383 -13.119   5.354  1.00  0.00     0.367 C 
BRANCH  25  26
HETATM   26  N   UNL     1      42.364 -14.583   5.674  1.00  0.00    -0.055 N 
HETATM   27  H   UNL     1      42.522 -15.031   4.748  1.00  0.00     0.281 HD
HETATM   28  C   UNL     1      43.501 -15.046   6.545  1.00  0.00     0.237 C 
HETATM   29  C   UNL     1      43.512 -16.568   6.578  1.00  0.00     0.028 C 
HETATM   30  C   UNL     1      42.173 -17.133   7.043  1.00  0.00     0.003 C 
HETATM   31  C   UNL     1      41.018 -16.577   6.217  1.00  0.00     0.028 C 
HETATM   32  C   UNL     1      41.030 -15.056   6.171  1.00  0.00     0.237 C 
ENDBRANCH  25  26
ENDBRANCH   4  25
TORSDOF 7
ENDMDL
MODEL 6
REMARK VINA RESULT:      -7.8      1.940      2.745
REMARK  7 active torsions:
REMARK  status: ('A' for Active; 'I' for Inactive)
REMARK    1  A    between atoms: O_2  and  C_3 
REMARK    2  A    between atoms: C_6  and  C_7 
REMARK    3  A    between atoms: C_7  and  C_8 
REMARK    4  A    between atoms: C_8  and  C_9 
REMARK    5  A    between atoms: C_9  and  O_10 
REMARK    6  A    between atoms: N_13  and  C_14 
REMARK    7  A    between atoms: C_14  and  N_15 
ROOT
HETATM    1  C   UNL     1      40.879 -15.755   1.943  1.00  0.00     0.175 C 
HETATM    2  C   UNL     1      40.897 -15.341   0.429  1.00  0.00     0.265 C 
HETATM    3  O   UNL     1      41.528 -15.802  -0.513  1.00  0.00    -0.269 OA
HETATM    4  N   UNL     1      40.013 -14.265   0.271  1.00  0.00    -0.289 N 
HETATM    5  C   UNL     1      39.757 -13.683   1.521  1.00  0.00     0.049 A 
HETATM    6  C   UNL     1      40.302 -14.484   2.537  1.00  0.00     0.014 A 
HETATM    7  C   UNL     1      39.119 -12.488   1.803  1.00  0.00     0.032 A 
HETATM    8  C   UNL     1      39.029 -12.096   3.143  1.00  0.00     0.021 A 
HETATM    9  C   UNL     1      39.571 -12.898   4.162  1.00  0.00     0.011 A 
HETATM   10 BR   UNL     1      39.428 -12.335   5.961  1.00  0.00    -0.051 Br
HETATM   11  C   UNL     1      40.207 -14.105   3.869  1.00  0.00     0.032 A 
ENDROOT
BRANCH   1  12
HETATM   12  C   UNL     1      42.267 -16.148   2.449  1.00  0.00     0.137 C 
BRANCH  12  13
HETATM   13  C   UNL     1      42.447 -17.659   2.529  1.00  0.00     0.163 C 
HETATM   14  O   UNL     1      42.252 -18.403   1.570  1.00  0.00    -0.292 OA
BRANCH  13  15
HETATM   15  C   UNL     1      42.900 -18.269   3.818  1.00  0.00     0.010 A 
HETATM   16  C   UNL     1      43.931 -19.212   3.893  1.00  0.00     0.018 A 
HETATM   17  C   UNL     1      44.311 -19.748   5.133  1.00  0.00     0.037 A 
HETATM   18  C   UNL     1      43.664 -19.348   6.303  1.00  0.00     0.068 A 
HETATM   19  C   UNL     1      42.634 -18.413   6.226  1.00  0.00     0.037 A 
HETATM   20  C   UNL     1      42.253 -17.874   4.996  1.00  0.00     0.018 A 
BRANCH  18  21
HETATM   21  O   UNL     1      43.936 -19.791   7.567  1.00  0.00    -0.356 OA
HETATM   22  C   UNL     1      43.551 -21.122   7.887  1.00  0.00     0.210 C 
ENDBRANCH  18  21
ENDBRANCH  13  15
ENDBRANCH  12  13
ENDBRANCH   1  12
BRANCH   1  23
HETATM   23  O   UNL     1      39.936 -16.781   2.236  1.00  0.00    -0.375 OA
HETATM   24  H   UNL     1      39.055 -16.534   1.913  1.00  0.00     0.211 HD
ENDBRANCH   1  23
BRANCH   4  25
HETATM   25  C   UNL     1      39.843 -13.587  -0.983  1.00  0.00     0.367 C 
BRANCH  25  26
HETATM   26  N   UNL     1      39.184 -14.476  -1.995  1.00  0.00    -0.055 N 
HETATM   27  H   UNL     1      39.002 -15.350  -1.461  1.00  0.00     0.281 HD
HETATM   28  C   UNL     1      37.835 -13.997  -2.460  1.00  0.00     0.237 C 
HETATM   29  C   UNL     1      37.171 -15.101  -3.272  1.00  0.00     0.028 C 
HETATM   30  C   UNL     1      38.048 -15.551  -4.437  1.00  0.00     0.003 C 
HETATM   31  C   UNL     1      39.446 -15.936  -3.965  1.00  0.00     0.028 C 
HETATM   32  C   UNL     1      40.090 -14.835  -3.135  1.00  0.00     0.237 C 
ENDBRANCH  25  26
ENDBRANCH   4  25
TORSDOF 7
ENDMDL
MODEL 7
REMARK VINA RESULT:      -7.4      3.117      7.676
REMARK  7 active torsions:
REMARK  status: ('A' for Active; 'I' for Inactive)
REMARK    1  A    between atoms: O_2  and  C_3 
REMARK    2  A    between atoms: C_6  and  C_7 
REMARK    3  A    between atoms: C_7  and  C_8 
REMARK    4  A    between atoms: C_8  and  C_9 
REMARK    5  A    between atoms: C_9  and  O_10 
REMARK    6  A    between atoms: N_13  and  C_14 
REMARK    7  A    between atoms: C_14  and  N_15 
ROOT
HETATM    1  C   UNL     1      41.316 -16.455   5.078  1.00  0.00     0.175 C 
HETATM    2  C   UNL     1      42.710 -17.133   4.836  1.00  0.00     0.265 C 
HETATM    3  O   UNL     1      43.652 -17.307   5.598  1.00  0.00    -0.269 OA
HETATM    4  N   UNL     1      42.752 -17.557   3.501  1.00  0.00    -0.289 N 
HETATM    5  C   UNL     1      41.764 -16.885   2.767  1.00  0.00     0.049 A 
HETATM    6  C   UNL     1      40.931 -16.167   3.639  1.00  0.00     0.014 A 
HETATM    7  C   UNL     1      41.588 -16.840   1.394  1.00  0.00     0.032 A 
HETATM    8  C   UNL     1      40.545 -16.051   0.896  1.00  0.00     0.021 A 
HETATM    9  C   UNL     1      39.708 -15.335   1.767  1.00  0.00     0.011 A 
HETATM   10 BR   UNL     1      38.309 -14.283   1.055  1.00  0.00    -0.051 Br
HETATM   11  C   UNL     1      39.889 -15.392   3.151  1.00  0.00     0.032 A 
ENDROOT
BRANCH   1  12
HETATM   12  C   UNL     1      41.421 -15.231   5.989  1.00  0.00     0.137 C 
BRANCH  12  13
HETATM   13  C   UNL     1      42.386 -14.185   5.443  1.00  0.00     0.163 C 
HETATM   14  O   UNL     1      43.543 -14.077   5.842  1.00  0.00    -0.292 OA
BRANCH  13  15
HETATM   15  C   UNL     1      41.920 -13.262   4.362  1.00  0.00     0.010 A 
HETATM   16  C   UNL     1      40.850 -12.375   4.527  1.00  0.00     0.018 A 
HETATM   17  C   UNL     1      40.461 -11.533   3.475  1.00  0.00     0.037 A 
HETATM   18  C   UNL     1      41.134 -11.572   2.253  1.00  0.00     0.068 A 
HETATM   19  C   UNL     1      42.195 -12.461   2.088  1.00  0.00     0.037 A 
HETATM   20  C   UNL     1      42.590 -13.299   3.132  1.00  0.00     0.018 A 
BRANCH  18  21
HETATM   21  O   UNL     1      40.855 -10.810   1.153  1.00  0.00    -0.356 OA
HETATM   22  C   UNL     1      40.776 -11.478  -0.100  1.00  0.00     0.210 C 
ENDBRANCH  18  21
ENDBRANCH  13  15
ENDBRANCH  12  13
ENDBRANCH   1  12
BRANCH   1  23
HETATM   23  O   UNL     1      40.328 -17.355   5.570  1.00  0.00    -0.375 OA
HETATM   24  H   UNL     1      40.320 -18.170   5.043  1.00  0.00     0.211 HD
ENDBRANCH   1  23
BRANCH   4  25
HETATM   25  C   UNL     1      43.920 -18.154   2.919  1.00  0.00     0.367 C 
BRANCH  25  26
HETATM   26  N   UNL     1      43.901 -19.645   3.073  1.00  0.00    -0.055 N 
HETATM   27  H   UNL     1      42.988 -19.825   3.539  1.00  0.00     0.281 HD
HETATM   28  C   UNL     1      43.847 -20.405   1.774  1.00  0.00     0.237 C 
HETATM   29  C   UNL     1      43.572 -21.873   2.071  1.00  0.00     0.028 C 
HETATM   30  C   UNL     1      44.603 -22.459   3.030  1.00  0.00     0.003 C 
HETATM   31  C   UNL     1      44.721 -21.621   4.300  1.00  0.00     0.028 C 
HETATM   32  C   UNL     1      44.973 -20.152   3.991  1.00  0.00     0.237 C 
ENDBRANCH  25  26
ENDBRANCH   4  25
TORSDOF 7
ENDMDL
MODEL 8
REMARK VINA RESULT:      -7.4      2.634      3.401
REMARK  7 active torsions:
REMARK  status: ('A' for Active; 'I' for Inactive)
REMARK    1  A    between atoms: O_2  and  C_3 
REMARK    2  A    between atoms: C_6  and  C_7 
REMARK    3  A    between atoms: C_7  and  C_8 
REMARK    4  A    between atoms: C_8  and  C_9 
REMARK    5  A    between atoms: C_9  and  O_10 
REMARK    6  A    between atoms: N_13  and  C_14 
REMARK    7  A    between atoms: C_14  and  N_15 
ROOT
HETATM    1  C   UNL     1      40.623 -15.555   2.200  1.00  0.00     0.175 C 
HETATM    2  C   UNL     1      40.511 -15.123   0.695  1.00  0.00     0.265 C 
HETATM    3  O   UNL     1      41.061 -15.569  -0.302  1.00  0.00    -0.269 OA
HETATM    4  N   UNL     1      39.611 -14.050   0.626  1.00  0.00    -0.289 N 
HETATM    5  C   UNL     1      39.460 -13.484   1.900  1.00  0.00     0.049 A 
HETATM    6  C   UNL     1      40.093 -14.294   2.856  1.00  0.00     0.014 A 
HETATM    7  C   UNL     1      38.843 -12.295   2.250  1.00  0.00     0.032 A 
HETATM    8  C   UNL     1      38.866 -11.920   3.598  1.00  0.00     0.021 A 
HETATM    9  C   UNL     1      39.496 -12.730   4.556  1.00  0.00     0.011 A 
HETATM   10 BR   UNL     1      39.503 -12.189   6.368  1.00  0.00    -0.051 Br
HETATM   11  C   UNL     1      40.110 -13.931   4.196  1.00  0.00     0.032 A 
ENDROOT
BRANCH   1  12
HETATM   12  C   UNL     1      42.050 -15.946   2.582  1.00  0.00     0.137 C 
BRANCH  12  13
HETATM   13  C   UNL     1      42.125 -16.591   3.960  1.00  0.00     0.163 C 
HETATM   14  O   UNL     1      41.568 -17.654   4.226  1.00  0.00    -0.292 OA
BRANCH  13  15
HETATM   15  C   UNL     1      42.923 -15.922   5.034  1.00  0.00     0.010 A 
HETATM   16  C   UNL     1      43.132 -16.492   6.294  1.00  0.00     0.018 A 
HETATM   17  C   UNL     1      43.891 -15.814   7.260  1.00  0.00     0.037 A 
HETATM   18  C   UNL     1      44.443 -14.564   6.975  1.00  0.00     0.068 A 
HETATM   19  C   UNL     1      44.229 -13.995   5.721  1.00  0.00     0.037 A 
HETATM   20  C   UNL     1      43.477 -14.666   4.755  1.00  0.00     0.018 A 
BRANCH  18  21
HETATM   21  O   UNL     1      45.197 -13.803   7.823  1.00  0.00    -0.356 OA
HETATM   22  C   UNL     1      44.545 -12.729   8.488  1.00  0.00     0.210 C 
ENDBRANCH  18  21
ENDBRANCH  13  15
ENDBRANCH  12  13
ENDBRANCH   1  12
BRANCH   1  23
HETATM   23  O   UNL     1      39.713 -16.589   2.560  1.00  0.00    -0.375 OA
HETATM   24  H   UNL     1      40.002 -17.025   3.378  1.00  0.00     0.211 HD
ENDBRANCH   1  23
BRANCH   4  25
HETATM   25  C   UNL     1      39.332 -13.358  -0.600  1.00  0.00     0.367 C 
BRANCH  25  26
HETATM   26  N   UNL     1      40.597 -12.989  -1.316  1.00  0.00    -0.055 N 
HETATM   27  H   UNL     1      41.236 -13.779  -1.091  1.00  0.00     0.281 HD
HETATM   28  C   UNL     1      40.482 -12.976  -2.817  1.00  0.00     0.237 C 
HETATM   29  C   UNL     1      41.876 -12.846  -3.417  1.00  0.00     0.028 C 
HETATM   30  C   UNL     1      42.605 -11.613  -2.892  1.00  0.00     0.003 C 
HETATM   31  C   UNL     1      42.625 -11.586  -1.367  1.00  0.00     0.028 C 
HETATM   32  C   UNL     1      41.230 -11.741  -0.777  1.00  0.00     0.237 C 
ENDBRANCH  25  26
ENDBRANCH   4  25
TORSDOF 7
ENDMDL
MODEL 9
REMARK VINA RESULT:      -7.3      3.206      4.365
REMARK  7 active torsions:
REMARK  status: ('A' for Active; 'I' for Inactive)
REMARK    1  A    between atoms: O_2  and  C_3 
REMARK    2  A    between atoms: C_6  and  C_7 
REMARK    3  A    between atoms: C_7  and  C_8 
REMARK    4  A    between atoms: C_8  and  C_9 
REMARK    5  A    between atoms: C_9  and  O_10 
REMARK    6  A    between atoms: N_13  and  C_14 
REMARK    7  A    between atoms: C_14  and  N_15 
ROOT
HETATM    1  C   UNL     1      40.897 -16.036   2.198  1.00  0.00     0.175 C 
HETATM    2  C   UNL     1      41.273 -15.925   0.678  1.00  0.00     0.265 C 
HETATM    3  O   UNL     1      42.016 -16.613  -0.009  1.00  0.00    -0.269 OA
HETATM    4  N   UNL     1      40.583 -14.827   0.147  1.00  0.00    -0.289 N 
HETATM    5  C   UNL     1      40.157 -13.994   1.192  1.00  0.00     0.049 A 
HETATM    6  C   UNL     1      40.380 -14.628   2.425  1.00  0.00     0.014 A 
HETATM    7  C   UNL     1      39.632 -12.715   1.118  1.00  0.00     0.032 A 
HETATM    8  C   UNL     1      39.326 -12.065   2.319  1.00  0.00     0.021 A 
HETATM    9  C   UNL     1      39.545 -12.699   3.553  1.00  0.00     0.011 A 
HETATM   10 BR   UNL     1      39.116 -11.788   5.153  1.00  0.00    -0.051 Br
HETATM   11  C   UNL     1      40.068 -13.991   3.618  1.00  0.00     0.032 A 
ENDROOT
BRANCH   1  12
HETATM   12  C   UNL     1      42.094 -16.443   3.058  1.00  0.00     0.137 C 
BRANCH  12  13
HETATM   13  C   UNL     1      41.754 -16.476   4.543  1.00  0.00     0.163 C 
HETATM   14  O   UNL     1      40.767 -17.059   4.985  1.00  0.00    -0.292 OA
BRANCH  13  15
HETATM   15  C   UNL     1      42.665 -15.791   5.512  1.00  0.00     0.010 A 
HETATM   16  C   UNL     1      43.366 -16.475   6.512  1.00  0.00     0.018 A 
HETATM   17  C   UNL     1      44.207 -15.776   7.391  1.00  0.00     0.037 A 
HETATM   18  C   UNL     1      44.351 -14.392   7.279  1.00  0.00     0.068 A 
HETATM   19  C   UNL     1      43.648 -13.712   6.287  1.00  0.00     0.037 A 
HETATM   20  C   UNL     1      42.813 -14.403   5.407  1.00  0.00     0.018 A 
BRANCH  18  21
HETATM   21  O   UNL     1      45.133 -13.597   8.068  1.00  0.00    -0.356 OA
HETATM   22  C   UNL     1      44.542 -12.414   8.590  1.00  0.00     0.210 C 
ENDBRANCH  18  21
ENDBRANCH  13  15
ENDBRANCH  12  13
ENDBRANCH   1  12
BRANCH   1  23
HETATM   23  O   UNL     1      39.792 -16.898   2.446  1.00  0.00    -0.375 OA
HETATM   24  H   UNL     1      39.671 -17.515   1.706  1.00  0.00     0.211 HD
ENDBRANCH   1  23
BRANCH   4  25
HETATM   25  C   UNL     1      40.755 -14.392  -1.209  1.00  0.00     0.367 C 
BRANCH  25  26
HETATM   26  N   UNL     1      39.665 -14.921  -2.092  1.00  0.00    -0.055 N 
HETATM   27  H   UNL     1      39.215 -15.651  -1.502  1.00  0.00     0.281 HD
HETATM   28  C   UNL     1      38.578 -13.927  -2.403  1.00  0.00     0.237 C 
HETATM   29  C   UNL     1      37.422 -14.653  -3.077  1.00  0.00     0.028 C 
HETATM   30  C   UNL     1      37.877 -15.407  -4.323  1.00  0.00     0.003 C 
HETATM   31  C   UNL     1      39.047 -16.336  -4.015  1.00  0.00     0.028 C 
HETATM   32  C   UNL     1      40.187 -15.605  -3.320  1.00  0.00     0.237 C 
ENDBRANCH  25  26
ENDBRANCH   4  25
TORSDOF 7
ENDMDL
MODEL 10
REMARK VINA RESULT:      -7.3      4.841      8.793
REMARK  7 active torsions:
REMARK  status: ('A' for Active; 'I' for Inactive)
REMARK    1  A    between atoms: O_2  and  C_3 
REMARK    2  A    between atoms: C_6  and  C_7 
REMARK    3  A    between atoms: C_7  and  C_8 
REMARK    4  A    between atoms: C_8  and  C_9 
REMARK    5  A    between atoms: C_9  and  O_10 
REMARK    6  A    between atoms: N_13  and  C_14 
REMARK    7  A    between atoms: C_14  and  N_15 
ROOT
HETATM    1  C   UNL     1      40.901 -13.254   5.491  1.00  0.00     0.175 C 
HETATM    2  C   UNL     1      42.297 -13.935   5.717  1.00  0.00     0.265 C 
HETATM    3  O   UNL     1      43.239 -13.601   6.423  1.00  0.00    -0.269 OA
HETATM    4  N   UNL     1      42.338 -15.093   4.929  1.00  0.00    -0.289 N 
HETATM    5  C   UNL     1      41.349 -15.019   3.938  1.00  0.00     0.049 A 
HETATM    6  C   UNL     1      40.515 -13.917   4.182  1.00  0.00     0.014 A 
HETATM    7  C   UNL     1      41.172 -15.832   2.831  1.00  0.00     0.032 A 
HETATM    8  C   UNL     1      40.127 -15.520   1.953  1.00  0.00     0.021 A 
HETATM    9  C   UNL     1      39.290 -14.420   2.197  1.00  0.00     0.011 A 
HETATM   10 BR   UNL     1      37.889 -14.034   0.989  1.00  0.00    -0.051 Br
HETATM   11  C   UNL     1      39.471 -13.610   3.320  1.00  0.00     0.032 A 
ENDROOT
BRANCH   1  12
HETATM   12  C   UNL     1      41.005 -11.729   5.451  1.00  0.00     0.137 C 
BRANCH  12  13
HETATM   13  C   UNL     1      40.136 -11.062   6.511  1.00  0.00     0.163 C 
HETATM   14  O   UNL     1      38.999 -10.658   6.278  1.00  0.00    -0.292 OA
BRANCH  13  15
HETATM   15  C   UNL     1      40.673 -10.907   7.898  1.00  0.00     0.010 A 
HETATM   16  C   UNL     1      42.022 -10.652   8.168  1.00  0.00     0.018 A 
HETATM   17  C   UNL     1      42.466 -10.516   9.492  1.00  0.00     0.037 A 
HETATM   18  C   UNL     1      41.567 -10.637  10.553  1.00  0.00     0.068 A 
HETATM   19  C   UNL     1      40.225 -10.897  10.283  1.00  0.00     0.037 A 
HETATM   20  C   UNL     1      39.777 -11.030   8.967  1.00  0.00     0.018 A 
BRANCH  18  21
HETATM   21  O   UNL     1      41.868 -10.528  11.882  1.00  0.00    -0.356 OA
HETATM   22  C   UNL     1      40.934 -11.069  12.808  1.00  0.00     0.210 C 
ENDBRANCH  18  21
ENDBRANCH  13  15
ENDBRANCH  12  13
ENDBRANCH   1  12
BRANCH   1  23
HETATM   23  O   UNL     1      39.915 -13.658   6.434  1.00  0.00    -0.375 OA
HETATM   24  H   UNL     1      40.245 -13.541   7.340  1.00  0.00     0.211 HD
ENDBRANCH   1  23
BRANCH   4  25
HETATM   25  C   UNL     1      43.507 -15.921   4.839  1.00  0.00     0.367 C 
BRANCH  25  26
HETATM   26  N   UNL     1      43.424 -17.082   5.784  1.00  0.00    -0.055 N 
HETATM   27  H   UNL     1      42.399 -17.235   5.883  1.00  0.00     0.281 HD
HETATM   28  C   UNL     1      43.973 -18.372   5.235  1.00  0.00     0.237 C 
HETATM   29  C   UNL     1      43.596 -19.509   6.176  1.00  0.00     0.028 C 
HETATM   30  C   UNL     1      44.075 -19.247   7.600  1.00  0.00     0.003 C 
HETATM   31  C   UNL     1      43.596 -17.891   8.107  1.00  0.00     0.028 C 
HETATM   32  C   UNL     1      43.957 -16.765   7.149  1.00  0.00     0.237 C 
ENDBRANCH  25  26
ENDBRANCH   4  25
TORSDOF 7
ENDMDL
