MODEL 1
REMARK VINA RESULT:      -8.3      0.000      0.000
REMARK  6 active torsions:
REMARK  status: ('A' for Active; 'I' for Inactive)
REMARK    1  A    between atoms: C_7  and  S_8 
REMARK    2  A    between atoms: S_8  and  C_9 
REMARK    3  A    between atoms: C_9  and  C_10 
REMARK    4  A    between atoms: C_18  and  C_19 
REMARK    5  A    between atoms: C_26  and  C_27 
REMARK    6  A    between atoms: C_27  and  O_28 
ROOT
HETATM    1  C   UNL     1      39.084 -12.731   6.471  1.00  0.00     0.070 C 
HETATM    2  C   UNL     1      40.140 -13.630   5.877  1.00  0.00     0.037 A 
HETATM    3  N   UNL     1      40.369 -14.818   6.560  1.00  0.00    -0.192 N 
HETATM    4  C   UNL     1      41.294 -15.721   6.188  1.00  0.00     0.726 A 
HETATM    5  N   UNL     1      42.069 -15.478   5.090  1.00  0.00    -0.082 N 
HETATM    6  N   UNL     1      42.970 -16.466   4.895  1.00  0.00    -0.128 NA
HETATM    7  C   UNL     1      42.627 -17.312   5.877  1.00  0.00     0.226 A 
HETATM    8  N   UNL     1      41.615 -16.879   6.699  1.00  0.00    -0.035 NA
HETATM    9  C   UNL     1      41.940 -14.284   4.242  1.00  0.00     0.203 A 
HETATM   10  C   UNL     1      40.866 -13.341   4.769  1.00  0.00     0.070 A 
HETATM   11  H   UNL     1      39.800 -15.011   7.381  1.00  0.00     0.184 HD
ENDROOT
BRANCH   7  12
HETATM   12  S   UNL     1      43.346 -18.883   6.088  1.00  0.00    -0.083 SA
BRANCH  12  13
HETATM   13  C   UNL     1      44.645 -18.868   4.823  1.00  0.00     0.123 C 
BRANCH  13  14
HETATM   14  C   UNL     1      44.443 -19.981   3.819  1.00  0.00    -0.027 A 
HETATM   15  C   UNL     1      44.000 -19.756   2.505  1.00  0.00     0.041 A 
HETATM   16 CL   UNL     1      43.602 -18.176   1.930  1.00  0.00    -0.084 Cl
HETATM   17  C   UNL     1      43.866 -20.822   1.609  1.00  0.00     0.024 A 
HETATM   18  C   UNL     1      44.169 -22.123   2.009  1.00  0.00     0.002 A 
HETATM   19  C   UNL     1      44.610 -22.362   3.307  1.00  0.00     0.001 A 
HETATM   20  C   UNL     1      44.750 -21.301   4.203  1.00  0.00     0.009 A 
ENDBRANCH  13  14
ENDBRANCH  12  13
ENDBRANCH   7  12
BRANCH   9  21
HETATM   21  C   UNL     1      41.704 -14.695   2.788  1.00  0.00    -0.028 A 
HETATM   22  C   UNL     1      42.370 -14.056   1.726  1.00  0.00     0.011 A 
HETATM   23  C   UNL     1      42.149 -14.457   0.406  1.00  0.00     0.024 A 
HETATM   24  C   UNL     1      41.268 -15.500   0.135  1.00  0.00     0.034 A 
HETATM   25 CL   UNL     1      40.997 -15.993  -1.490  1.00  0.00    -0.084 Cl
HETATM   26  C   UNL     1      40.603 -16.148   1.174  1.00  0.00     0.024 A 
HETATM   27  C   UNL     1      40.820 -15.747   2.494  1.00  0.00     0.011 A 
ENDBRANCH   9  21
BRANCH  10  28
HETATM   28  C   UNL     1      40.616 -12.117   3.981  1.00  0.00     0.293 C 
HETATM   29  O   UNL     1      41.263 -11.087   4.086  1.00  0.00    -0.259 OA
BRANCH  28  30
HETATM   30  O   UNL     1      39.572 -12.326   3.141  1.00  0.00    -0.323 OA
HETATM   31  C   UNL     1      38.635 -11.246   3.119  1.00  0.00     0.213 C 
ENDBRANCH  28  30
ENDBRANCH  10  28
TORSDOF 6
ENDMDL
MODEL 2
REMARK VINA RESULT:      -8.2      3.446      5.182
REMARK  6 active torsions:
REMARK  status: ('A' for Active; 'I' for Inactive)
REMARK    1  A    between atoms: C_7  and  S_8 
REMARK    2  A    between atoms: S_8  and  C_9 
REMARK    3  A    between atoms: C_9  and  C_10 
REMARK    4  A    between atoms: C_18  and  C_19 
REMARK    5  A    between atoms: C_26  and  C_27 
REMARK    6  A    between atoms: C_27  and  O_28 
ROOT
HETATM    1  C   UNL     1      41.003 -14.416  -3.349  1.00  0.00     0.070 C 
HETATM    2  C   UNL     1      40.729 -14.645  -1.883  1.00  0.00     0.037 A 
HETATM    3  N   UNL     1      41.526 -15.603  -1.267  1.00  0.00    -0.192 N 
HETATM    4  C   UNL     1      41.399 -15.955   0.025  1.00  0.00     0.726 A 
HETATM    5  N   UNL     1      40.436 -15.362   0.792  1.00  0.00    -0.082 N 
HETATM    6  N   UNL     1      40.423 -15.870   2.043  1.00  0.00    -0.128 NA
HETATM    7  C   UNL     1      41.461 -16.716   1.980  1.00  0.00     0.226 A 
HETATM    8  N   UNL     1      42.071 -16.806   0.752  1.00  0.00    -0.035 NA
HETATM    9  C   UNL     1      39.526 -14.316   0.304  1.00  0.00     0.203 A 
HETATM   10  C   UNL     1      39.768 -14.010  -1.168  1.00  0.00     0.070 A 
HETATM   11  H   UNL     1      42.246 -16.052  -1.828  1.00  0.00     0.184 HD
ENDROOT
BRANCH   7  12
HETATM   12  S   UNL     1      42.062 -17.608   3.349  1.00  0.00    -0.083 SA
BRANCH  12  13
HETATM   13  C   UNL     1      43.754 -17.993   2.825  1.00  0.00     0.123 C 
BRANCH  13  14
HETATM   14  C   UNL     1      44.033 -19.476   2.924  1.00  0.00    -0.027 A 
HETATM   15  C   UNL     1      44.604 -20.073   4.060  1.00  0.00     0.041 A 
HETATM   16 CL   UNL     1      45.081 -19.148   5.439  1.00  0.00    -0.084 Cl
HETATM   17  C   UNL     1      44.807 -21.457   4.109  1.00  0.00     0.024 A 
HETATM   18  C   UNL     1      44.445 -22.262   3.030  1.00  0.00     0.002 A 
HETATM   19  C   UNL     1      43.877 -21.686   1.897  1.00  0.00     0.001 A 
HETATM   20  C   UNL     1      43.669 -20.306   1.846  1.00  0.00     0.009 A 
ENDBRANCH  13  14
ENDBRANCH  12  13
ENDBRANCH   7  12
BRANCH   9  21
HETATM   21  C   UNL     1      39.631 -13.074   1.190  1.00  0.00    -0.028 A 
HETATM   22  C   UNL     1      40.840 -12.367   1.325  1.00  0.00     0.011 A 
HETATM   23  C   UNL     1      40.910 -11.227   2.130  1.00  0.00     0.024 A 
HETATM   24  C   UNL     1      39.774 -10.779   2.800  1.00  0.00     0.034 A 
HETATM   25 CL   UNL     1      39.861  -9.375   3.790  1.00  0.00    -0.084 Cl
HETATM   26  C   UNL     1      38.567 -11.462   2.674  1.00  0.00     0.024 A 
HETATM   27  C   UNL     1      38.495 -12.605   1.873  1.00  0.00     0.011 A 
ENDBRANCH   9  21
BRANCH  10  28
HETATM   28  C   UNL     1      38.937 -12.947  -1.769  1.00  0.00     0.293 C 
HETATM   29  O   UNL     1      39.300 -11.791  -1.916  1.00  0.00    -0.259 OA
BRANCH  28  30
HETATM   30  O   UNL     1      37.733 -13.461  -2.122  1.00  0.00    -0.323 OA
HETATM   31  C   UNL     1      37.446 -13.331  -3.517  1.00  0.00     0.213 C 
ENDBRANCH  28  30
ENDBRANCH  10  28
TORSDOF 6
ENDMDL
MODEL 3
REMARK VINA RESULT:      -8.1      3.964      5.605
REMARK  6 active torsions:
REMARK  status: ('A' for Active; 'I' for Inactive)
REMARK    1  A    between atoms: C_7  and  S_8 
REMARK    2  A    between atoms: S_8  and  C_9 
REMARK    3  A    between atoms: C_9  and  C_10 
REMARK    4  A    between atoms: C_18  and  C_19 
REMARK    5  A    between atoms: C_26  and  C_27 
REMARK    6  A    between atoms: C_27  and  O_28 
ROOT
HETATM    1  C   UNL     1      39.848 -15.756  -3.636  1.00  0.00     0.070 C 
HETATM    2  C   UNL     1      40.323 -15.207  -2.313  1.00  0.00     0.037 A 
HETATM    3  N   UNL     1      41.027 -16.097  -1.512  1.00  0.00    -0.192 N 
HETATM    4  C   UNL     1      41.497 -15.786  -0.291  1.00  0.00     0.726 A 
HETATM    5  N   UNL     1      41.275 -14.537   0.217  1.00  0.00    -0.082 N 
HETATM    6  N   UNL     1      41.774 -14.419   1.466  1.00  0.00    -0.128 NA
HETATM    7  C   UNL     1      42.353 -15.618   1.618  1.00  0.00     0.226 A 
HETATM    8  N   UNL     1      42.187 -16.488   0.567  1.00  0.00    -0.035 NA
HETATM    9  C   UNL     1      40.570 -13.469  -0.507  1.00  0.00     0.203 A 
HETATM   10  C   UNL     1      40.086 -13.947  -1.870  1.00  0.00     0.070 A 
HETATM   11  H   UNL     1      41.199 -17.031  -1.878  1.00  0.00     0.184 HD
ENDROOT
BRANCH   7  12
HETATM   12  S   UNL     1      43.306 -16.059   3.006  1.00  0.00    -0.083 SA
BRANCH  12  13
HETATM   13  C   UNL     1      42.446 -17.545   3.588  1.00  0.00     0.123 C 
BRANCH  13  14
HETATM   14  C   UNL     1      43.251 -18.792   3.298  1.00  0.00    -0.027 A 
HETATM   15  C   UNL     1      44.275 -19.256   4.141  1.00  0.00     0.041 A 
HETATM   16 CL   UNL     1      44.735 -18.409   5.575  1.00  0.00    -0.084 Cl
HETATM   17  C   UNL     1      44.963 -20.436   3.840  1.00  0.00     0.024 A 
HETATM   18  C   UNL     1      44.642 -21.167   2.697  1.00  0.00     0.002 A 
HETATM   19  C   UNL     1      43.630 -20.722   1.852  1.00  0.00     0.001 A 
HETATM   20  C   UNL     1      42.938 -19.547   2.152  1.00  0.00     0.009 A 
ENDBRANCH  13  14
ENDBRANCH  12  13
ENDBRANCH   7  12
BRANCH   9  21
HETATM   21  C   UNL     1      41.452 -12.224  -0.597  1.00  0.00    -0.028 A 
HETATM   22  C   UNL     1      42.620 -12.204  -1.380  1.00  0.00     0.011 A 
HETATM   23  C   UNL     1      43.404 -11.051  -1.457  1.00  0.00     0.024 A 
HETATM   24  C   UNL     1      43.026  -9.906  -0.760  1.00  0.00     0.034 A 
HETATM   25 CL   UNL     1      43.993  -8.486  -0.856  1.00  0.00    -0.084 Cl
HETATM   26  C   UNL     1      41.871  -9.904   0.017  1.00  0.00     0.024 A 
HETATM   27  C   UNL     1      41.086 -11.057   0.099  1.00  0.00     0.011 A 
ENDBRANCH   9  21
BRANCH  10  28
HETATM   28  C   UNL     1      39.391 -12.952  -2.712  1.00  0.00     0.293 C 
HETATM   29  O   UNL     1      39.936 -12.274  -3.568  1.00  0.00    -0.259 OA
BRANCH  28  30
HETATM   30  O   UNL     1      38.077 -12.922  -2.382  1.00  0.00    -0.323 OA
HETATM   31  C   UNL     1      37.204 -13.055  -3.507  1.00  0.00     0.213 C 
ENDBRANCH  28  30
ENDBRANCH  10  28
TORSDOF 6
ENDMDL
MODEL 4
REMARK VINA RESULT:      -7.9      3.813      5.153
REMARK  6 active torsions:
REMARK  status: ('A' for Active; 'I' for Inactive)
REMARK    1  A    between atoms: C_7  and  S_8 
REMARK    2  A    between atoms: S_8  and  C_9 
REMARK    3  A    between atoms: C_9  and  C_10 
REMARK    4  A    between atoms: C_18  and  C_19 
REMARK    5  A    between atoms: C_26  and  C_27 
REMARK    6  A    between atoms: C_27  and  O_28 
ROOT
HETATM    1  C   UNL     1      42.675 -10.069  -0.073  1.00  0.00     0.070 C 
HETATM    2  C   UNL     1      42.320 -11.534  -0.134  1.00  0.00     0.037 A 
HETATM    3  N   UNL     1      42.270 -12.190   1.091  1.00  0.00    -0.192 N 
HETATM    4  C   UNL     1      41.999 -13.501   1.220  1.00  0.00     0.726 A 
HETATM    5  N   UNL     1      41.766 -14.253   0.103  1.00  0.00    -0.082 N 
HETATM    6  N   UNL     1      41.560 -15.550   0.419  1.00  0.00    -0.128 NA
HETATM    7  C   UNL     1      41.608 -15.491   1.758  1.00  0.00     0.226 A 
HETATM    8  N   UNL     1      41.893 -14.254   2.282  1.00  0.00    -0.035 NA
HETATM    9  C   UNL     1      41.758 -13.713  -1.264  1.00  0.00     0.203 A 
HETATM   10  C   UNL     1      42.080 -12.225  -1.276  1.00  0.00     0.070 A 
HETATM   11  H   UNL     1      42.442 -11.641   1.930  1.00  0.00     0.184 HD
ENDROOT
BRANCH   7  12
HETATM   12  S   UNL     1      41.278 -16.851   2.794  1.00  0.00    -0.083 SA
BRANCH  12  13
HETATM   13  C   UNL     1      42.881 -17.095   3.604  1.00  0.00     0.123 C 
BRANCH  13  14
HETATM   14  C   UNL     1      43.439 -18.470   3.309  1.00  0.00    -0.027 A 
HETATM   15  C   UNL     1      44.331 -19.134   4.167  1.00  0.00     0.041 A 
HETATM   16 CL   UNL     1      44.907 -18.411   5.628  1.00  0.00    -0.084 Cl
HETATM   17  C   UNL     1      44.788 -20.420   3.860  1.00  0.00     0.024 A 
HETATM   18  C   UNL     1      44.363 -21.060   2.696  1.00  0.00     0.002 A 
HETATM   19  C   UNL     1      43.479 -20.416   1.836  1.00  0.00     0.001 A 
HETATM   20  C   UNL     1      43.017 -19.134   2.142  1.00  0.00     0.009 A 
ENDBRANCH  13  14
ENDBRANCH  12  13
ENDBRANCH   7  12
BRANCH   9  21
HETATM   21  C   UNL     1      40.429 -14.035  -1.947  1.00  0.00    -0.028 A 
HETATM   22  C   UNL     1      39.206 -13.558  -1.440  1.00  0.00     0.011 A 
HETATM   23  C   UNL     1      38.004 -13.853  -2.089  1.00  0.00     0.024 A 
HETATM   24  C   UNL     1      38.013 -14.621  -3.250  1.00  0.00     0.034 A 
HETATM   25 CL   UNL     1      36.533 -14.984  -4.048  1.00  0.00    -0.084 Cl
HETATM   26  C   UNL     1      39.213 -15.098  -3.771  1.00  0.00     0.024 A 
HETATM   27  C   UNL     1      40.416 -14.807  -3.123  1.00  0.00     0.011 A 
ENDBRANCH   9  21
BRANCH  10  28
HETATM   28  C   UNL     1      42.068 -11.555  -2.592  1.00  0.00     0.293 C 
HETATM   29  O   UNL     1      42.920 -11.712  -3.452  1.00  0.00    -0.259 OA
BRANCH  28  30
HETATM   30  O   UNL     1      40.976 -10.757  -2.683  1.00  0.00    -0.323 OA
HETATM   31  C   UNL     1      40.247 -10.926  -3.901  1.00  0.00     0.213 C 
ENDBRANCH  28  30
ENDBRANCH  10  28
TORSDOF 6
ENDMDL
MODEL 5
REMARK VINA RESULT:      -7.7      2.403      2.860
REMARK  6 active torsions:
REMARK  status: ('A' for Active; 'I' for Inactive)
REMARK    1  A    between atoms: C_7  and  S_8 
REMARK    2  A    between atoms: S_8  and  C_9 
REMARK    3  A    between atoms: C_9  and  C_10 
REMARK    4  A    between atoms: C_18  and  C_19 
REMARK    5  A    between atoms: C_26  and  C_27 
REMARK    6  A    between atoms: C_27  and  O_28 
ROOT
HETATM    1  C   UNL     1      39.064 -12.968   5.983  1.00  0.00     0.070 C 
HETATM    2  C   UNL     1      39.738 -13.505   4.744  1.00  0.00     0.037 A 
HETATM    3  N   UNL     1      40.131 -14.836   4.805  1.00  0.00    -0.192 N 
HETATM    4  C   UNL     1      40.772 -15.468   3.805  1.00  0.00     0.726 A 
HETATM    5  N   UNL     1      41.071 -14.784   2.661  1.00  0.00    -0.082 N 
HETATM    6  N   UNL     1      41.753 -15.560   1.790  1.00  0.00    -0.128 NA
HETATM    7  C   UNL     1      41.762 -16.727   2.449  1.00  0.00     0.226 A 
HETATM    8  N   UNL     1      41.184 -16.702   3.696  1.00  0.00    -0.035 NA
HETATM    9  C   UNL     1      40.706 -13.381   2.423  1.00  0.00     0.203 A 
HETATM   10  C   UNL     1      39.992 -12.780   3.627  1.00  0.00     0.070 A 
HETATM   11  H   UNL     1      39.915 -15.356   5.653  1.00  0.00     0.184 HD
ENDROOT
BRANCH   7  12
HETATM   12  S   UNL     1      42.395 -18.205   1.782  1.00  0.00    -0.083 SA
BRANCH  12  13
HETATM   13  C   UNL     1      43.995 -18.334   2.623  1.00  0.00     0.123 C 
BRANCH  13  14
HETATM   14  C   UNL     1      44.267 -19.755   3.067  1.00  0.00    -0.027 A 
HETATM   15  C   UNL     1      44.717 -20.081   4.357  1.00  0.00     0.041 A 
HETATM   16 CL   UNL     1      45.043 -18.871   5.547  1.00  0.00    -0.084 Cl
HETATM   17  C   UNL     1      44.919 -21.416   4.722  1.00  0.00     0.024 A 
HETATM   18  C   UNL     1      44.676 -22.442   3.809  1.00  0.00     0.002 A 
HETATM   19  C   UNL     1      44.228 -22.135   2.528  1.00  0.00     0.001 A 
HETATM   20  C   UNL     1      44.022 -20.804   2.160  1.00  0.00     0.009 A 
ENDBRANCH  13  14
ENDBRANCH  12  13
ENDBRANCH   7  12
BRANCH   9  21
HETATM   21  C   UNL     1      39.894 -13.260   1.133  1.00  0.00    -0.028 A 
HETATM   22  C   UNL     1      40.381 -12.553   0.020  1.00  0.00     0.011 A 
HETATM   23  C   UNL     1      39.627 -12.467  -1.153  1.00  0.00     0.024 A 
HETATM   24  C   UNL     1      38.384 -13.090  -1.227  1.00  0.00     0.034 A 
HETATM   25 CL   UNL     1      37.457 -12.985  -2.672  1.00  0.00    -0.084 Cl
HETATM   26  C   UNL     1      37.887 -13.800  -0.137  1.00  0.00     0.024 A 
HETATM   27  C   UNL     1      38.637 -13.885   1.039  1.00  0.00     0.011 A 
ENDBRANCH   9  21
BRANCH  10  28
HETATM   28  C   UNL     1      39.541 -11.380   3.498  1.00  0.00     0.293 C 
HETATM   29  O   UNL     1      38.371 -11.035   3.462  1.00  0.00    -0.259 OA
BRANCH  28  30
HETATM   30  O   UNL     1      40.620 -10.563   3.428  1.00  0.00    -0.323 OA
HETATM   31  C   UNL     1      41.137 -10.192   4.709  1.00  0.00     0.213 C 
ENDBRANCH  28  30
ENDBRANCH  10  28
TORSDOF 6
ENDMDL
MODEL 6
REMARK VINA RESULT:      -7.7      3.360      6.673
REMARK  6 active torsions:
REMARK  status: ('A' for Active; 'I' for Inactive)
REMARK    1  A    between atoms: C_7  and  S_8 
REMARK    2  A    between atoms: S_8  and  C_9 
REMARK    3  A    between atoms: C_9  and  C_10 
REMARK    4  A    between atoms: C_18  and  C_19 
REMARK    5  A    between atoms: C_26  and  C_27 
REMARK    6  A    between atoms: C_27  and  O_28 
ROOT
HETATM    1  C   UNL     1      44.803 -14.060   6.704  1.00  0.00     0.070 C 
HETATM    2  C   UNL     1      43.792 -14.825   5.887  1.00  0.00     0.037 A 
HETATM    3  N   UNL     1      43.018 -14.060   5.023  1.00  0.00    -0.192 N 
HETATM    4  C   UNL     1      42.049 -14.573   4.243  1.00  0.00     0.726 A 
HETATM    5  N   UNL     1      41.787 -15.913   4.290  1.00  0.00    -0.082 N 
HETATM    6  N   UNL     1      40.757 -16.240   3.479  1.00  0.00    -0.128 NA
HETATM    7  C   UNL     1      40.496 -15.053   2.915  1.00  0.00     0.226 A 
HETATM    8  N   UNL     1      41.258 -14.005   3.373  1.00  0.00    -0.035 NA
HETATM    9  C   UNL     1      42.527 -16.866   5.129  1.00  0.00     0.203 A 
HETATM   10  C   UNL     1      43.589 -16.164   5.964  1.00  0.00     0.070 A 
HETATM   11  H   UNL     1      43.202 -13.061   4.979  1.00  0.00     0.184 HD
ENDROOT
BRANCH   7  12
HETATM   12  S   UNL     1      39.327 -14.825   1.646  1.00  0.00    -0.083 SA
BRANCH  12  13
HETATM   13  C   UNL     1      40.267 -13.841   0.449  1.00  0.00     0.123 C 
BRANCH  13  14
HETATM   14  C   UNL     1      40.052 -14.344  -0.962  1.00  0.00    -0.027 A 
HETATM   15  C   UNL     1      38.972 -13.937  -1.763  1.00  0.00     0.041 A 
HETATM   16 CL   UNL     1      37.760 -12.850  -1.183  1.00  0.00    -0.084 Cl
HETATM   17  C   UNL     1      38.843 -14.408  -3.073  1.00  0.00     0.024 A 
HETATM   18  C   UNL     1      39.785 -15.289  -3.603  1.00  0.00     0.002 A 
HETATM   19  C   UNL     1      40.862 -15.700  -2.823  1.00  0.00     0.001 A 
HETATM   20  C   UNL     1      40.997 -15.229  -1.515  1.00  0.00     0.009 A 
ENDBRANCH  13  14
ENDBRANCH  12  13
ENDBRANCH   7  12
BRANCH   9  21
HETATM   21  C   UNL     1      43.101 -17.990   4.266  1.00  0.00    -0.028 A 
HETATM   22  C   UNL     1      43.475 -17.772   2.927  1.00  0.00     0.011 A 
HETATM   23  C   UNL     1      44.010 -18.810   2.161  1.00  0.00     0.024 A 
HETATM   24  C   UNL     1      44.182 -20.072   2.725  1.00  0.00     0.034 A 
HETATM   25 CL   UNL     1      44.842 -21.350   1.781  1.00  0.00    -0.084 Cl
HETATM   26  C   UNL     1      43.823 -20.306   4.050  1.00  0.00     0.024 A 
HETATM   27  C   UNL     1      43.284 -19.271   4.818  1.00  0.00     0.011 A 
ENDBRANCH   9  21
BRANCH  10  28
HETATM   28  C   UNL     1      44.428 -17.021   6.826  1.00  0.00     0.293 C 
HETATM   29  O   UNL     1      45.554 -17.394   6.539  1.00  0.00    -0.259 OA
BRANCH  28  30
HETATM   30  O   UNL     1      43.751 -17.316   7.963  1.00  0.00    -0.323 OA
HETATM   31  C   UNL     1      44.058 -18.611   8.488  1.00  0.00     0.213 C 
ENDBRANCH  28  30
ENDBRANCH  10  28
TORSDOF 6
ENDMDL
MODEL 7
REMARK VINA RESULT:      -7.5      3.333      6.171
REMARK  6 active torsions:
REMARK  status: ('A' for Active; 'I' for Inactive)
REMARK    1  A    between atoms: C_7  and  S_8 
REMARK    2  A    between atoms: S_8  and  C_9 
REMARK    3  A    between atoms: C_9  and  C_10 
REMARK    4  A    between atoms: C_18  and  C_19 
REMARK    5  A    between atoms: C_26  and  C_27 
REMARK    6  A    between atoms: C_27  and  O_28 
ROOT
HETATM    1  C   UNL     1      44.732 -13.560   7.721  1.00  0.00     0.070 C 
HETATM    2  C   UNL     1      43.650 -13.974   6.754  1.00  0.00     0.037 A 
HETATM    3  N   UNL     1      43.075 -12.944   6.020  1.00  0.00    -0.192 N 
HETATM    4  C   UNL     1      42.078 -13.128   5.137  1.00  0.00     0.726 A 
HETATM    5  N   UNL     1      41.579 -14.384   4.939  1.00  0.00    -0.082 N 
HETATM    6  N   UNL     1      40.556 -14.373   4.056  1.00  0.00    -0.128 NA
HETATM    7  C   UNL     1      40.544 -13.079   3.705  1.00  0.00     0.226 A 
HETATM    8  N   UNL     1      41.453 -12.284   4.361  1.00  0.00    -0.035 NA
HETATM    9  C   UNL     1      42.087 -15.587   5.614  1.00  0.00     0.203 A 
HETATM   10  C   UNL     1      43.208 -15.245   6.588  1.00  0.00     0.070 A 
HETATM   11  H   UNL     1      43.438 -12.003   6.159  1.00  0.00     0.184 HD
ENDROOT
BRANCH   7  12
HETATM   12  S   UNL     1      39.509 -12.427   2.466  1.00  0.00    -0.083 SA
BRANCH  12  13
HETATM   13  C   UNL     1      38.764 -13.930   1.779  1.00  0.00     0.123 C 
BRANCH  13  14
HETATM   14  C   UNL     1      39.542 -14.427   0.581  1.00  0.00    -0.027 A 
HETATM   15  C   UNL     1      39.312 -13.966  -0.726  1.00  0.00     0.041 A 
HETATM   16 CL   UNL     1      38.078 -12.811  -1.087  1.00  0.00    -0.084 Cl
HETATM   17  C   UNL     1      40.087 -14.437  -1.791  1.00  0.00     0.024 A 
HETATM   18  C   UNL     1      41.098 -15.371  -1.570  1.00  0.00     0.002 A 
HETATM   19  C   UNL     1      41.339 -15.837  -0.281  1.00  0.00     0.001 A 
HETATM   20  C   UNL     1      40.571 -15.366   0.786  1.00  0.00     0.009 A 
ENDBRANCH  13  14
ENDBRANCH  12  13
ENDBRANCH   7  12
BRANCH   9  21
HETATM   21  C   UNL     1      42.501 -16.635   4.581  1.00  0.00    -0.028 A 
HETATM   22  C   UNL     1      42.052 -17.966   4.662  1.00  0.00     0.011 A 
HETATM   23  C   UNL     1      42.433 -18.904   3.700  1.00  0.00     0.024 A 
HETATM   24  C   UNL     1      43.259 -18.521   2.646  1.00  0.00     0.034 A 
HETATM   25 CL   UNL     1      43.726 -19.677   1.460  1.00  0.00    -0.084 Cl
HETATM   26  C   UNL     1      43.709 -17.207   2.545  1.00  0.00     0.024 A 
HETATM   27  C   UNL     1      43.333 -16.268   3.508  1.00  0.00     0.011 A 
ENDBRANCH   9  21
BRANCH  10  28
HETATM   28  C   UNL     1      43.829 -16.377   7.306  1.00  0.00     0.293 C 
HETATM   29  O   UNL     1      43.369 -16.886   8.316  1.00  0.00    -0.259 OA
BRANCH  28  30
HETATM   30  O   UNL     1      44.966 -16.747   6.668  1.00  0.00    -0.323 OA
HETATM   31  C   UNL     1      45.174 -18.162   6.649  1.00  0.00     0.213 C 
ENDBRANCH  28  30
ENDBRANCH  10  28
TORSDOF 6
ENDMDL
MODEL 8
REMARK VINA RESULT:      -7.5      4.666      8.225
REMARK  6 active torsions:
REMARK  status: ('A' for Active; 'I' for Inactive)
REMARK    1  A    between atoms: C_7  and  S_8 
REMARK    2  A    between atoms: S_8  and  C_9 
REMARK    3  A    between atoms: C_9  and  C_10 
REMARK    4  A    between atoms: C_18  and  C_19 
REMARK    5  A    between atoms: C_26  and  C_27 
REMARK    6  A    between atoms: C_27  and  O_28 
ROOT
HETATM    1  C   UNL     1      39.071 -15.136   2.100  1.00  0.00     0.070 C 
HETATM    2  C   UNL     1      40.022 -14.613   3.148  1.00  0.00     0.037 A 
HETATM    3  N   UNL     1      39.560 -13.535   3.893  1.00  0.00    -0.192 N 
HETATM    4  C   UNL     1      40.287 -12.926   4.847  1.00  0.00     0.726 A 
HETATM    5  N   UNL     1      41.554 -13.363   5.110  1.00  0.00    -0.082 N 
HETATM    6  N   UNL     1      42.148 -12.608   6.059  1.00  0.00    -0.128 NA
HETATM    7  C   UNL     1      41.146 -11.775   6.378  1.00  0.00     0.226 A 
HETATM    8  N   UNL     1      39.997 -11.931   5.642  1.00  0.00    -0.035 NA
HETATM    9  C   UNL     1      42.186 -14.504   4.431  1.00  0.00     0.203 A 
HETATM   10  C   UNL     1      41.266 -15.103   3.376  1.00  0.00     0.070 A 
HETATM   11  H   UNL     1      38.618 -13.199   3.707  1.00  0.00     0.184 HD
ENDROOT
BRANCH   7  12
HETATM   12  S   UNL     1      41.237 -10.609   7.667  1.00  0.00    -0.083 SA
BRANCH  12  13
HETATM   13  C   UNL     1      42.833 -11.018   8.423  1.00  0.00     0.123 C 
BRANCH  13  14
HETATM   14  C   UNL     1      42.828 -10.718   9.906  1.00  0.00    -0.027 A 
HETATM   15  C   UNL     1      44.004 -10.563  10.659  1.00  0.00     0.041 A 
HETATM   16 CL   UNL     1      45.572 -10.746   9.957  1.00  0.00    -0.084 Cl
HETATM   17  C   UNL     1      43.938 -10.251  12.021  1.00  0.00     0.024 A 
HETATM   18  C   UNL     1      42.704 -10.090  12.650  1.00  0.00     0.002 A 
HETATM   19  C   UNL     1      41.530 -10.239  11.917  1.00  0.00     0.001 A 
HETATM   20  C   UNL     1      41.591 -10.546  10.556  1.00  0.00     0.009 A 
ENDBRANCH  13  14
ENDBRANCH  12  13
ENDBRANCH   7  12
BRANCH   9  21
HETATM   21  C   UNL     1      42.654 -15.534   5.460  1.00  0.00    -0.028 A 
HETATM   22  C   UNL     1      44.021 -15.780   5.685  1.00  0.00     0.011 A 
HETATM   23  C   UNL     1      44.427 -16.716   6.639  1.00  0.00     0.024 A 
HETATM   24  C   UNL     1      43.473 -17.409   7.381  1.00  0.00     0.034 A 
HETATM   25 CL   UNL     1      43.973 -18.561   8.556  1.00  0.00    -0.084 Cl
HETATM   26  C   UNL     1      42.115 -17.175   7.176  1.00  0.00     0.024 A 
HETATM   27  C   UNL     1      41.707 -16.242   6.220  1.00  0.00     0.011 A 
ENDBRANCH   9  21
BRANCH  10  28
HETATM   28  C   UNL     1      41.775 -16.282   2.646  1.00  0.00     0.293 C 
HETATM   29  O   UNL     1      41.337 -17.413   2.776  1.00  0.00    -0.259 OA
BRANCH  28  30
HETATM   30  O   UNL     1      42.787 -15.903   1.827  1.00  0.00    -0.323 OA
HETATM   31  C   UNL     1      43.950 -16.728   1.940  1.00  0.00     0.213 C 
ENDBRANCH  28  30
ENDBRANCH  10  28
TORSDOF 6
ENDMDL
MODEL 9
REMARK VINA RESULT:      -7.4      1.711      2.071
REMARK  6 active torsions:
REMARK  status: ('A' for Active; 'I' for Inactive)
REMARK    1  A    between atoms: C_7  and  S_8 
REMARK    2  A    between atoms: S_8  and  C_9 
REMARK    3  A    between atoms: C_9  and  C_10 
REMARK    4  A    between atoms: C_18  and  C_19 
REMARK    5  A    between atoms: C_26  and  C_27 
REMARK    6  A    between atoms: C_27  and  O_28 
ROOT
HETATM    1  C   UNL     1      39.469 -11.285   6.883  1.00  0.00     0.070 C 
HETATM    2  C   UNL     1      40.070 -12.331   5.977  1.00  0.00     0.037 A 
HETATM    3  N   UNL     1      40.196 -13.601   6.529  1.00  0.00    -0.192 N 
HETATM    4  C   UNL     1      40.737 -14.644   5.875  1.00  0.00     0.726 A 
HETATM    5  N   UNL     1      41.205 -14.471   4.603  1.00  0.00    -0.082 N 
HETATM    6  N   UNL     1      41.754 -15.608   4.122  1.00  0.00    -0.128 NA
HETATM    7  C   UNL     1      41.512 -16.450   5.137  1.00  0.00     0.226 A 
HETATM    8  N   UNL     1      40.906 -15.888   6.235  1.00  0.00    -0.035 NA
HETATM    9  C   UNL     1      41.128 -13.202   3.864  1.00  0.00     0.203 A 
HETATM   10  C   UNL     1      40.501 -12.103   4.712  1.00  0.00     0.070 A 
HETATM   11  H   UNL     1      39.852 -13.743   7.476  1.00  0.00     0.184 HD
ENDROOT
BRANCH   7  12
HETATM   12  S   UNL     1      41.870 -18.153   5.082  1.00  0.00    -0.083 SA
BRANCH  12  13
HETATM   13  C   UNL     1      43.562 -18.153   4.434  1.00  0.00     0.123 C 
BRANCH  13  14
HETATM   14  C   UNL     1      43.915 -19.494   3.828  1.00  0.00    -0.027 A 
HETATM   15  C   UNL     1      43.775 -19.775   2.458  1.00  0.00     0.041 A 
HETATM   16 CL   UNL     1      43.140 -18.616   1.345  1.00  0.00    -0.084 Cl
HETATM   17  C   UNL     1      44.150 -21.022   1.948  1.00  0.00     0.024 A 
HETATM   18  C   UNL     1      44.669 -22.003   2.792  1.00  0.00     0.002 A 
HETATM   19  C   UNL     1      44.815 -21.740   4.150  1.00  0.00     0.001 A 
HETATM   20  C   UNL     1      44.446 -20.495   4.664  1.00  0.00     0.009 A 
ENDBRANCH  13  14
ENDBRANCH  12  13
ENDBRANCH   7  12
BRANCH   9  21
HETATM   21  C   UNL     1      40.401 -13.411   2.536  1.00  0.00    -0.028 A 
HETATM   22  C   UNL     1      39.083 -13.899   2.487  1.00  0.00     0.011 A 
HETATM   23  C   UNL     1      38.433 -14.069   1.262  1.00  0.00     0.024 A 
HETATM   24  C   UNL     1      39.091 -13.748   0.077  1.00  0.00     0.034 A 
HETATM   25 CL   UNL     1      38.290 -13.958  -1.431  1.00  0.00    -0.084 Cl
HETATM   26  C   UNL     1      40.394 -13.259   0.105  1.00  0.00     0.024 A 
HETATM   27  C   UNL     1      41.048 -13.091   1.328  1.00  0.00     0.011 A 
ENDBRANCH   9  21
BRANCH  10  28
HETATM   28  C   UNL     1      40.336 -10.784   4.068  1.00  0.00     0.293 C 
HETATM   29  O   UNL     1      39.327 -10.427   3.481  1.00  0.00    -0.259 OA
BRANCH  28  30
HETATM   30  O   UNL     1      41.466 -10.055   4.236  1.00  0.00    -0.323 OA
HETATM   31  C   UNL     1      41.219  -8.719   4.685  1.00  0.00     0.213 C 
ENDBRANCH  28  30
ENDBRANCH  10  28
TORSDOF 6
ENDMDL
MODEL 10
REMARK VINA RESULT:      -7.4      3.956      7.064
REMARK  6 active torsions:
REMARK  status: ('A' for Active; 'I' for Inactive)
REMARK    1  A    between atoms: C_7  and  S_8 
REMARK    2  A    between atoms: S_8  and  C_9 
REMARK    3  A    between atoms: C_9  and  C_10 
REMARK    4  A    between atoms: C_18  and  C_19 
REMARK    5  A    between atoms: C_26  and  C_27 
REMARK    6  A    between atoms: C_27  and  O_28 
ROOT
HETATM    1  C   UNL     1      41.922 -17.971   4.824  1.00  0.00     0.070 C 
HETATM    2  C   UNL     1      41.453 -16.641   4.286  1.00  0.00     0.037 A 
HETATM    3  N   UNL     1      40.478 -16.706   3.297  1.00  0.00    -0.192 N 
HETATM    4  C   UNL     1      39.969 -15.621   2.686  1.00  0.00     0.726 A 
HETATM    5  N   UNL     1      40.422 -14.380   3.030  1.00  0.00    -0.082 N 
HETATM    6  N   UNL     1      39.835 -13.418   2.284  1.00  0.00    -0.128 NA
HETATM    7  C   UNL     1      38.979 -14.152   1.560  1.00  0.00     0.226 A 
HETATM    8  N   UNL     1      39.046 -15.509   1.768  1.00  0.00    -0.035 NA
HETATM    9  C   UNL     1      41.431 -14.132   4.071  1.00  0.00     0.203 A 
HETATM   10  C   UNL     1      41.930 -15.435   4.682  1.00  0.00     0.070 A 
HETATM   11  H   UNL     1      40.133 -17.625   3.031  1.00  0.00     0.184 HD
ENDROOT
BRANCH   7  12
HETATM   12  S   UNL     1      37.808 -13.468   0.469  1.00  0.00    -0.083 SA
BRANCH  12  13
HETATM   13  C   UNL     1      38.863 -12.878  -0.882  1.00  0.00     0.123 C 
BRANCH  13  14
HETATM   14  C   UNL     1      39.118 -13.972  -1.895  1.00  0.00    -0.027 A 
HETATM   15  C   UNL     1      40.323 -14.690  -1.959  1.00  0.00     0.041 A 
HETATM   16 CL   UNL     1      41.649 -14.351  -0.903  1.00  0.00    -0.084 Cl
HETATM   17  C   UNL     1      40.490 -15.716  -2.895  1.00  0.00     0.024 A 
HETATM   18  C   UNL     1      39.460 -16.040  -3.778  1.00  0.00     0.002 A 
HETATM   19  C   UNL     1      38.259 -15.339  -3.726  1.00  0.00     0.001 A 
HETATM   20  C   UNL     1      38.087 -14.317  -2.790  1.00  0.00     0.009 A 
ENDBRANCH  13  14
ENDBRANCH  12  13
ENDBRANCH   7  12
BRANCH   9  21
HETATM   21  C   UNL     1      40.880 -13.163   5.116  1.00  0.00    -0.028 A 
HETATM   22  C   UNL     1      39.754 -13.483   5.896  1.00  0.00     0.011 A 
HETATM   23  C   UNL     1      39.275 -12.587   6.855  1.00  0.00     0.024 A 
HETATM   24  C   UNL     1      39.919 -11.368   7.048  1.00  0.00     0.034 A 
HETATM   25 CL   UNL     1      39.330 -10.265   8.230  1.00  0.00    -0.084 Cl
HETATM   26  C   UNL     1      41.039 -11.034   6.290  1.00  0.00     0.024 A 
HETATM   27  C   UNL     1      41.517 -11.927   5.328  1.00  0.00     0.011 A 
ENDBRANCH   9  21
BRANCH  10  28
HETATM   28  C   UNL     1      42.924 -15.319   5.768  1.00  0.00     0.293 C 
HETATM   29  O   UNL     1      42.806 -15.837   6.867  1.00  0.00    -0.259 OA
BRANCH  28  30
HETATM   30  O   UNL     1      43.964 -14.558   5.348  1.00  0.00    -0.323 OA
HETATM   31  C   UNL     1      44.727 -13.995   6.419  1.00  0.00     0.213 C 
ENDBRANCH  28  30
ENDBRANCH  10  28
TORSDOF 6
ENDMDL
