MODEL 1
REMARK VINA RESULT:      -9.1      0.000      0.000
REMARK  6 active torsions:
REMARK  status: ('A' for Active; 'I' for Inactive)
REMARK    1  A    between atoms: C_2  and  O_3 
REMARK    2  A    between atoms: O_3  and  C_4 
REMARK    3  A    between atoms: C_7  and  C_8 
REMARK       I    between atoms: C_8  and  N_9 
REMARK    4  A    between atoms: N_9  and  C_10 
REMARK    5  A    between atoms: N_11  and  C_12 
REMARK    6  A    between atoms: C_24  and  C_25 
ROOT
HETATM    1  C   UNL     1      43.287 -15.176   6.077  1.00  0.00     0.152 C 
HETATM    2  N   UNL     1      42.763 -15.099   4.787  1.00  0.00    -0.044 N 
HETATM    3  N   UNL     1      43.179 -16.169   4.027  1.00  0.00    -0.148 NA
HETATM    4  C   UNL     1      43.674 -17.026   4.928  1.00  0.00     0.115 C 
HETATM    5  C   UNL     1      43.718 -16.474   6.225  1.00  0.00     0.087 C 
ENDROOT
BRANCH   1   6
HETATM    6  N   UNL     1      43.366 -14.158   7.015  1.00  0.00    -0.307 N 
HETATM    7  C   UNL     1      44.565 -13.506   7.246  1.00  0.00     0.257 C 
HETATM    8  O   UNL     1      45.633 -13.702   6.679  1.00  0.00    -0.267 OA
HETATM    9  H   UNL     1      42.649 -14.103   7.728  1.00  0.00     0.170 HD
BRANCH   7  10
HETATM   10  C   UNL     1      44.533 -12.561   8.377  1.00  0.00     0.032 A 
HETATM   11  C   UNL     1      43.472 -11.657   8.499  1.00  0.00     0.020 A 
HETATM   12  C   UNL     1      43.401 -10.828   9.619  1.00  0.00     0.038 A 
HETATM   13  C   UNL     1      44.378 -10.919  10.613  1.00  0.00     0.069 A 
HETATM   14  C   UNL     1      45.460 -11.790  10.459  1.00  0.00     0.038 A 
HETATM   15  C   UNL     1      45.532 -12.630   9.347  1.00  0.00     0.020 A 
BRANCH  13  16
HETATM   16  O   UNL     1      44.365 -10.179  11.763  1.00  0.00    -0.347 OA
BRANCH  16  17
HETATM   17  C   UNL     1      43.100 -10.108  12.444  1.00  0.00     0.120 C 
HETATM   18  C   UNL     1      43.318  -9.224  13.670  1.00  0.00     0.040 C 
HETATM   19  C   UNL     1      42.623 -11.492  12.889  1.00  0.00     0.040 C 
ENDBRANCH  16  17
ENDBRANCH  13  16
ENDBRANCH   7  10
ENDBRANCH   1   6
BRANCH   2  20
HETATM   20  C   UNL     1      41.786 -14.239   4.239  1.00  0.00     0.732 A 
HETATM   21  N   UNL     1      41.725 -12.962   4.449  1.00  0.00    -0.067 NA
HETATM   22  C   UNL     1      40.678 -12.293   3.851  1.00  0.00     0.065 A 
HETATM   23  C   UNL     1      39.743 -12.882   3.082  1.00  0.00     0.036 A 
HETATM   24  C   UNL     1      40.642 -10.805   4.115  1.00  0.00     0.060 C 
HETATM   25  C   UNL     1      38.593 -12.163   2.441  1.00  0.00     0.046 C 
HETATM   26  C   UNL     1      39.835 -14.346   2.874  1.00  0.00     0.268 A 
HETATM   27  C   UNL     1      38.376 -10.762   3.016  1.00  0.00     0.005 C 
HETATM   28  C   UNL     1      39.701 -10.032   3.187  1.00  0.00     0.006 C 
HETATM   29  O   UNL     1      39.028 -14.965   2.190  1.00  0.00    -0.267 OA
HETATM   30  N   UNL     1      40.873 -14.950   3.507  1.00  0.00    -0.152 N 
HETATM   31  H   UNL     1      40.980 -15.954   3.424  1.00  0.00     0.188 HD
ENDBRANCH   2  20
BRANCH   4  32
HETATM   32  C   UNL     1      44.151 -18.392   4.566  1.00  0.00     0.105 A 
HETATM   33  O   UNL     1      44.825 -19.227   5.417  1.00  0.00    -0.320 OA
HETATM   34  C   UNL     1      45.089 -20.370   4.733  1.00  0.00     0.142 A 
HETATM   35  C   UNL     1      44.598 -20.290   3.452  1.00  0.00     0.027 A 
HETATM   36  C   UNL     1      43.993 -19.015   3.343  1.00  0.00     0.041 A 
ENDBRANCH   4  32
TORSDOF 6
ENDMDL
MODEL 2
REMARK VINA RESULT:      -9.1      2.765      9.431
REMARK  6 active torsions:
REMARK  status: ('A' for Active; 'I' for Inactive)
REMARK    1  A    between atoms: C_2  and  O_3 
REMARK    2  A    between atoms: O_3  and  C_4 
REMARK    3  A    between atoms: C_7  and  C_8 
REMARK       I    between atoms: C_8  and  N_9 
REMARK    4  A    between atoms: N_9  and  C_10 
REMARK    5  A    between atoms: N_11  and  C_12 
REMARK    6  A    between atoms: C_24  and  C_25 
ROOT
HETATM    1  C   UNL     1      43.187 -14.535   5.689  1.00  0.00     0.152 C 
HETATM    2  N   UNL     1      44.045 -15.440   6.315  1.00  0.00    -0.044 N 
HETATM    3  N   UNL     1      44.768 -14.820   7.309  1.00  0.00    -0.148 NA
HETATM    4  C   UNL     1      44.131 -13.657   7.486  1.00  0.00     0.115 C 
HETATM    5  C   UNL     1      43.110 -13.453   6.536  1.00  0.00     0.087 C 
ENDROOT
BRANCH   1   6
HETATM    6  N   UNL     1      42.550 -14.686   4.467  1.00  0.00    -0.307 N 
HETATM    7  C   UNL     1      43.137 -14.216   3.306  1.00  0.00     0.257 C 
HETATM    8  O   UNL     1      44.228 -13.670   3.199  1.00  0.00    -0.267 OA
HETATM    9  H   UNL     1      41.552 -14.854   4.463  1.00  0.00     0.170 HD
BRANCH   7  10
HETATM   10  C   UNL     1      42.276 -14.305   2.113  1.00  0.00     0.032 A 
HETATM   11  C   UNL     1      41.737 -13.140   1.555  1.00  0.00     0.020 A 
HETATM   12  C   UNL     1      40.998 -13.222   0.374  1.00  0.00     0.038 A 
HETATM   13  C   UNL     1      40.817 -14.460  -0.247  1.00  0.00     0.069 A 
HETATM   14  C   UNL     1      41.316 -15.624   0.344  1.00  0.00     0.038 A 
HETATM   15  C   UNL     1      42.066 -15.549   1.518  1.00  0.00     0.020 A 
BRANCH  13  16
HETATM   16  O   UNL     1      40.146 -14.629  -1.427  1.00  0.00    -0.347 OA
BRANCH  16  17
HETATM   17  C   UNL     1      40.888 -15.273  -2.477  1.00  0.00     0.120 C 
HETATM   18  C   UNL     1      41.602 -14.163  -3.246  1.00  0.00     0.040 C 
HETATM   19  C   UNL     1      39.965 -16.041  -3.427  1.00  0.00     0.040 C 
ENDBRANCH  16  17
ENDBRANCH  13  16
ENDBRANCH   7  10
ENDBRANCH   1   6
BRANCH   2  20
HETATM   20  C   UNL     1      44.138 -16.846   6.206  1.00  0.00     0.732 A 
HETATM   21  N   UNL     1      44.230 -17.496   5.090  1.00  0.00    -0.067 NA
HETATM   22  C   UNL     1      44.282 -18.870   5.185  1.00  0.00     0.065 A 
HETATM   23  C   UNL     1      44.243 -19.552   6.345  1.00  0.00     0.036 A 
HETATM   24  C   UNL     1      44.393 -19.594   3.863  1.00  0.00     0.060 C 
HETATM   25  C   UNL     1      44.283 -21.047   6.455  1.00  0.00     0.046 C 
HETATM   26  C   UNL     1      44.124 -18.778   7.603  1.00  0.00     0.268 A 
HETATM   27  C   UNL     1      44.025 -21.746   5.119  1.00  0.00     0.005 C 
HETATM   28  C   UNL     1      44.791 -21.067   3.992  1.00  0.00     0.006 C 
HETATM   29  O   UNL     1      44.081 -19.314   8.704  1.00  0.00    -0.267 OA
HETATM   30  N   UNL     1      44.054 -17.432   7.442  1.00  0.00    -0.152 N 
HETATM   31  H   UNL     1      43.949 -16.844   8.261  1.00  0.00     0.188 HD
ENDBRANCH   2  20
BRANCH   4  32
HETATM   32  C   UNL     1      44.506 -12.687   8.556  1.00  0.00     0.105 A 
HETATM   33  O   UNL     1      45.598 -12.819   9.372  1.00  0.00    -0.320 OA
HETATM   34  C   UNL     1      45.605 -11.751  10.211  1.00  0.00     0.142 A 
HETATM   35  C   UNL     1      44.535 -10.928   9.953  1.00  0.00     0.027 A 
HETATM   36  C   UNL     1      43.826 -11.530   8.885  1.00  0.00     0.041 A 
ENDBRANCH   4  32
TORSDOF 6
ENDMDL
MODEL 3
REMARK VINA RESULT:      -9.0      2.639      6.805
REMARK  6 active torsions:
REMARK  status: ('A' for Active; 'I' for Inactive)
REMARK    1  A    between atoms: C_2  and  O_3 
REMARK    2  A    between atoms: O_3  and  C_4 
REMARK    3  A    between atoms: C_7  and  C_8 
REMARK       I    between atoms: C_8  and  N_9 
REMARK    4  A    between atoms: N_9  and  C_10 
REMARK    5  A    between atoms: N_11  and  C_12 
REMARK    6  A    between atoms: C_24  and  C_25 
ROOT
HETATM    1  C   UNL     1      42.057 -15.327   2.474  1.00  0.00     0.152 C 
HETATM    2  N   UNL     1      42.074 -16.635   1.989  1.00  0.00    -0.044 N 
HETATM    3  N   UNL     1      41.421 -16.716   0.780  1.00  0.00    -0.148 NA
HETATM    4  C   UNL     1      41.296 -15.439   0.400  1.00  0.00     0.115 C 
HETATM    5  C   UNL     1      41.722 -14.538   1.397  1.00  0.00     0.087 C 
ENDROOT
BRANCH   1   6
HETATM    6  N   UNL     1      42.314 -14.906   3.769  1.00  0.00    -0.307 N 
HETATM    7  C   UNL     1      43.384 -14.070   4.038  1.00  0.00     0.257 C 
HETATM    8  O   UNL     1      44.173 -13.598   3.229  1.00  0.00    -0.267 OA
HETATM    9  H   UNL     1      41.923 -15.440   4.535  1.00  0.00     0.170 HD
BRANCH   7  10
HETATM   10  C   UNL     1      43.625 -13.837   5.473  1.00  0.00     0.032 A 
HETATM   11  C   UNL     1      44.606 -14.576   6.143  1.00  0.00     0.020 A 
HETATM   12  C   UNL     1      44.892 -14.288   7.478  1.00  0.00     0.038 A 
HETATM   13  C   UNL     1      44.210 -13.256   8.126  1.00  0.00     0.069 A 
HETATM   14  C   UNL     1      43.198 -12.556   7.465  1.00  0.00     0.038 A 
HETATM   15  C   UNL     1      42.914 -12.830   6.126  1.00  0.00     0.020 A 
BRANCH  13  16
HETATM   16  O   UNL     1      44.454 -12.875   9.417  1.00  0.00    -0.347 OA
BRANCH  16  17
HETATM   17  C   UNL     1      44.237 -11.483   9.707  1.00  0.00     0.120 C 
HETATM   18  C   UNL     1      45.620 -10.853   9.862  1.00  0.00     0.040 C 
HETATM   19  C   UNL     1      43.441 -11.296  11.001  1.00  0.00     0.040 C 
ENDBRANCH  16  17
ENDBRANCH  13  16
ENDBRANCH   7  10
ENDBRANCH   1   6
BRANCH   2  20
HETATM   20  C   UNL     1      42.777 -17.774   2.440  1.00  0.00     0.732 A 
HETATM   21  N   UNL     1      42.802 -18.916   1.829  1.00  0.00    -0.067 NA
HETATM   22  C   UNL     1      43.521 -19.921   2.440  1.00  0.00     0.065 A 
HETATM   23  C   UNL     1      44.180 -19.781   3.606  1.00  0.00     0.036 A 
HETATM   24  C   UNL     1      43.530 -21.237   1.696  1.00  0.00     0.060 C 
HETATM   25  C   UNL     1      44.951 -20.875   4.284  1.00  0.00     0.046 C 
HETATM   26  C   UNL     1      44.119 -18.466   4.285  1.00  0.00     0.268 A 
HETATM   27  C   UNL     1      44.640 -22.259   3.714  1.00  0.00     0.005 C 
HETATM   28  C   UNL     1      44.591 -22.223   2.192  1.00  0.00     0.006 C 
HETATM   29  O   UNL     1      44.687 -18.248   5.349  1.00  0.00    -0.267 OA
HETATM   30  N   UNL     1      43.378 -17.525   3.646  1.00  0.00    -0.152 N 
HETATM   31  H   UNL     1      43.276 -16.610   4.068  1.00  0.00     0.188 HD
ENDBRANCH   2  20
BRANCH   4  32
HETATM   32  C   UNL     1      40.734 -15.043  -0.924  1.00  0.00     0.105 A 
HETATM   33  O   UNL     1      39.871 -13.997  -1.116  1.00  0.00    -0.320 OA
HETATM   34  C   UNL     1      39.584 -13.951  -2.443  1.00  0.00     0.142 A 
HETATM   35  C   UNL     1      40.245 -14.951  -3.115  1.00  0.00     0.027 A 
HETATM   36  C   UNL     1      40.987 -15.657  -2.136  1.00  0.00     0.041 A 
ENDBRANCH   4  32
TORSDOF 6
ENDMDL
MODEL 4
REMARK VINA RESULT:      -9.0      3.581      4.951
REMARK  6 active torsions:
REMARK  status: ('A' for Active; 'I' for Inactive)
REMARK    1  A    between atoms: C_2  and  O_3 
REMARK    2  A    between atoms: O_3  and  C_4 
REMARK    3  A    between atoms: C_7  and  C_8 
REMARK       I    between atoms: C_8  and  N_9 
REMARK    4  A    between atoms: N_9  and  C_10 
REMARK    5  A    between atoms: N_11  and  C_12 
REMARK    6  A    between atoms: C_24  and  C_25 
ROOT
HETATM    1  C   UNL     1      41.241 -16.162   2.692  1.00  0.00     0.152 C 
HETATM    2  N   UNL     1      41.483 -16.192   1.318  1.00  0.00    -0.044 N 
HETATM    3  N   UNL     1      42.358 -17.205   0.998  1.00  0.00    -0.148 NA
HETATM    4  C   UNL     1      42.389 -17.959   2.103  1.00  0.00     0.115 C 
HETATM    5  C   UNL     1      41.672 -17.379   3.169  1.00  0.00     0.087 C 
ENDROOT
BRANCH   1   6
HETATM    6  N   UNL     1      40.692 -15.123   3.428  1.00  0.00    -0.307 N 
HETATM    7  C   UNL     1      41.455 -14.018   3.761  1.00  0.00     0.257 C 
HETATM    8  O   UNL     1      42.621 -13.805   3.452  1.00  0.00    -0.267 OA
HETATM    9  H   UNL     1      39.857 -15.307   3.969  1.00  0.00     0.170 HD
BRANCH   7  10
HETATM   10  C   UNL     1      40.787 -13.075   4.675  1.00  0.00     0.032 A 
HETATM   11  C   UNL     1      39.853 -13.548   5.603  1.00  0.00     0.020 A 
HETATM   12  C   UNL     1      39.292 -12.664   6.527  1.00  0.00     0.038 A 
HETATM   13  C   UNL     1      39.678 -11.322   6.525  1.00  0.00     0.069 A 
HETATM   14  C   UNL     1      40.574 -10.848   5.562  1.00  0.00     0.038 A 
HETATM   15  C   UNL     1      41.148 -11.728   4.644  1.00  0.00     0.020 A 
BRANCH  13  16
HETATM   16  O   UNL     1      39.215 -10.395   7.418  1.00  0.00    -0.347 OA
BRANCH  16  17
HETATM   17  C   UNL     1      39.363 -10.740   8.806  1.00  0.00     0.120 C 
HETATM   18  C   UNL     1      38.449  -9.797   9.586  1.00  0.00     0.040 C 
HETATM   19  C   UNL     1      40.808 -10.559   9.279  1.00  0.00     0.040 C 
ENDBRANCH  16  17
ENDBRANCH  13  16
ENDBRANCH   7  10
ENDBRANCH   1   6
BRANCH   2  20
HETATM   20  C   UNL     1      40.857 -15.497   0.258  1.00  0.00     0.732 A 
HETATM   21  N   UNL     1      39.929 -14.606   0.406  1.00  0.00    -0.067 NA
HETATM   22  C   UNL     1      39.419 -14.057  -0.751  1.00  0.00     0.065 A 
HETATM   23  C   UNL     1      39.825 -14.390  -1.991  1.00  0.00     0.036 A 
HETATM   24  C   UNL     1      38.341 -13.019  -0.540  1.00  0.00     0.060 C 
HETATM   25  C   UNL     1      39.263 -13.809  -3.255  1.00  0.00     0.046 C 
HETATM   26  C   UNL     1      40.878 -15.423  -2.124  1.00  0.00     0.268 A 
HETATM   27  C   UNL     1      37.950 -13.057  -3.029  1.00  0.00     0.005 C 
HETATM   28  C   UNL     1      38.031 -12.182  -1.784  1.00  0.00     0.006 C 
HETATM   29  O   UNL     1      41.308 -15.789  -3.212  1.00  0.00    -0.267 OA
HETATM   30  N   UNL     1      41.323 -15.941  -0.951  1.00  0.00    -0.152 N 
HETATM   31  H   UNL     1      42.029 -16.668  -0.971  1.00  0.00     0.188 HD
ENDBRANCH   2  20
BRANCH   4  32
HETATM   32  C   UNL     1      43.137 -19.248   2.179  1.00  0.00     0.105 A 
HETATM   33  O   UNL     1      42.711 -20.424   1.622  1.00  0.00    -0.320 OA
HETATM   34  C   UNL     1      43.650 -21.364   1.901  1.00  0.00     0.142 A 
HETATM   35  C   UNL     1      44.678 -20.818   2.631  1.00  0.00     0.027 A 
HETATM   36  C   UNL     1      44.349 -19.452   2.811  1.00  0.00     0.041 A 
ENDBRANCH   4  32
TORSDOF 6
ENDMDL
MODEL 5
REMARK VINA RESULT:      -8.9      3.714      8.623
REMARK  6 active torsions:
REMARK  status: ('A' for Active; 'I' for Inactive)
REMARK    1  A    between atoms: C_2  and  O_3 
REMARK    2  A    between atoms: O_3  and  C_4 
REMARK    3  A    between atoms: C_7  and  C_8 
REMARK       I    between atoms: C_8  and  N_9 
REMARK    4  A    between atoms: N_9  and  C_10 
REMARK    5  A    between atoms: N_11  and  C_12 
REMARK    6  A    between atoms: C_24  and  C_25 
ROOT
HETATM    1  C   UNL     1      43.113 -17.198   1.807  1.00  0.00     0.152 C 
HETATM    2  N   UNL     1      42.713 -17.093   3.139  1.00  0.00    -0.044 N 
HETATM    3  N   UNL     1      42.838 -18.303   3.784  1.00  0.00    -0.148 NA
HETATM    4  C   UNL     1      43.591 -19.031   2.950  1.00  0.00     0.115 C 
HETATM    5  C   UNL     1      43.830 -18.371   1.727  1.00  0.00     0.087 C 
ENDROOT
BRANCH   1   6
HETATM    6  N   UNL     1      42.839 -16.315   0.774  1.00  0.00    -0.307 N 
HETATM    7  C   UNL     1      41.534 -16.059   0.395  1.00  0.00     0.257 C 
HETATM    8  O   UNL     1      40.515 -16.517   0.898  1.00  0.00    -0.267 OA
HETATM    9  H   UNL     1      43.578 -16.104   0.114  1.00  0.00     0.170 HD
BRANCH   7  10
HETATM   10  C   UNL     1      41.406 -15.227  -0.815  1.00  0.00     0.032 A 
HETATM   11  C   UNL     1      40.958 -15.800  -2.010  1.00  0.00     0.020 A 
HETATM   12  C   UNL     1      40.752 -14.988  -3.127  1.00  0.00     0.038 A 
HETATM   13  C   UNL     1      40.981 -13.614  -3.037  1.00  0.00     0.069 A 
HETATM   14  C   UNL     1      41.476 -13.057  -1.854  1.00  0.00     0.038 A 
HETATM   15  C   UNL     1      41.672 -13.860  -0.730  1.00  0.00     0.020 A 
BRANCH  13  16
HETATM   16  O   UNL     1      40.765 -12.737  -4.065  1.00  0.00    -0.347 OA
BRANCH  16  17
HETATM   17  C   UNL     1      41.202 -11.386  -3.832  1.00  0.00     0.120 C 
HETATM   18  C   UNL     1      39.996 -10.490  -4.107  1.00  0.00     0.040 C 
HETATM   19  C   UNL     1      42.351 -10.998  -4.766  1.00  0.00     0.040 C 
ENDBRANCH  16  17
ENDBRANCH  13  16
ENDBRANCH   7  10
ENDBRANCH   1   6
BRANCH   2  20
HETATM   20  C   UNL     1      42.396 -15.957   3.918  1.00  0.00     0.732 A 
HETATM   21  N   UNL     1      41.193 -15.558   4.185  1.00  0.00    -0.067 NA
HETATM   22  C   UNL     1      41.085 -14.409   4.938  1.00  0.00     0.065 A 
HETATM   23  C   UNL     1      42.133 -13.700   5.398  1.00  0.00     0.036 A 
HETATM   24  C   UNL     1      39.667 -13.976   5.234  1.00  0.00     0.060 C 
HETATM   25  C   UNL     1      42.022 -12.440   6.204  1.00  0.00     0.046 C 
HETATM   26  C   UNL     1      43.495 -14.178   5.062  1.00  0.00     0.268 A 
HETATM   27  C   UNL     1      40.616 -11.838   6.170  1.00  0.00     0.005 C 
HETATM   28  C   UNL     1      39.556 -12.919   6.336  1.00  0.00     0.006 C 
HETATM   29  O   UNL     1      44.507 -13.596   5.435  1.00  0.00    -0.267 OA
HETATM   30  N   UNL     1      43.536 -15.300   4.299  1.00  0.00    -0.152 N 
HETATM   31  H   UNL     1      44.436 -15.668   4.015  1.00  0.00     0.188 HD
ENDBRANCH   2  20
BRANCH   4  32
HETATM   32  C   UNL     1      44.078 -20.399   3.290  1.00  0.00     0.105 A 
HETATM   33  O   UNL     1      44.503 -20.783   4.534  1.00  0.00    -0.320 OA
HETATM   34  C   UNL     1      44.866 -22.089   4.450  1.00  0.00     0.142 A 
HETATM   35  C   UNL     1      44.685 -22.559   3.171  1.00  0.00     0.027 A 
HETATM   36  C   UNL     1      44.177 -21.470   2.422  1.00  0.00     0.041 A 
ENDBRANCH   4  32
TORSDOF 6
ENDMDL
MODEL 6
REMARK VINA RESULT:      -8.9      3.614      8.411
REMARK  6 active torsions:
REMARK  status: ('A' for Active; 'I' for Inactive)
REMARK    1  A    between atoms: C_2  and  O_3 
REMARK    2  A    between atoms: O_3  and  C_4 
REMARK    3  A    between atoms: C_7  and  C_8 
REMARK       I    between atoms: C_8  and  N_9 
REMARK    4  A    between atoms: N_9  and  C_10 
REMARK    5  A    between atoms: N_11  and  C_12 
REMARK    6  A    between atoms: C_24  and  C_25 
ROOT
HETATM    1  C   UNL     1      40.949 -14.109   4.666  1.00  0.00     0.152 C 
HETATM    2  N   UNL     1      39.979 -13.540   3.841  1.00  0.00    -0.044 N 
HETATM    3  N   UNL     1      39.297 -12.544   4.504  1.00  0.00    -0.148 NA
HETATM    4  C   UNL     1      40.051 -12.308   5.585  1.00  0.00     0.115 C 
HETATM    5  C   UNL     1      41.117 -13.223   5.706  1.00  0.00     0.087 C 
ENDROOT
BRANCH   1   6
HETATM    6  N   UNL     1      41.602 -15.318   4.486  1.00  0.00    -0.307 N 
HETATM    7  C   UNL     1      42.835 -15.365   3.860  1.00  0.00     0.257 C 
HETATM    8  O   UNL     1      43.484 -14.417   3.436  1.00  0.00    -0.267 OA
HETATM    9  H   UNL     1      41.057 -16.171   4.530  1.00  0.00     0.170 HD
BRANCH   7  10
HETATM   10  C   UNL     1      43.331 -16.728   3.599  1.00  0.00     0.032 A 
HETATM   11  C   UNL     1      43.578 -17.139   2.284  1.00  0.00     0.020 A 
HETATM   12  C   UNL     1      44.133 -18.399   2.050  1.00  0.00     0.038 A 
HETATM   13  C   UNL     1      44.450 -19.228   3.128  1.00  0.00     0.069 A 
HETATM   14  C   UNL     1      44.153 -18.830   4.434  1.00  0.00     0.038 A 
HETATM   15  C   UNL     1      43.609 -17.568   4.677  1.00  0.00     0.020 A 
BRANCH  13  16
HETATM   16  O   UNL     1      45.035 -20.457   2.997  1.00  0.00    -0.347 OA
BRANCH  16  17
HETATM   17  C   UNL     1      44.130 -21.563   2.834  1.00  0.00     0.120 C 
HETATM   18  C   UNL     1      44.665 -22.692   3.714  1.00  0.00     0.040 C 
HETATM   19  C   UNL     1      44.072 -22.033   1.379  1.00  0.00     0.040 C 
ENDBRANCH  16  17
ENDBRANCH  13  16
ENDBRANCH   7  10
ENDBRANCH   1   6
BRANCH   2  20
HETATM   20  C   UNL     1      39.736 -13.700   2.458  1.00  0.00     0.732 A 
HETATM   21  N   UNL     1      40.576 -14.213   1.617  1.00  0.00    -0.067 NA
HETATM   22  C   UNL     1      40.170 -14.259   0.300  1.00  0.00     0.065 A 
HETATM   23  C   UNL     1      38.980 -13.812  -0.143  1.00  0.00     0.036 A 
HETATM   24  C   UNL     1      41.175 -14.868  -0.653  1.00  0.00     0.060 C 
HETATM   25  C   UNL     1      38.539 -13.845  -1.577  1.00  0.00     0.046 C 
HETATM   26  C   UNL     1      38.049 -13.219   0.844  1.00  0.00     0.268 A 
HETATM   27  C   UNL     1      39.692 -14.114  -2.545  1.00  0.00     0.005 C 
HETATM   28  C   UNL     1      40.594 -15.225  -2.023  1.00  0.00     0.006 C 
HETATM   29  O   UNL     1      36.947 -12.785   0.531  1.00  0.00    -0.267 OA
HETATM   30  N   UNL     1      38.515 -13.181   2.119  1.00  0.00    -0.152 N 
HETATM   31  H   UNL     1      37.937 -12.767   2.841  1.00  0.00     0.188 HD
ENDBRANCH   2  20
BRANCH   4  32
HETATM   32  C   UNL     1      39.751 -11.215   6.554  1.00  0.00     0.105 A 
HETATM   33  O   UNL     1      39.201 -11.409   7.793  1.00  0.00    -0.320 OA
HETATM   34  C   UNL     1      39.080 -10.188   8.376  1.00  0.00     0.142 A 
HETATM   35  C   UNL     1      39.541  -9.204   7.534  1.00  0.00     0.027 A 
HETATM   36  C   UNL     1      39.974  -9.866   6.358  1.00  0.00     0.041 A 
ENDBRANCH   4  32
TORSDOF 6
ENDMDL
MODEL 7
REMARK VINA RESULT:      -8.7      2.063      8.835
REMARK  6 active torsions:
REMARK  status: ('A' for Active; 'I' for Inactive)
REMARK    1  A    between atoms: C_2  and  O_3 
REMARK    2  A    between atoms: O_3  and  C_4 
REMARK    3  A    between atoms: C_7  and  C_8 
REMARK       I    between atoms: C_8  and  N_9 
REMARK    4  A    between atoms: N_9  and  C_10 
REMARK    5  A    between atoms: N_11  and  C_12 
REMARK    6  A    between atoms: C_24  and  C_25 
ROOT
HETATM    1  C   UNL     1      42.424 -13.253   5.685  1.00  0.00     0.152 C 
HETATM    2  N   UNL     1      43.455 -14.188   5.781  1.00  0.00    -0.044 N 
HETATM    3  N   UNL     1      44.351 -13.827   6.762  1.00  0.00    -0.148 NA
HETATM    4  C   UNL     1      43.706 -12.875   7.447  1.00  0.00     0.115 C 
HETATM    5  C   UNL     1      42.482 -12.517   6.846  1.00  0.00     0.087 C 
ENDROOT
BRANCH   1   6
HETATM    6  N   UNL     1      41.532 -13.090   4.636  1.00  0.00    -0.307 N 
HETATM    7  C   UNL     1      40.372 -13.842   4.577  1.00  0.00     0.257 C 
HETATM    8  O   UNL     1      39.986 -14.670   5.393  1.00  0.00    -0.267 OA
HETATM    9  H   UNL     1      41.867 -12.662   3.782  1.00  0.00     0.170 HD
BRANCH   7  10
HETATM   10  C   UNL     1      39.604 -13.674   3.330  1.00  0.00     0.032 A 
HETATM   11  C   UNL     1      39.145 -12.405   2.961  1.00  0.00     0.020 A 
HETATM   12  C   UNL     1      38.498 -12.237   1.735  1.00  0.00     0.038 A 
HETATM   13  C   UNL     1      38.329 -13.332   0.885  1.00  0.00     0.069 A 
HETATM   14  C   UNL     1      38.747 -14.605   1.283  1.00  0.00     0.038 A 
HETATM   15  C   UNL     1      39.405 -14.778   2.501  1.00  0.00     0.020 A 
BRANCH  13  16
HETATM   16  O   UNL     1      37.748 -13.253  -0.351  1.00  0.00    -0.347 OA
BRANCH  16  17
HETATM   17  C   UNL     1      38.623 -13.494  -1.467  1.00  0.00     0.120 C 
HETATM   18  C   UNL     1      39.064 -12.122  -1.974  1.00  0.00     0.040 C 
HETATM   19  C   UNL     1      37.907 -14.248  -2.590  1.00  0.00     0.040 C 
ENDBRANCH  16  17
ENDBRANCH  13  16
ENDBRANCH   7  10
ENDBRANCH   1   6
BRANCH   2  20
HETATM   20  C   UNL     1      43.602 -15.461   5.186  1.00  0.00     0.732 A 
HETATM   21  N   UNL     1      43.340 -15.730   3.946  1.00  0.00    -0.067 NA
HETATM   22  C   UNL     1      43.519 -17.040   3.555  1.00  0.00     0.065 A 
HETATM   23  C   UNL     1      43.939 -18.026   4.372  1.00  0.00     0.036 A 
HETATM   24  C   UNL     1      43.208 -17.317   2.102  1.00  0.00     0.060 C 
HETATM   25  C   UNL     1      44.120 -19.455   3.957  1.00  0.00     0.046 C 
HETATM   26  C   UNL     1      44.216 -17.685   5.786  1.00  0.00     0.268 A 
HETATM   27  C   UNL     1      43.457 -19.771   2.615  1.00  0.00     0.005 C 
HETATM   28  C   UNL     1      43.728 -18.667   1.601  1.00  0.00     0.006 C 
HETATM   29  O   UNL     1      44.601 -18.516   6.600  1.00  0.00    -0.267 OA
HETATM   30  N   UNL     1      44.000 -16.385   6.115  1.00  0.00    -0.152 N 
HETATM   31  H   UNL     1      44.149 -16.090   7.073  1.00  0.00     0.188 HD
ENDBRANCH   2  20
BRANCH   4  32
HETATM   32  C   UNL     1      44.261 -12.256   8.686  1.00  0.00     0.105 A 
HETATM   33  O   UNL     1      45.248 -12.814   9.454  1.00  0.00    -0.320 OA
HETATM   34  C   UNL     1      45.483 -11.964  10.487  1.00  0.00     0.142 A 
HETATM   35  C   UNL     1      44.663 -10.863  10.402  1.00  0.00     0.027 A 
HETATM   36  C   UNL     1      43.875 -11.051   9.240  1.00  0.00     0.041 A 
ENDBRANCH   4  32
TORSDOF 6
ENDMDL
MODEL 8
REMARK VINA RESULT:      -8.7      3.657      5.090
REMARK  6 active torsions:
REMARK  status: ('A' for Active; 'I' for Inactive)
REMARK    1  A    between atoms: C_2  and  O_3 
REMARK    2  A    between atoms: O_3  and  C_4 
REMARK    3  A    between atoms: C_7  and  C_8 
REMARK       I    between atoms: C_8  and  N_9 
REMARK    4  A    between atoms: N_9  and  C_10 
REMARK    5  A    between atoms: N_11  and  C_12 
REMARK    6  A    between atoms: C_24  and  C_25 
ROOT
HETATM    1  C   UNL     1      41.833 -16.486   3.133  1.00  0.00     0.152 C 
HETATM    2  N   UNL     1      42.271 -16.465   1.809  1.00  0.00    -0.044 N 
HETATM    3  N   UNL     1      43.121 -17.519   1.558  1.00  0.00    -0.148 NA
HETATM    4  C   UNL     1      42.945 -18.326   2.611  1.00  0.00     0.115 C 
HETATM    5  C   UNL     1      42.115 -17.752   3.596  1.00  0.00     0.087 C 
ENDROOT
BRANCH   1   6
HETATM    6  N   UNL     1      41.246 -15.450   3.842  1.00  0.00    -0.307 N 
HETATM    7  C   UNL     1      42.026 -14.484   4.453  1.00  0.00     0.257 C 
HETATM    8  O   UNL     1      43.248 -14.400   4.430  1.00  0.00    -0.267 OA
HETATM    9  H   UNL     1      40.293 -15.568   4.165  1.00  0.00     0.170 HD
BRANCH   7  10
HETATM   10  C   UNL     1      41.273 -13.542   5.298  1.00  0.00     0.032 A 
HETATM   11  C   UNL     1      41.945 -12.505   5.955  1.00  0.00     0.020 A 
HETATM   12  C   UNL     1      41.214 -11.562   6.680  1.00  0.00     0.038 A 
HETATM   13  C   UNL     1      39.822 -11.653   6.730  1.00  0.00     0.069 A 
HETATM   14  C   UNL     1      39.163 -12.720   6.113  1.00  0.00     0.038 A 
HETATM   15  C   UNL     1      39.885 -13.659   5.376  1.00  0.00     0.020 A 
BRANCH  13  16
HETATM   16  O   UNL     1      39.023 -10.752   7.378  1.00  0.00    -0.347 OA
BRANCH  16  17
HETATM   17  C   UNL     1      39.387  -9.370   7.219  1.00  0.00     0.120 C 
HETATM   18  C   UNL     1      38.780  -8.623   8.405  1.00  0.00     0.040 C 
HETATM   19  C   UNL     1      38.836  -8.790   5.914  1.00  0.00     0.040 C 
ENDBRANCH  16  17
ENDBRANCH  13  16
ENDBRANCH   7  10
ENDBRANCH   1   6
BRANCH   2  20
HETATM   20  C   UNL     1      41.851 -15.679   0.713  1.00  0.00     0.732 A 
HETATM   21  N   UNL     1      41.419 -16.153  -0.413  1.00  0.00    -0.067 NA
HETATM   22  C   UNL     1      41.082 -15.226  -1.377  1.00  0.00     0.065 A 
HETATM   23  C   UNL     1      41.175 -13.893  -1.213  1.00  0.00     0.036 A 
HETATM   24  C   UNL     1      40.579 -15.816  -2.675  1.00  0.00     0.060 C 
HETATM   25  C   UNL     1      40.825 -12.880  -2.263  1.00  0.00     0.046 C 
HETATM   26  C   UNL     1      41.685 -13.386   0.082  1.00  0.00     0.268 A 
HETATM   27  C   UNL     1      40.679 -13.497  -3.655  1.00  0.00     0.005 C 
HETATM   28  C   UNL     1      39.894 -14.801  -3.594  1.00  0.00     0.006 C 
HETATM   29  O   UNL     1      41.805 -12.190   0.319  1.00  0.00    -0.267 OA
HETATM   30  N   UNL     1      42.022 -14.347   0.980  1.00  0.00    -0.152 N 
HETATM   31  H   UNL     1      42.399 -14.068   1.879  1.00  0.00     0.188 HD
ENDBRANCH   2  20
BRANCH   4  32
HETATM   32  C   UNL     1      43.595 -19.665   2.719  1.00  0.00     0.105 A 
HETATM   33  O   UNL     1      44.399 -20.053   3.757  1.00  0.00    -0.320 OA
HETATM   34  C   UNL     1      44.799 -21.325   3.502  1.00  0.00     0.142 A 
HETATM   35  C   UNL     1      44.269 -21.769   2.315  1.00  0.00     0.027 A 
HETATM   36  C   UNL     1      43.491 -20.699   1.808  1.00  0.00     0.041 A 
ENDBRANCH   4  32
TORSDOF 6
ENDMDL
MODEL 9
REMARK VINA RESULT:      -8.7      2.806      6.696
REMARK  6 active torsions:
REMARK  status: ('A' for Active; 'I' for Inactive)
REMARK    1  A    between atoms: C_2  and  O_3 
REMARK    2  A    between atoms: O_3  and  C_4 
REMARK    3  A    between atoms: C_7  and  C_8 
REMARK       I    between atoms: C_8  and  N_9 
REMARK    4  A    between atoms: N_9  and  C_10 
REMARK    5  A    between atoms: N_11  and  C_12 
REMARK    6  A    between atoms: C_24  and  C_25 
ROOT
HETATM    1  C   UNL     1      42.788 -15.774   2.565  1.00  0.00     0.152 C 
HETATM    2  N   UNL     1      42.477 -17.097   2.250  1.00  0.00    -0.044 N 
HETATM    3  N   UNL     1      41.663 -17.156   1.141  1.00  0.00    -0.148 NA
HETATM    4  C   UNL     1      41.746 -15.927   0.620  1.00  0.00     0.115 C 
HETATM    5  C   UNL     1      42.474 -15.043   1.442  1.00  0.00     0.087 C 
ENDROOT
BRANCH   1   6
HETATM    6  N   UNL     1      43.297 -15.292   3.761  1.00  0.00    -0.307 N 
HETATM    7  C   UNL     1      42.520 -14.501   4.588  1.00  0.00     0.257 C 
HETATM    8  O   UNL     1      41.355 -14.166   4.409  1.00  0.00    -0.267 OA
HETATM    9  H   UNL     1      44.303 -15.259   3.877  1.00  0.00     0.170 HD
BRANCH   7  10
HETATM   10  C   UNL     1      43.244 -13.934   5.740  1.00  0.00     0.032 A 
HETATM   11  C   UNL     1      42.684 -12.873   6.460  1.00  0.00     0.020 A 
HETATM   12  C   UNL     1      43.331 -12.401   7.604  1.00  0.00     0.038 A 
HETATM   13  C   UNL     1      44.519 -13.000   8.025  1.00  0.00     0.069 A 
HETATM   14  C   UNL     1      45.097 -14.026   7.271  1.00  0.00     0.038 A 
HETATM   15  C   UNL     1      44.451 -14.511   6.134  1.00  0.00     0.020 A 
BRANCH  13  16
HETATM   16  O   UNL     1      45.198 -12.634   9.155  1.00  0.00    -0.347 OA
BRANCH  16  17
HETATM   17  C   UNL     1      44.486 -11.769  10.056  1.00  0.00     0.120 C 
HETATM   18  C   UNL     1      45.384 -10.557  10.293  1.00  0.00     0.040 C 
HETATM   19  C   UNL     1      44.199 -12.461  11.391  1.00  0.00     0.040 C 
ENDBRANCH  16  17
ENDBRANCH  13  16
ENDBRANCH   7  10
ENDBRANCH   1   6
BRANCH   2  20
HETATM   20  C   UNL     1      42.992 -18.310   2.759  1.00  0.00     0.732 A 
HETATM   21  N   UNL     1      43.295 -18.520   4.001  1.00  0.00    -0.067 NA
HETATM   22  C   UNL     1      43.814 -19.762   4.302  1.00  0.00     0.065 A 
HETATM   23  C   UNL     1      44.015 -20.739   3.398  1.00  0.00     0.036 A 
HETATM   24  C   UNL     1      44.152 -19.972   5.760  1.00  0.00     0.060 C 
HETATM   25  C   UNL     1      44.593 -22.086   3.715  1.00  0.00     0.046 C 
HETATM   26  C   UNL     1      43.670 -20.460   1.984  1.00  0.00     0.268 A 
HETATM   27  C   UNL     1      45.256 -22.136   5.093  1.00  0.00     0.005 C 
HETATM   28  C   UNL     1      44.396 -21.435   6.137  1.00  0.00     0.006 C 
HETATM   29  O   UNL     1      43.820 -21.289   1.095  1.00  0.00    -0.267 OA
HETATM   30  N   UNL     1      43.186 -19.214   1.749  1.00  0.00    -0.152 N 
HETATM   31  H   UNL     1      42.951 -18.951   0.799  1.00  0.00     0.188 HD
ENDBRANCH   2  20
BRANCH   4  32
HETATM   32  C   UNL     1      41.100 -15.553  -0.672  1.00  0.00     0.105 A 
HETATM   33  O   UNL     1      41.195 -16.286  -1.825  1.00  0.00    -0.320 OA
HETATM   34  C   UNL     1      40.481 -15.632  -2.777  1.00  0.00     0.142 A 
HETATM   35  C   UNL     1      39.925 -14.485  -2.261  1.00  0.00     0.027 A 
HETATM   36  C   UNL     1      40.323 -14.434  -0.903  1.00  0.00     0.041 A 
ENDBRANCH   4  32
TORSDOF 6
ENDMDL
MODEL 10
REMARK VINA RESULT:      -8.7      3.168      9.897
REMARK  6 active torsions:
REMARK  status: ('A' for Active; 'I' for Inactive)
REMARK    1  A    between atoms: C_2  and  O_3 
REMARK    2  A    between atoms: O_3  and  C_4 
REMARK    3  A    between atoms: C_7  and  C_8 
REMARK       I    between atoms: C_8  and  N_9 
REMARK    4  A    between atoms: N_9  and  C_10 
REMARK    5  A    between atoms: N_11  and  C_12 
REMARK    6  A    between atoms: C_24  and  C_25 
ROOT
HETATM    1  C   UNL     1      41.308 -12.748   4.071  1.00  0.00     0.152 C 
HETATM    2  N   UNL     1      42.268 -13.567   4.665  1.00  0.00    -0.044 N 
HETATM    3  N   UNL     1      42.695 -13.032   5.860  1.00  0.00    -0.148 NA
HETATM    4  C   UNL     1      41.786 -12.087   6.127  1.00  0.00     0.115 C 
HETATM    5  C   UNL     1      40.873 -11.905   5.068  1.00  0.00     0.087 C 
ENDROOT
BRANCH   1   6
HETATM    6  N   UNL     1      40.884 -12.769   2.751  1.00  0.00    -0.307 N 
HETATM    7  C   UNL     1      39.916 -13.666   2.338  1.00  0.00     0.257 C 
HETATM    8  O   UNL     1      39.322 -14.484   3.031  1.00  0.00    -0.267 OA
HETATM    9  H   UNL     1      41.484 -12.357   2.047  1.00  0.00     0.170 HD
BRANCH   7  10
HETATM   10  C   UNL     1      39.683 -13.679   0.883  1.00  0.00     0.032 A 
HETATM   11  C   UNL     1      40.771 -13.629   0.004  1.00  0.00     0.020 A 
HETATM   12  C   UNL     1      40.550 -13.733  -1.371  1.00  0.00     0.038 A 
HETATM   13  C   UNL     1      39.250 -13.902  -1.853  1.00  0.00     0.069 A 
HETATM   14  C   UNL     1      38.166 -13.902  -0.971  1.00  0.00     0.038 A 
HETATM   15  C   UNL     1      38.379 -13.810   0.404  1.00  0.00     0.020 A 
BRANCH  13  16
HETATM   16  O   UNL     1      38.943 -14.057  -3.177  1.00  0.00    -0.347 OA
BRANCH  16  17
HETATM   17  C   UNL     1      38.037 -15.130  -3.485  1.00  0.00     0.120 C 
HETATM   18  C   UNL     1      38.825 -16.134  -4.324  1.00  0.00     0.040 C 
HETATM   19  C   UNL     1      36.828 -14.634  -4.281  1.00  0.00     0.040 C 
ENDBRANCH  16  17
ENDBRANCH  13  16
ENDBRANCH   7  10
ENDBRANCH   1   6
BRANCH   2  20
HETATM   20  C   UNL     1      42.702 -14.869   4.331  1.00  0.00     0.732 A 
HETATM   21  N   UNL     1      42.723 -15.355   3.130  1.00  0.00    -0.067 NA
HETATM   22  C   UNL     1      43.152 -16.659   3.006  1.00  0.00     0.065 A 
HETATM   23  C   UNL     1      43.539 -17.432   4.038  1.00  0.00     0.036 A 
HETATM   24  C   UNL     1      43.168 -17.190   1.591  1.00  0.00     0.060 C 
HETATM   25  C   UNL     1      43.992 -18.856   3.912  1.00  0.00     0.046 C 
HETATM   26  C   UNL     1      43.489 -16.849   5.399  1.00  0.00     0.268 A 
HETATM   27  C   UNL     1      43.650 -19.468   2.552  1.00  0.00     0.005 C 
HETATM   28  C   UNL     1      43.956 -18.492   1.423  1.00  0.00     0.006 C 
HETATM   29  O   UNL     1      43.821 -17.479   6.397  1.00  0.00    -0.267 OA
HETATM   30  N   UNL     1      43.037 -15.571   5.458  1.00  0.00    -0.152 N 
HETATM   31  H   UNL     1      42.957 -15.120   6.363  1.00  0.00     0.188 HD
ENDBRANCH   2  20
BRANCH   4  32
HETATM   32  C   UNL     1      41.784 -11.305   7.398  1.00  0.00     0.105 A 
HETATM   33  O   UNL     1      42.904 -11.022   8.133  1.00  0.00    -0.320 OA
HETATM   34  C   UNL     1      42.506 -10.299   9.211  1.00  0.00     0.142 A 
HETATM   35  C   UNL     1      41.145 -10.109   9.188  1.00  0.00     0.027 A 
HETATM   36  C   UNL     1      40.678 -10.757   8.019  1.00  0.00     0.041 A 
ENDBRANCH   4  32
TORSDOF 6
ENDMDL
