MODEL 1
REMARK VINA RESULT:      -8.3      0.000      0.000
REMARK  5 active torsions:
REMARK  status: ('A' for Active; 'I' for Inactive)
REMARK    1  A    between atoms: C_2  and  O_3 
REMARK    2  A    between atoms: C_2  and  C_4 
REMARK    3  A    between atoms: C_7  and  N_8 
REMARK    4  A    between atoms: N_12  and  C_13 
REMARK    5  A    between atoms: C_13  and  C_14 
ROOT
HETATM    1  N   UNL     1      43.187 -17.494   2.322  1.00  0.00    -0.367 N 
HETATM    2  C   UNL     1      41.830 -17.830   1.844  1.00  0.00     0.127 C 
HETATM    3  C   UNL     1      41.310 -16.809   0.843  1.00  0.00     0.057 C 
HETATM    4  C   UNL     1      41.336 -15.341   1.333  1.00  0.00     0.075 C 
HETATM    5  N   UNL     1      40.249 -14.948   2.311  1.00  0.00    -0.398 N 
HETATM    6  C   UNL     1      38.870 -15.078   1.768  1.00  0.00     0.124 C 
HETATM    7  C   UNL     1      38.598 -14.103   0.595  1.00  0.00     0.078 C 
HETATM    8  C   UNL     1      39.815 -13.959  -0.217  1.00  0.00     0.037 A 
HETATM    9  C   UNL     1      41.056 -14.475   0.100  1.00  0.00     0.061 A 
HETATM   10  N   UNL     1      41.895 -14.085  -0.933  1.00  0.00    -0.352 N 
HETATM   11  H   UNL     1      42.883 -14.305  -1.024  1.00  0.00     0.166 HD
HETATM   12  C   UNL     1      41.229 -13.334  -1.823  1.00  0.00     0.181 A 
HETATM   13  N   UNL     1      39.965 -13.265  -1.399  1.00  0.00    -0.354 N 
HETATM   14  H   UNL     1      39.227 -12.751  -1.878  1.00  0.00     0.166 HD
HETATM   15  C   UNL     1      42.778 -15.059   1.823  1.00  0.00     0.057 C 
HETATM   16  C   UNL     1      43.387 -16.103   2.764  1.00  0.00     0.127 C 
ENDROOT
BRANCH   5  17
HETATM   17  C   UNL     1      40.384 -15.331   3.719  1.00  0.00     0.122 C 
BRANCH  17  18
HETATM   18  C   UNL     1      40.518 -14.206   4.778  1.00  0.00    -0.005 C 
HETATM   19  C   UNL     1      41.723 -14.500   5.681  1.00  0.00     0.011 C 
HETATM   20  C   UNL     1      40.682 -12.826   4.138  1.00  0.00     0.011 C 
ENDBRANCH  17  18
ENDBRANCH   5  17
BRANCH   1  21
HETATM   21  C   UNL     1      43.779 -18.494   3.131  1.00  0.00     0.103 A 
HETATM   22  N   UNL     1      44.051 -19.718   2.645  1.00  0.00    -0.344 N 
HETATM   23  C   UNL     1      44.657 -20.711   3.323  1.00  0.00     0.039 A 
HETATM   24  H   UNL     1      43.801 -19.988   1.692  1.00  0.00     0.167 HD
HETATM   25  C   UNL     1      45.015 -20.521   4.649  1.00  0.00     0.028 A 
HETATM   26  C   UNL     1      44.720 -19.304   5.241  1.00  0.00     0.006 A 
HETATM   27  C   UNL     1      44.100 -18.300   4.493  1.00  0.00     0.048 A 
BRANCH  23  28
HETATM   28  C   UNL     1      44.893 -21.968   2.537  1.00  0.00     0.163 C 
HETATM   29  C   UNL     1      43.943 -22.106   1.358  1.00  0.00     0.046 C 
BRANCH  28  30
HETATM   30  O   UNL     1      44.633 -23.042   3.464  1.00  0.00    -0.390 OA
HETATM   31  H   UNL     1      44.426 -22.614   4.323  1.00  0.00     0.210 HD
ENDBRANCH  28  30
ENDBRANCH  23  28
ENDBRANCH   1  21
TORSDOF 5
ENDMDL
MODEL 2
REMARK VINA RESULT:      -8.3      2.696      7.112
REMARK  5 active torsions:
REMARK  status: ('A' for Active; 'I' for Inactive)
REMARK    1  A    between atoms: C_2  and  O_3 
REMARK    2  A    between atoms: C_2  and  C_4 
REMARK    3  A    between atoms: C_7  and  N_8 
REMARK    4  A    between atoms: N_12  and  C_13 
REMARK    5  A    between atoms: C_13  and  C_14 
ROOT
HETATM    1  N   UNL     1      42.295 -16.585   0.712  1.00  0.00    -0.367 N 
HETATM    2  C   UNL     1      43.608 -16.497   1.383  1.00  0.00     0.127 C 
HETATM    3  C   UNL     1      44.139 -17.868   1.775  1.00  0.00     0.057 C 
HETATM    4  C   UNL     1      43.177 -18.720   2.636  1.00  0.00     0.075 C 
HETATM    5  N   UNL     1      43.071 -18.334   4.096  1.00  0.00    -0.398 N 
HETATM    6  C   UNL     1      44.351 -18.447   4.845  1.00  0.00     0.124 C 
HETATM    7  C   UNL     1      44.855 -19.908   4.948  1.00  0.00     0.078 C 
HETATM    8  C   UNL     1      44.540 -20.624   3.704  1.00  0.00     0.037 A 
HETATM    9  C   UNL     1      43.771 -20.133   2.668  1.00  0.00     0.061 A 
HETATM   10  N   UNL     1      43.731 -21.146   1.722  1.00  0.00    -0.352 N 
HETATM   11  H   UNL     1      43.257 -21.115   0.824  1.00  0.00     0.166 HD
HETATM   12  C   UNL     1      44.400 -22.224   2.157  1.00  0.00     0.181 A 
HETATM   13  N   UNL     1      44.902 -21.908   3.354  1.00  0.00    -0.354 N 
HETATM   14  H   UNL     1      45.457 -22.542   3.928  1.00  0.00     0.166 HD
HETATM   15  C   UNL     1      41.825 -18.766   1.880  1.00  0.00     0.057 C 
HETATM   16  C   UNL     1      41.285 -17.422   1.382  1.00  0.00     0.127 C 
ENDROOT
BRANCH   5  17
HETATM   17  C   UNL     1      42.248 -17.181   4.470  1.00  0.00     0.122 C 
BRANCH  17  18
HETATM   18  C   UNL     1      42.942 -15.976   5.158  1.00  0.00    -0.005 C 
HETATM   19  C   UNL     1      42.527 -14.680   4.451  1.00  0.00     0.011 C 
HETATM   20  C   UNL     1      42.596 -15.881   6.646  1.00  0.00     0.011 C 
ENDBRANCH  17  18
ENDBRANCH   5  17
BRANCH   1  21
HETATM   21  C   UNL     1      41.833 -15.355   0.185  1.00  0.00     0.103 A 
HETATM   22  N   UNL     1      41.674 -15.175  -1.138  1.00  0.00    -0.344 N 
HETATM   23  C   UNL     1      41.194 -14.061  -1.723  1.00  0.00     0.039 A 
HETATM   24  H   UNL     1      41.924 -15.898  -1.815  1.00  0.00     0.167 HD
HETATM   25  C   UNL     1      40.855 -12.965  -0.945  1.00  0.00     0.028 A 
HETATM   26  C   UNL     1      41.039 -13.051   0.425  1.00  0.00     0.006 A 
HETATM   27  C   UNL     1      41.532 -14.232   0.987  1.00  0.00     0.048 A 
BRANCH  23  28
HETATM   28  C   UNL     1      41.066 -14.130  -3.218  1.00  0.00     0.163 C 
HETATM   29  C   UNL     1      39.774 -14.798  -3.662  1.00  0.00     0.046 C 
BRANCH  28  30
HETATM   30  O   UNL     1      42.175 -14.944  -3.650  1.00  0.00    -0.390 OA
HETATM   31  H   UNL     1      42.789 -14.994  -2.885  1.00  0.00     0.210 HD
ENDBRANCH  28  30
ENDBRANCH  23  28
ENDBRANCH   1  21
TORSDOF 5
ENDMDL
MODEL 3
REMARK VINA RESULT:      -8.2      4.233      7.084
REMARK  5 active torsions:
REMARK  status: ('A' for Active; 'I' for Inactive)
REMARK    1  A    between atoms: C_2  and  O_3 
REMARK    2  A    between atoms: C_2  and  C_4 
REMARK    3  A    between atoms: C_7  and  N_8 
REMARK    4  A    between atoms: N_12  and  C_13 
REMARK    5  A    between atoms: C_13  and  C_14 
ROOT
HETATM    1  N   UNL     1      43.497 -13.987   6.144  1.00  0.00    -0.367 N 
HETATM    2  C   UNL     1      44.062 -14.126   4.787  1.00  0.00     0.127 C 
HETATM    3  C   UNL     1      43.011 -14.553   3.773  1.00  0.00     0.057 C 
HETATM    4  C   UNL     1      42.233 -15.838   4.141  1.00  0.00     0.075 C 
HETATM    5  N   UNL     1      42.971 -17.144   3.938  1.00  0.00    -0.398 N 
HETATM    6  C   UNL     1      43.364 -17.404   2.526  1.00  0.00     0.124 C 
HETATM    7  C   UNL     1      42.142 -17.591   1.593  1.00  0.00     0.078 C 
HETATM    8  C   UNL     1      41.059 -16.692   2.015  1.00  0.00     0.037 A 
HETATM    9  C   UNL     1      41.058 -15.920   3.159  1.00  0.00     0.061 A 
HETATM   10  N   UNL     1      39.842 -15.253   3.156  1.00  0.00    -0.352 N 
HETATM   11  H   UNL     1      39.515 -14.589   3.853  1.00  0.00     0.166 HD
HETATM   12  C   UNL     1      39.107 -15.617   2.095  1.00  0.00     0.181 A 
HETATM   13  N   UNL     1      39.846 -16.481   1.393  1.00  0.00    -0.354 N 
HETATM   14  H   UNL     1      39.539 -16.930   0.532  1.00  0.00     0.166 HD
HETATM   15  C   UNL     1      41.674 -15.628   5.570  1.00  0.00     0.057 C 
HETATM   16  C   UNL     1      42.669 -15.111   6.614  1.00  0.00     0.127 C 
ENDROOT
BRANCH   5  17
HETATM   17  C   UNL     1      43.964 -17.564   4.930  1.00  0.00     0.122 C 
BRANCH  17  18
HETATM   18  C   UNL     1      43.744 -18.911   5.666  1.00  0.00    -0.005 C 
HETATM   19  C   UNL     1      44.721 -19.956   5.114  1.00  0.00     0.011 C 
HETATM   20  C   UNL     1      43.932 -18.782   7.179  1.00  0.00     0.011 C 
ENDBRANCH  17  18
ENDBRANCH   5  17
BRANCH   1  21
HETATM   21  C   UNL     1      44.395 -13.438   7.090  1.00  0.00     0.103 A 
HETATM   22  N   UNL     1      43.971 -13.008   8.292  1.00  0.00    -0.344 N 
HETATM   23  C   UNL     1      44.758 -12.522   9.270  1.00  0.00     0.039 A 
HETATM   24  H   UNL     1      42.983 -13.018   8.550  1.00  0.00     0.167 HD
HETATM   25  C   UNL     1      46.122 -12.395   9.059  1.00  0.00     0.028 A 
HETATM   26  C   UNL     1      46.632 -12.766   7.825  1.00  0.00     0.006 A 
HETATM   27  C   UNL     1      45.777 -13.275   6.844  1.00  0.00     0.048 A 
BRANCH  23  28
HETATM   28  C   UNL     1      44.044 -12.157  10.540  1.00  0.00     0.163 C 
HETATM   29  C   UNL     1      44.547 -10.852  11.137  1.00  0.00     0.046 C 
BRANCH  28  30
HETATM   30  O   UNL     1      44.346 -13.227  11.458  1.00  0.00    -0.390 OA
HETATM   31  H   UNL     1      44.995 -13.804  10.998  1.00  0.00     0.210 HD
ENDBRANCH  28  30
ENDBRANCH  23  28
ENDBRANCH   1  21
TORSDOF 5
ENDMDL
MODEL 4
REMARK VINA RESULT:      -8.2      2.145      4.291
REMARK  5 active torsions:
REMARK  status: ('A' for Active; 'I' for Inactive)
REMARK    1  A    between atoms: C_2  and  O_3 
REMARK    2  A    between atoms: C_2  and  C_4 
REMARK    3  A    between atoms: C_7  and  N_8 
REMARK    4  A    between atoms: N_12  and  C_13 
REMARK    5  A    between atoms: C_13  and  C_14 
ROOT
HETATM    1  N   UNL     1      42.681 -17.873   5.639  1.00  0.00    -0.367 N 
HETATM    2  C   UNL     1      43.593 -16.713   5.566  1.00  0.00     0.127 C 
HETATM    3  C   UNL     1      42.868 -15.401   5.826  1.00  0.00     0.057 C 
HETATM    4  C   UNL     1      41.636 -15.146   4.925  1.00  0.00     0.075 C 
HETATM    5  N   UNL     1      41.930 -14.711   3.505  1.00  0.00    -0.398 N 
HETATM    6  C   UNL     1      42.669 -13.423   3.406  1.00  0.00     0.124 C 
HETATM    7  C   UNL     1      41.844 -12.222   3.932  1.00  0.00     0.078 C 
HETATM    8  C   UNL     1      41.039 -12.647   5.086  1.00  0.00     0.037 A 
HETATM    9  C   UNL     1      40.904 -13.945   5.535  1.00  0.00     0.061 A 
HETATM   10  N   UNL     1      40.049 -13.874   6.625  1.00  0.00    -0.352 N 
HETATM   11  H   UNL     1      39.742 -14.651   7.204  1.00  0.00     0.166 HD
HETATM   12  C   UNL     1      39.640 -12.612   6.822  1.00  0.00     0.181 A 
HETATM   13  N   UNL     1      40.247 -11.862   5.898  1.00  0.00    -0.354 N 
HETATM   14  H   UNL     1      40.120 -10.856   5.803  1.00  0.00     0.166 HD
HETATM   15  C   UNL     1      40.729 -16.396   5.043  1.00  0.00     0.057 C 
HETATM   16  C   UNL     1      41.424 -17.751   4.879  1.00  0.00     0.127 C 
ENDROOT
BRANCH   5  17
HETATM   17  C   UNL     1      42.334 -15.719   2.521  1.00  0.00     0.122 C 
BRANCH  17  18
HETATM   18  C   UNL     1      41.371 -16.026   1.345  1.00  0.00    -0.005 C 
HETATM   19  C   UNL     1      41.178 -17.543   1.230  1.00  0.00     0.011 C 
HETATM   20  C   UNL     1      40.011 -15.348   1.518  1.00  0.00     0.011 C 
ENDBRANCH  17  18
ENDBRANCH   5  17
BRANCH   1  21
HETATM   21  C   UNL     1      43.333 -19.127   5.564  1.00  0.00     0.103 A 
HETATM   22  N   UNL     1      43.698 -19.657   4.384  1.00  0.00    -0.344 N 
HETATM   23  C   UNL     1      44.365 -20.815   4.220  1.00  0.00     0.039 A 
HETATM   24  H   UNL     1      43.480 -19.201   3.497  1.00  0.00     0.167 HD
HETATM   25  C   UNL     1      44.693 -21.584   5.326  1.00  0.00     0.028 A 
HETATM   26  C   UNL     1      44.305 -21.133   6.578  1.00  0.00     0.006 A 
HETATM   27  C   UNL     1      43.622 -19.919   6.697  1.00  0.00     0.048 A 
BRANCH  23  28
HETATM   28  C   UNL     1      44.701 -21.163   2.798  1.00  0.00     0.163 C 
HETATM   29  C   UNL     1      43.719 -20.563   1.804  1.00  0.00     0.046 C 
BRANCH  28  30
HETATM   30  O   UNL     1      44.602 -22.599   2.732  1.00  0.00    -0.390 OA
HETATM   31  H   UNL     1      44.733 -22.838   1.789  1.00  0.00     0.210 HD
ENDBRANCH  28  30
ENDBRANCH  23  28
ENDBRANCH   1  21
TORSDOF 5
ENDMDL
MODEL 5
REMARK VINA RESULT:      -8.1      1.591      2.366
REMARK  5 active torsions:
REMARK  status: ('A' for Active; 'I' for Inactive)
REMARK    1  A    between atoms: C_2  and  O_3 
REMARK    2  A    between atoms: C_2  and  C_4 
REMARK    3  A    between atoms: C_7  and  N_8 
REMARK    4  A    between atoms: N_12  and  C_13 
REMARK    5  A    between atoms: C_13  and  C_14 
ROOT
HETATM    1  N   UNL     1      43.121 -18.721   1.769  1.00  0.00    -0.367 N 
HETATM    2  C   UNL     1      41.655 -18.588   1.894  1.00  0.00     0.127 C 
HETATM    3  C   UNL     1      41.114 -17.443   1.051  1.00  0.00     0.057 C 
HETATM    4  C   UNL     1      41.779 -16.070   1.308  1.00  0.00     0.075 C 
HETATM    5  N   UNL     1      41.355 -15.351   2.571  1.00  0.00    -0.398 N 
HETATM    6  C   UNL     1      39.905 -15.016   2.618  1.00  0.00     0.124 C 
HETATM    7  C   UNL     1      39.495 -13.995   1.529  1.00  0.00     0.078 C 
HETATM    8  C   UNL     1      40.262 -14.251   0.301  1.00  0.00     0.037 A 
HETATM    9  C   UNL     1      41.304 -15.148   0.180  1.00  0.00     0.061 A 
HETATM   10  N   UNL     1      41.731 -15.045  -1.136  1.00  0.00    -0.352 N 
HETATM   11  H   UNL     1      42.480 -15.576  -1.572  1.00  0.00     0.166 HD
HETATM   12  C   UNL     1      41.026 -14.108  -1.788  1.00  0.00     0.181 A 
HETATM   13  N   UNL     1      40.126 -13.632  -0.924  1.00  0.00    -0.354 N 
HETATM   14  H   UNL     1      39.452 -12.900  -1.143  1.00  0.00     0.166 HD
HETATM   15  C   UNL     1      43.307 -16.282   1.168  1.00  0.00     0.057 C 
HETATM   16  C   UNL     1      43.894 -17.477   1.925  1.00  0.00     0.127 C 
ENDROOT
BRANCH   5  17
HETATM   17  C   UNL     1      41.922 -15.772   3.855  1.00  0.00     0.122 C 
BRANCH  17  18
HETATM   18  C   UNL     1      40.984 -16.455   4.884  1.00  0.00    -0.005 C 
HETATM   19  C   UNL     1      41.616 -17.773   5.350  1.00  0.00     0.011 C 
HETATM   20  C   UNL     1      40.707 -15.563   6.096  1.00  0.00     0.011 C 
ENDBRANCH  17  18
ENDBRANCH   5  17
BRANCH   1  21
HETATM   21  C   UNL     1      43.653 -19.867   2.406  1.00  0.00     0.103 A 
HETATM   22  N   UNL     1      44.021 -19.844   3.699  1.00  0.00    -0.344 N 
HETATM   23  C   UNL     1      44.487 -20.896   4.398  1.00  0.00     0.039 A 
HETATM   24  H   UNL     1      43.973 -18.991   4.258  1.00  0.00     0.167 HD
HETATM   25  C   UNL     1      44.659 -22.120   3.769  1.00  0.00     0.028 A 
HETATM   26  C   UNL     1      44.354 -22.214   2.421  1.00  0.00     0.006 A 
HETATM   27  C   UNL     1      43.864 -21.096   1.741  1.00  0.00     0.048 A 
BRANCH  23  28
HETATM   28  C   UNL     1      44.778 -20.622   5.845  1.00  0.00     0.163 C 
HETATM   29  C   UNL     1      43.675 -21.119   6.766  1.00  0.00     0.046 C 
BRANCH  28  30
HETATM   30  O   UNL     1      44.847 -19.186   5.946  1.00  0.00    -0.390 OA
HETATM   31  H   UNL     1      43.920 -18.866   5.906  1.00  0.00     0.210 HD
ENDBRANCH  28  30
ENDBRANCH  23  28
ENDBRANCH   1  21
TORSDOF 5
ENDMDL
MODEL 6
REMARK VINA RESULT:      -8.1      2.936      7.181
REMARK  5 active torsions:
REMARK  status: ('A' for Active; 'I' for Inactive)
REMARK    1  A    between atoms: C_2  and  O_3 
REMARK    2  A    between atoms: C_2  and  C_4 
REMARK    3  A    between atoms: C_7  and  N_8 
REMARK    4  A    between atoms: N_12  and  C_13 
REMARK    5  A    between atoms: C_13  and  C_14 
ROOT
HETATM    1  N   UNL     1      40.722 -14.254   1.862  1.00  0.00    -0.367 N 
HETATM    2  C   UNL     1      40.024 -14.854   3.017  1.00  0.00     0.127 C 
HETATM    3  C   UNL     1      40.877 -14.825   4.276  1.00  0.00     0.057 C 
HETATM    4  C   UNL     1      42.278 -15.466   4.132  1.00  0.00     0.075 C 
HETATM    5  N   UNL     1      42.320 -16.979   4.129  1.00  0.00    -0.398 N 
HETATM    6  C   UNL     1      41.814 -17.600   5.383  1.00  0.00     0.124 C 
HETATM    7  C   UNL     1      42.698 -17.269   6.611  1.00  0.00     0.078 C 
HETATM    8  C   UNL     1      43.203 -15.894   6.496  1.00  0.00     0.037 A 
HETATM    9  C   UNL     1      43.056 -15.076   5.394  1.00  0.00     0.061 A 
HETATM   10  N   UNL     1      43.696 -13.890   5.724  1.00  0.00    -0.352 N 
HETATM   11  H   UNL     1      43.770 -13.060   5.141  1.00  0.00     0.166 HD
HETATM   12  C   UNL     1      44.246 -13.975   6.944  1.00  0.00     0.181 A 
HETATM   13  N   UNL     1      43.939 -15.184   7.421  1.00  0.00    -0.354 N 
HETATM   14  H   UNL     1      44.231 -15.531   8.334  1.00  0.00     0.166 HD
HETATM   15  C   UNL     1      42.949 -14.798   2.906  1.00  0.00     0.057 C 
HETATM   16  C   UNL     1      42.101 -14.719   1.633  1.00  0.00     0.127 C 
ENDROOT
BRANCH   5  17
HETATM   17  C   UNL     1      41.958 -17.699   2.906  1.00  0.00     0.122 C 
BRANCH  17  18
HETATM   18  C   UNL     1      43.017 -18.631   2.261  1.00  0.00    -0.005 C 
HETATM   19  C   UNL     1      43.734 -17.879   1.133  1.00  0.00     0.011 C 
HETATM   20  C   UNL     1      44.045 -19.131   3.278  1.00  0.00     0.011 C 
ENDBRANCH  17  18
ENDBRANCH   5  17
BRANCH   1  21
HETATM   21  C   UNL     1      39.915 -14.112   0.709  1.00  0.00     0.103 A 
HETATM   22  N   UNL     1      40.381 -14.416  -0.515  1.00  0.00    -0.344 N 
HETATM   23  C   UNL     1      39.671 -14.360  -1.658  1.00  0.00     0.039 A 
HETATM   24  H   UNL     1      41.345 -14.716  -0.666  1.00  0.00     0.167 HD
HETATM   25  C   UNL     1      38.356 -13.923  -1.632  1.00  0.00     0.028 A 
HETATM   26  C   UNL     1      37.816 -13.539  -0.416  1.00  0.00     0.006 A 
HETATM   27  C   UNL     1      38.589 -13.624   0.745  1.00  0.00     0.048 A 
BRANCH  23  28
HETATM   28  C   UNL     1      40.409 -14.801  -2.890  1.00  0.00     0.163 C 
HETATM   29  C   UNL     1      39.559 -15.680  -3.794  1.00  0.00     0.046 C 
BRANCH  28  30
HETATM   30  O   UNL     1      41.517 -15.582  -2.400  1.00  0.00    -0.390 OA
HETATM   31  H   UNL     1      41.370 -15.689  -1.435  1.00  0.00     0.210 HD
ENDBRANCH  28  30
ENDBRANCH  23  28
ENDBRANCH   1  21
TORSDOF 5
ENDMDL
MODEL 7
REMARK VINA RESULT:      -8.0      1.969      2.847
REMARK  5 active torsions:
REMARK  status: ('A' for Active; 'I' for Inactive)
REMARK    1  A    between atoms: C_2  and  O_3 
REMARK    2  A    between atoms: C_2  and  C_4 
REMARK    3  A    between atoms: C_7  and  N_8 
REMARK    4  A    between atoms: N_12  and  C_13 
REMARK    5  A    between atoms: C_13  and  C_14 
ROOT
HETATM    1  N   UNL     1      42.768 -17.580   2.989  1.00  0.00    -0.367 N 
HETATM    2  C   UNL     1      41.292 -17.614   2.950  1.00  0.00     0.127 C 
HETATM    3  C   UNL     1      40.740 -16.961   1.692  1.00  0.00     0.057 C 
HETATM    4  C   UNL     1      41.230 -15.515   1.438  1.00  0.00     0.075 C 
HETATM    5  N   UNL     1      40.590 -14.437   2.287  1.00  0.00    -0.398 N 
HETATM    6  C   UNL     1      39.119 -14.313   2.100  1.00  0.00     0.124 C 
HETATM    7  C   UNL     1      38.739 -13.847   0.672  1.00  0.00     0.078 C 
HETATM    8  C   UNL     1      39.666 -14.440  -0.302  1.00  0.00     0.037 A 
HETATM    9  C   UNL     1      40.800 -15.164   0.009  1.00  0.00     0.061 A 
HETATM   10  N   UNL     1      41.366 -15.509  -1.209  1.00  0.00    -0.352 N 
HETATM   11  H   UNL     1      42.210 -16.056  -1.350  1.00  0.00     0.166 HD
HETATM   12  C   UNL     1      40.652 -14.996  -2.223  1.00  0.00     0.181 A 
HETATM   13  N   UNL     1      39.614 -14.357  -1.677  1.00  0.00    -0.354 N 
HETATM   14  H   UNL     1      38.900 -13.864  -2.211  1.00  0.00     0.166 HD
HETATM   15  C   UNL     1      42.777 -15.551   1.498  1.00  0.00     0.057 C 
HETATM   16  C   UNL     1      43.389 -16.276   2.700  1.00  0.00     0.127 C 
ENDROOT
BRANCH   5  17
HETATM   17  C   UNL     1      41.042 -14.257   3.669  1.00  0.00     0.122 C 
BRANCH  17  18
HETATM   18  C   UNL     1      40.011 -14.450   4.811  1.00  0.00    -0.005 C 
HETATM   19  C   UNL     1      40.553 -15.472   5.818  1.00  0.00     0.011 C 
HETATM   20  C   UNL     1      39.694 -13.139   5.533  1.00  0.00     0.011 C 
ENDBRANCH  17  18
ENDBRANCH   5  17
BRANCH   1  21
HETATM   21  C   UNL     1      43.334 -18.315   4.058  1.00  0.00     0.103 A 
HETATM   22  N   UNL     1      43.158 -17.941   5.338  1.00  0.00    -0.344 N 
HETATM   23  C   UNL     1      43.614 -18.604   6.416  1.00  0.00     0.039 A 
HETATM   24  H   UNL     1      42.649 -17.090   5.585  1.00  0.00     0.167 HD
HETATM   25  C   UNL     1      44.369 -19.755   6.249  1.00  0.00     0.028 A 
HETATM   26  C   UNL     1      44.643 -20.179   4.959  1.00  0.00     0.006 A 
HETATM   27  C   UNL     1      44.138 -19.462   3.871  1.00  0.00     0.048 A 
BRANCH  23  28
HETATM   28  C   UNL     1      43.238 -18.005   7.741  1.00  0.00     0.163 C 
HETATM   29  C   UNL     1      43.558 -16.520   7.821  1.00  0.00     0.046 C 
BRANCH  28  30
HETATM   30  O   UNL     1      44.046 -18.702   8.709  1.00  0.00    -0.390 OA
HETATM   31  H   UNL     1      43.522 -18.718   9.539  1.00  0.00     0.210 HD
ENDBRANCH  28  30
ENDBRANCH  23  28
ENDBRANCH   1  21
TORSDOF 5
ENDMDL
MODEL 8
REMARK VINA RESULT:      -7.8      2.059      4.179
REMARK  5 active torsions:
REMARK  status: ('A' for Active; 'I' for Inactive)
REMARK    1  A    between atoms: C_2  and  O_3 
REMARK    2  A    between atoms: C_2  and  C_4 
REMARK    3  A    between atoms: C_7  and  N_8 
REMARK    4  A    between atoms: N_12  and  C_13 
REMARK    5  A    between atoms: C_13  and  C_14 
ROOT
HETATM    1  N   UNL     1      42.880 -16.957   3.907  1.00  0.00    -0.367 N 
HETATM    2  C   UNL     1      43.460 -15.819   3.166  1.00  0.00     0.127 C 
HETATM    3  C   UNL     1      43.090 -14.483   3.793  1.00  0.00     0.057 C 
HETATM    4  C   UNL     1      41.573 -14.251   3.987  1.00  0.00     0.075 C 
HETATM    5  N   UNL     1      40.789 -13.893   2.742  1.00  0.00    -0.398 N 
HETATM    6  C   UNL     1      41.225 -12.625   2.097  1.00  0.00     0.124 C 
HETATM    7  C   UNL     1      40.969 -11.385   2.989  1.00  0.00     0.078 C 
HETATM    8  C   UNL     1      41.199 -11.737   4.398  1.00  0.00     0.037 A 
HETATM    9  C   UNL     1      41.442 -13.009   4.876  1.00  0.00     0.061 A 
HETATM   10  N   UNL     1      41.582 -12.868   6.249  1.00  0.00    -0.352 N 
HETATM   11  H   UNL     1      41.780 -13.610   6.916  1.00  0.00     0.166 HD
HETATM   12  C   UNL     1      41.396 -11.591   6.614  1.00  0.00     0.181 A 
HETATM   13  N   UNL     1      41.176 -10.899   5.493  1.00  0.00    -0.354 N 
HETATM   14  H   UNL     1      40.996  -9.896   5.464  1.00  0.00     0.166 HD
HETATM   15  C   UNL     1      41.030 -15.477   4.762  1.00  0.00     0.057 C 
HETATM   16  C   UNL     1      41.446 -16.851   4.228  1.00  0.00     0.127 C 
ENDROOT
BRANCH   5  17
HETATM   17  C   UNL     1      40.420 -14.956   1.803  1.00  0.00     0.122 C 
BRANCH  17  18
HETATM   18  C   UNL     1      40.991 -14.895   0.363  1.00  0.00    -0.005 C 
HETATM   19  C   UNL     1      41.485 -16.289  -0.046  1.00  0.00     0.011 C 
HETATM   20  C   UNL     1      39.958 -14.400  -0.650  1.00  0.00     0.011 C 
ENDBRANCH  17  18
ENDBRANCH   5  17
BRANCH   1  21
HETATM   21  C   UNL     1      43.325 -18.224   3.461  1.00  0.00     0.103 A 
HETATM   22  N   UNL     1      43.931 -19.088   4.294  1.00  0.00    -0.344 N 
HETATM   23  C   UNL     1      44.340 -20.329   3.971  1.00  0.00     0.039 A 
HETATM   24  H   UNL     1      44.135 -18.847   5.265  1.00  0.00     0.167 HD
HETATM   25  C   UNL     1      44.182 -20.791   2.674  1.00  0.00     0.028 A 
HETATM   26  C   UNL     1      43.614 -19.942   1.739  1.00  0.00     0.006 A 
HETATM   27  C   UNL     1      43.196 -18.665   2.125  1.00  0.00     0.048 A 
BRANCH  23  28
HETATM   28  C   UNL     1      44.944 -21.116   5.099  1.00  0.00     0.163 C 
HETATM   29  C   UNL     1      44.886 -22.616   4.860  1.00  0.00     0.046 C 
BRANCH  28  30
HETATM   30  O   UNL     1      44.133 -20.802   6.249  1.00  0.00    -0.390 OA
HETATM   31  H   UNL     1      44.201 -19.830   6.372  1.00  0.00     0.210 HD
ENDBRANCH  28  30
ENDBRANCH  23  28
ENDBRANCH   1  21
TORSDOF 5
ENDMDL
MODEL 9
REMARK VINA RESULT:      -7.7      2.729      6.850
REMARK  5 active torsions:
REMARK  status: ('A' for Active; 'I' for Inactive)
REMARK    1  A    between atoms: C_2  and  O_3 
REMARK    2  A    between atoms: C_2  and  C_4 
REMARK    3  A    between atoms: C_7  and  N_8 
REMARK    4  A    between atoms: N_12  and  C_13 
REMARK    5  A    between atoms: C_13  and  C_14 
ROOT
HETATM    1  N   UNL     1      41.216 -15.720   1.361  1.00  0.00    -0.367 N 
HETATM    2  C   UNL     1      42.310 -14.932   1.964  1.00  0.00     0.127 C 
HETATM    3  C   UNL     1      43.183 -15.778   2.880  1.00  0.00     0.057 C 
HETATM    4  C   UNL     1      42.419 -16.535   3.993  1.00  0.00     0.075 C 
HETATM    5  N   UNL     1      41.969 -15.703   5.175  1.00  0.00    -0.398 N 
HETATM    6  C   UNL     1      43.084 -15.070   5.929  1.00  0.00     0.124 C 
HETATM    7  C   UNL     1      44.004 -16.110   6.615  1.00  0.00     0.078 C 
HETATM    8  C   UNL     1      44.133 -17.295   5.756  1.00  0.00     0.037 A 
HETATM    9  C   UNL     1      43.420 -17.526   4.597  1.00  0.00     0.061 A 
HETATM   10  N   UNL     1      43.854 -18.760   4.134  1.00  0.00    -0.352 N 
HETATM   11  H   UNL     1      43.541 -19.232   3.290  1.00  0.00     0.166 HD
HETATM   12  C   UNL     1      44.754 -19.289   4.975  1.00  0.00     0.181 A 
HETATM   13  N   UNL     1      44.936 -18.399   5.954  1.00  0.00    -0.354 N 
HETATM   14  H   UNL     1      45.566 -18.535   6.743  1.00  0.00     0.166 HD
HETATM   15  C   UNL     1      41.288 -17.332   3.295  1.00  0.00     0.057 C 
HETATM   16  C   UNL     1      40.434 -16.551   2.292  1.00  0.00     0.127 C 
ENDROOT
BRANCH   5  17
HETATM   17  C   UNL     1      40.774 -14.866   5.043  1.00  0.00     0.122 C 
BRANCH  17  18
HETATM   18  C   UNL     1      40.861 -13.385   5.493  1.00  0.00    -0.005 C 
HETATM   19  C   UNL     1      40.969 -12.484   4.256  1.00  0.00     0.011 C 
HETATM   20  C   UNL     1      39.653 -12.961   6.331  1.00  0.00     0.011 C 
ENDBRANCH  17  18
ENDBRANCH   5  17
BRANCH   1  21
HETATM   21  C   UNL     1      40.475 -15.021   0.378  1.00  0.00     0.103 A 
HETATM   22  N   UNL     1      40.677 -15.231  -0.934  1.00  0.00    -0.344 N 
HETATM   23  C   UNL     1      39.986 -14.652  -1.934  1.00  0.00     0.039 A 
HETATM   24  H   UNL     1      41.402 -15.866  -1.273  1.00  0.00     0.167 HD
HETATM   25  C   UNL     1      38.999 -13.724  -1.642  1.00  0.00     0.028 A 
HETATM   26  C   UNL     1      38.764 -13.411  -0.313  1.00  0.00     0.006 A 
HETATM   27  C   UNL     1      39.501 -14.046   0.690  1.00  0.00     0.048 A 
BRANCH  23  28
HETATM   28  C   UNL     1      40.372 -15.095  -3.316  1.00  0.00     0.163 C 
HETATM   29  C   UNL     1      39.434 -16.156  -3.871  1.00  0.00     0.046 C 
BRANCH  28  30
HETATM   30  O   UNL     1      41.684 -15.674  -3.169  1.00  0.00    -0.390 OA
HETATM   31  H   UNL     1      41.995 -15.877  -4.079  1.00  0.00     0.210 HD
ENDBRANCH  28  30
ENDBRANCH  23  28
ENDBRANCH   1  21
TORSDOF 5
ENDMDL
MODEL 10
REMARK VINA RESULT:      -7.7      2.936      7.350
REMARK  5 active torsions:
REMARK  status: ('A' for Active; 'I' for Inactive)
REMARK    1  A    between atoms: C_2  and  O_3 
REMARK    2  A    between atoms: C_2  and  C_4 
REMARK    3  A    between atoms: C_7  and  N_8 
REMARK    4  A    between atoms: N_12  and  C_13 
REMARK    5  A    between atoms: C_13  and  C_14 
ROOT
HETATM    1  N   UNL     1      42.136 -16.449   0.599  1.00  0.00    -0.367 N 
HETATM    2  C   UNL     1      43.409 -16.295   1.332  1.00  0.00     0.127 C 
HETATM    3  C   UNL     1      43.981 -17.635   1.769  1.00  0.00     0.057 C 
HETATM    4  C   UNL     1      43.016 -18.519   2.595  1.00  0.00     0.075 C 
HETATM    5  N   UNL     1      42.821 -18.120   4.042  1.00  0.00    -0.398 N 
HETATM    6  C   UNL     1      44.068 -18.166   4.854  1.00  0.00     0.124 C 
HETATM    7  C   UNL     1      44.630 -19.602   5.002  1.00  0.00     0.078 C 
HETATM    8  C   UNL     1      44.408 -20.347   3.755  1.00  0.00     0.037 A 
HETATM    9  C   UNL     1      43.670 -19.903   2.676  1.00  0.00     0.061 A 
HETATM   10  N   UNL     1      43.720 -20.929   1.744  1.00  0.00    -0.352 N 
HETATM   11  H   UNL     1      43.290 -20.931   0.823  1.00  0.00     0.166 HD
HETATM   12  C   UNL     1      44.415 -21.970   2.227  1.00  0.00     0.181 A 
HETATM   13  N   UNL     1      44.843 -21.618   3.441  1.00  0.00    -0.354 N 
HETATM   14  H   UNL     1      45.397 -22.218   4.051  1.00  0.00     0.166 HD
HETATM   15  C   UNL     1      41.706 -18.635   1.776  1.00  0.00     0.057 C 
HETATM   16  C   UNL     1      41.132 -17.322   1.233  1.00  0.00     0.127 C 
ENDROOT
BRANCH   5  17
HETATM   17  C   UNL     1      41.932 -17.000   4.360  1.00  0.00     0.122 C 
BRANCH  17  18
HETATM   18  C   UNL     1      41.906 -16.472   5.817  1.00  0.00    -0.005 C 
HETATM   19  C   UNL     1      42.148 -14.957   5.813  1.00  0.00     0.011 C 
HETATM   20  C   UNL     1      40.583 -16.777   6.522  1.00  0.00     0.011 C 
ENDBRANCH  17  18
ENDBRANCH   5  17
BRANCH   1  21
HETATM   21  C   UNL     1      41.646 -15.248   0.033  1.00  0.00     0.103 A 
HETATM   22  N   UNL     1      41.805 -14.065   0.651  1.00  0.00    -0.344 N 
HETATM   23  C   UNL     1      41.418 -12.871   0.165  1.00  0.00     0.039 A 
HETATM   24  H   UNL     1      42.242 -13.993   1.571  1.00  0.00     0.167 HD
HETATM   25  C   UNL     1      40.761 -12.803  -1.053  1.00  0.00     0.028 A 
HETATM   26  C   UNL     1      40.510 -13.985  -1.731  1.00  0.00     0.006 A 
HETATM   27  C   UNL     1      40.940 -15.200  -1.190  1.00  0.00     0.048 A 
BRANCH  23  28
HETATM   28  C   UNL     1      41.758 -11.690   1.029  1.00  0.00     0.163 C 
HETATM   29  C   UNL     1      40.644 -10.656   1.066  1.00  0.00     0.046 C 
BRANCH  28  30
HETATM   30  O   UNL     1      42.916 -11.096   0.409  1.00  0.00    -0.390 OA
HETATM   31  H   UNL     1      43.580 -10.986   1.124  1.00  0.00     0.210 HD
ENDBRANCH  28  30
ENDBRANCH  23  28
ENDBRANCH   1  21
TORSDOF 5
ENDMDL
