MODEL 1
REMARK VINA RESULT:      -9.8      0.000      0.000
REMARK  6 active torsions:
REMARK  status: ('A' for Active; 'I' for Inactive)
REMARK    1  A    between atoms: C_5  and  N_6 
REMARK    2  A    between atoms: C_8  and  C_9 
REMARK    3  A    between atoms: C_11  and  O_12 
REMARK    4  A    between atoms: C_17  and  C_18 
REMARK       I    between atoms: C_18  and  N_19 
REMARK    5  A    between atoms: N_19  and  N_20 
REMARK       I    between atoms: N_20  and  C_21 
REMARK    6  A    between atoms: C_21  and  C_22 
ROOT
HETATM    1  N   UNL     1      42.164 -15.422   1.772  1.00  0.00    -0.244 N 
HETATM    2  N   UNL     1      42.772 -16.609   1.967  1.00  0.00    -0.166 NA
HETATM    3  C   UNL     1      43.008 -16.699   3.286  1.00  0.00     0.105 A 
HETATM    4  C   UNL     1      42.557 -15.523   3.965  1.00  0.00     0.082 A 
HETATM    5  C   UNL     1      42.030 -14.735   2.952  1.00  0.00     0.138 A 
ENDROOT
BRANCH   4   6
HETATM    6  C   UNL     1      42.636 -15.162   5.374  1.00  0.00     0.274 C 
HETATM    7  N   UNL     1      43.713 -14.357   5.704  1.00  0.00    -0.263 N 
HETATM    8  H   UNL     1      44.286 -13.897   5.002  1.00  0.00     0.190 HD
HETATM    9  O   UNL     1      41.820 -15.516   6.222  1.00  0.00    -0.266 OA
BRANCH   7  10
HETATM   10  N   UNL     1      43.775 -13.804   6.992  1.00  0.00    -0.262 N 
HETATM   11  C   UNL     1      44.975 -13.267   7.411  1.00  0.00     0.286 C 
HETATM   12  O   UNL     1      45.988 -13.340   6.712  1.00  0.00    -0.264 OA
HETATM   13  H   UNL     1      42.898 -13.686   7.490  1.00  0.00     0.190 HD
BRANCH  11  14
HETATM   14  C   UNL     1      44.961 -12.617   8.701  1.00  0.00     0.102 A 
HETATM   15  N   UNL     1      44.048 -12.973   9.671  1.00  0.00    -0.361 N 
HETATM   16  H   UNL     1      43.347 -13.694   9.546  1.00  0.00     0.165 HD
HETATM   17  C   UNL     1      44.232 -12.220  10.798  1.00  0.00     0.088 A 
HETATM   18  C   UNL     1      45.280 -11.360  10.563  1.00  0.00     0.019 A 
HETATM   19  C   UNL     1      45.739 -11.607   9.244  1.00  0.00     0.036 A 
ENDBRANCH  11  14
ENDBRANCH   7  10
ENDBRANCH   4   6
BRANCH   3  20
HETATM   20  C   UNL     1      43.648 -17.916   3.807  1.00  0.00    -0.002 A 
HETATM   21  C   UNL     1      43.857 -19.043   3.000  1.00  0.00     0.050 A 
HETATM   22  C   UNL     1      44.471 -20.187   3.519  1.00  0.00     0.069 A 
HETATM   23  C   UNL     1      44.936 -20.187   4.834  1.00  0.00     0.037 A 
HETATM   24  C   UNL     1      44.756 -19.068   5.643  1.00  0.00     0.004 A 
HETATM   25  C   UNL     1      44.111 -17.941   5.132  1.00  0.00     0.014 A 
BRANCH  22  26
HETATM   26  O   UNL     1      44.696 -21.344   2.822  1.00  0.00    -0.356 OA
HETATM   27  C   UNL     1      43.762 -21.624   1.785  1.00  0.00     0.210 C 
ENDBRANCH  22  26
ENDBRANCH   3  20
BRANCH   1  28
HETATM   28  C   UNL     1      41.747 -15.017   0.471  1.00  0.00     0.058 A 
HETATM   29  C   UNL     1      41.720 -13.653   0.151  1.00  0.00     0.032 A 
HETATM   30  C   UNL     1      41.326 -13.232  -1.123  1.00  0.00     0.009 A 
HETATM   31  C   UNL     1      40.945 -14.167  -2.092  1.00  0.00    -0.062 A 
HETATM   32  C   UNL     1      40.556 -13.726  -3.472  1.00  0.00     0.048 C 
HETATM   33  C   UNL     1      40.982 -15.528  -1.774  1.00  0.00     0.009 A 
HETATM   34  C   UNL     1      41.376 -15.956  -0.501  1.00  0.00     0.032 A 
ENDBRANCH   1  28
TORSDOF 6
ENDMDL
MODEL 2
REMARK VINA RESULT:      -9.0      3.348      6.560
REMARK  6 active torsions:
REMARK  status: ('A' for Active; 'I' for Inactive)
REMARK    1  A    between atoms: C_5  and  N_6 
REMARK    2  A    between atoms: C_8  and  C_9 
REMARK    3  A    between atoms: C_11  and  O_12 
REMARK    4  A    between atoms: C_17  and  C_18 
REMARK       I    between atoms: C_18  and  N_19 
REMARK    5  A    between atoms: N_19  and  N_20 
REMARK       I    between atoms: N_20  and  C_21 
REMARK    6  A    between atoms: C_21  and  C_22 
ROOT
HETATM    1  N   UNL     1      42.492 -17.424   3.156  1.00  0.00    -0.244 N 
HETATM    2  N   UNL     1      41.636 -17.019   2.198  1.00  0.00    -0.166 NA
HETATM    3  C   UNL     1      41.248 -15.779   2.537  1.00  0.00     0.105 A 
HETATM    4  C   UNL     1      41.859 -15.375   3.767  1.00  0.00     0.082 A 
HETATM    5  C   UNL     1      42.640 -16.464   4.125  1.00  0.00     0.138 A 
ENDROOT
BRANCH   4   6
HETATM    6  C   UNL     1      41.708 -14.144   4.531  1.00  0.00     0.274 C 
HETATM    7  N   UNL     1      40.826 -14.229   5.594  1.00  0.00    -0.263 N 
HETATM    8  H   UNL     1      40.463 -15.115   5.934  1.00  0.00     0.190 HD
HETATM    9  O   UNL     1      42.314 -13.103   4.285  1.00  0.00    -0.266 OA
BRANCH   7  10
HETATM   10  N   UNL     1      40.751 -13.159   6.499  1.00  0.00    -0.262 N 
HETATM   11  C   UNL     1      39.563 -12.464   6.588  1.00  0.00     0.286 C 
HETATM   12  O   UNL     1      38.616 -12.717   5.840  1.00  0.00    -0.264 OA
HETATM   13  H   UNL     1      41.520 -13.050   7.154  1.00  0.00     0.190 HD
BRANCH  11  14
HETATM   14  C   UNL     1      39.501 -11.442   7.607  1.00  0.00     0.102 A 
HETATM   15  N   UNL     1      39.366 -11.769   8.940  1.00  0.00    -0.361 N 
HETATM   16  H   UNL     1      39.304 -12.721   9.282  1.00  0.00     0.165 HD
HETATM   17  C   UNL     1      39.330 -10.637   9.706  1.00  0.00     0.088 A 
HETATM   18  C   UNL     1      39.444  -9.555   8.865  1.00  0.00     0.019 A 
HETATM   19  C   UNL     1      39.550 -10.059   7.544  1.00  0.00     0.036 A 
ENDBRANCH  11  14
ENDBRANCH   7  10
ENDBRANCH   4   6
BRANCH   3  20
HETATM   20  C   UNL     1      40.320 -15.062   1.651  1.00  0.00    -0.002 A 
HETATM   21  C   UNL     1      40.739 -14.519   0.427  1.00  0.00     0.050 A 
HETATM   22  C   UNL     1      39.835 -13.844  -0.398  1.00  0.00     0.069 A 
HETATM   23  C   UNL     1      38.491 -13.762  -0.033  1.00  0.00     0.037 A 
HETATM   24  C   UNL     1      38.054 -14.315   1.168  1.00  0.00     0.004 A 
HETATM   25  C   UNL     1      38.966 -14.956   2.007  1.00  0.00     0.014 A 
BRANCH  22  26
HETATM   26  O   UNL     1      40.149 -13.258  -1.596  1.00  0.00    -0.356 OA
HETATM   27  C   UNL     1      41.541 -13.160  -1.881  1.00  0.00     0.210 C 
ENDBRANCH  22  26
ENDBRANCH   3  20
BRANCH   1  28
HETATM   28  C   UNL     1      43.117 -18.702   3.088  1.00  0.00     0.058 A 
HETATM   29  C   UNL     1      43.869 -19.160   4.179  1.00  0.00     0.032 A 
HETATM   30  C   UNL     1      44.483 -20.416   4.140  1.00  0.00     0.009 A 
HETATM   31  C   UNL     1      44.361 -21.229   3.008  1.00  0.00    -0.062 A 
HETATM   32  C   UNL     1      44.985 -22.592   2.972  1.00  0.00     0.048 C 
HETATM   33  C   UNL     1      43.602 -20.775   1.924  1.00  0.00     0.009 A 
HETATM   34  C   UNL     1      42.986 -19.519   1.957  1.00  0.00     0.032 A 
ENDBRANCH   1  28
TORSDOF 6
ENDMDL
MODEL 3
REMARK VINA RESULT:      -8.9      3.418      6.870
REMARK  6 active torsions:
REMARK  status: ('A' for Active; 'I' for Inactive)
REMARK    1  A    between atoms: C_5  and  N_6 
REMARK    2  A    between atoms: C_8  and  C_9 
REMARK    3  A    between atoms: C_11  and  O_12 
REMARK    4  A    between atoms: C_17  and  C_18 
REMARK       I    between atoms: C_18  and  N_19 
REMARK    5  A    between atoms: N_19  and  N_20 
REMARK       I    between atoms: N_20  and  C_21 
REMARK    6  A    between atoms: C_21  and  C_22 
ROOT
HETATM    1  N   UNL     1      42.806 -17.310   4.170  1.00  0.00    -0.244 N 
HETATM    2  N   UNL     1      42.140 -17.056   3.026  1.00  0.00    -0.166 NA
HETATM    3  C   UNL     1      41.692 -15.794   3.123  1.00  0.00     0.105 A 
HETATM    4  C   UNL     1      42.062 -15.218   4.380  1.00  0.00     0.082 A 
HETATM    5  C   UNL     1      42.768 -16.229   5.015  1.00  0.00     0.138 A 
ENDROOT
BRANCH   4   6
HETATM    6  C   UNL     1      41.768 -13.904   4.934  1.00  0.00     0.274 C 
HETATM    7  N   UNL     1      40.985 -13.922   6.076  1.00  0.00    -0.263 N 
HETATM    8  H   UNL     1      40.794 -14.775   6.595  1.00  0.00     0.190 HD
HETATM    9  O   UNL     1      42.180 -12.848   4.459  1.00  0.00    -0.266 OA
BRANCH   7  10
HETATM   10  N   UNL     1      40.801 -12.728   6.789  1.00  0.00    -0.262 N 
HETATM   11  C   UNL     1      39.548 -12.151   6.778  1.00  0.00     0.286 C 
HETATM   12  O   UNL     1      38.633 -12.619   6.098  1.00  0.00    -0.264 OA
HETATM   13  H   UNL     1      41.553 -12.433   7.404  1.00  0.00     0.190 HD
BRANCH  11  14
HETATM   14  C   UNL     1      39.381 -10.982   7.611  1.00  0.00     0.102 A 
HETATM   15  N   UNL     1      39.047 -11.097   8.945  1.00  0.00    -0.361 N 
HETATM   16  H   UNL     1      38.901 -11.984   9.414  1.00  0.00     0.165 HD
HETATM   17  C   UNL     1      38.945  -9.860   9.518  1.00  0.00     0.088 A 
HETATM   18  C   UNL     1      39.218  -8.923   8.549  1.00  0.00     0.019 A 
HETATM   19  C   UNL     1      39.491  -9.626   7.349  1.00  0.00     0.036 A 
ENDBRANCH  11  14
ENDBRANCH   7  10
ENDBRANCH   4   6
BRANCH   3  20
HETATM   20  C   UNL     1      40.941 -15.223   1.995  1.00  0.00    -0.002 A 
HETATM   21  C   UNL     1      39.563 -14.977   2.074  1.00  0.00     0.050 A 
HETATM   22  C   UNL     1      38.874 -14.431   0.987  1.00  0.00     0.069 A 
HETATM   23  C   UNL     1      39.572 -14.069  -0.165  1.00  0.00     0.037 A 
HETATM   24  C   UNL     1      40.944 -14.286  -0.252  1.00  0.00     0.004 A 
HETATM   25  C   UNL     1      41.623 -14.865   0.821  1.00  0.00     0.014 A 
BRANCH  22  26
HETATM   26  O   UNL     1      37.528 -14.177   0.956  1.00  0.00    -0.356 OA
HETATM   27  C   UNL     1      37.168 -12.831   0.664  1.00  0.00     0.210 C 
ENDBRANCH  22  26
ENDBRANCH   3  20
BRANCH   1  28
HETATM   28  C   UNL     1      43.438 -18.568   4.386  1.00  0.00     0.058 A 
HETATM   29  C   UNL     1      43.543 -19.071   5.690  1.00  0.00     0.032 A 
HETATM   30  C   UNL     1      44.149 -20.309   5.926  1.00  0.00     0.009 A 
HETATM   31  C   UNL     1      44.667 -21.058   4.864  1.00  0.00    -0.062 A 
HETATM   32  C   UNL     1      45.285 -22.403   5.104  1.00  0.00     0.048 C 
HETATM   33  C   UNL     1      44.553 -20.559   3.562  1.00  0.00     0.009 A 
HETATM   34  C   UNL     1      43.947 -19.321   3.319  1.00  0.00     0.032 A 
ENDBRANCH   1  28
TORSDOF 6
ENDMDL
MODEL 4
REMARK VINA RESULT:      -8.8      1.941      8.019
REMARK  6 active torsions:
REMARK  status: ('A' for Active; 'I' for Inactive)
REMARK    1  A    between atoms: C_5  and  N_6 
REMARK    2  A    between atoms: C_8  and  C_9 
REMARK    3  A    between atoms: C_11  and  O_12 
REMARK    4  A    between atoms: C_17  and  C_18 
REMARK       I    between atoms: C_18  and  N_19 
REMARK    5  A    between atoms: N_19  and  N_20 
REMARK       I    between atoms: N_20  and  C_21 
REMARK    6  A    between atoms: C_21  and  C_22 
ROOT
HETATM    1  N   UNL     1      43.459 -14.507   5.830  1.00  0.00    -0.244 N 
HETATM    2  N   UNL     1      43.935 -15.767   5.801  1.00  0.00    -0.166 NA
HETATM    3  C   UNL     1      43.391 -16.351   4.721  1.00  0.00     0.105 A 
HETATM    4  C   UNL     1      42.518 -15.445   4.039  1.00  0.00     0.082 A 
HETATM    5  C   UNL     1      42.592 -14.281   4.791  1.00  0.00     0.138 A 
ENDROOT
BRANCH   4   6
HETATM    6  C   UNL     1      41.692 -15.646   2.856  1.00  0.00     0.274 C 
HETATM    7  N   UNL     1      42.268 -15.221   1.672  1.00  0.00    -0.263 N 
HETATM    8  H   UNL     1      43.250 -14.971   1.600  1.00  0.00     0.190 HD
HETATM    9  O   UNL     1      40.577 -16.163   2.875  1.00  0.00    -0.266 OA
BRANCH   7  10
HETATM   10  N   UNL     1      41.636 -15.537   0.460  1.00  0.00    -0.262 N 
HETATM   11  C   UNL     1      40.990 -14.526  -0.221  1.00  0.00     0.286 C 
HETATM   12  O   UNL     1      40.896 -13.393   0.255  1.00  0.00    -0.264 OA
HETATM   13  H   UNL     1      41.818 -16.456   0.067  1.00  0.00     0.190 HD
BRANCH  11  14
HETATM   14  C   UNL     1      40.446 -14.878  -1.512  1.00  0.00     0.102 A 
HETATM   15  N   UNL     1      39.197 -14.444  -1.904  1.00  0.00    -0.361 N 
HETATM   16  H   UNL     1      38.595 -13.866  -1.327  1.00  0.00     0.165 HD
HETATM   17  C   UNL     1      38.905 -14.904  -3.158  1.00  0.00     0.088 A 
HETATM   18  C   UNL     1      39.976 -15.648  -3.594  1.00  0.00     0.019 A 
HETATM   19  C   UNL     1      40.947 -15.634  -2.560  1.00  0.00     0.036 A 
ENDBRANCH  11  14
ENDBRANCH   7  10
ENDBRANCH   4   6
BRANCH   3  20
HETATM   20  C   UNL     1      43.753 -17.742   4.413  1.00  0.00    -0.002 A 
HETATM   21  C   UNL     1      43.459 -18.325   3.172  1.00  0.00     0.050 A 
HETATM   22  C   UNL     1      43.817 -19.649   2.904  1.00  0.00     0.069 A 
HETATM   23  C   UNL     1      44.529 -20.380   3.854  1.00  0.00     0.037 A 
HETATM   24  C   UNL     1      44.850 -19.809   5.084  1.00  0.00     0.004 A 
HETATM   25  C   UNL     1      44.458 -18.500   5.362  1.00  0.00     0.014 A 
BRANCH  22  26
HETATM   26  O   UNL     1      43.552 -20.315   1.737  1.00  0.00    -0.356 OA
HETATM   27  C   UNL     1      43.911 -21.693   1.726  1.00  0.00     0.210 C 
ENDBRANCH  22  26
ENDBRANCH   3  20
BRANCH   1  28
HETATM   28  C   UNL     1      43.862 -13.595   6.847  1.00  0.00     0.058 A 
HETATM   29  C   UNL     1      45.151 -13.695   7.390  1.00  0.00     0.032 A 
HETATM   30  C   UNL     1      45.574 -12.803   8.382  1.00  0.00     0.009 A 
HETATM   31  C   UNL     1      44.713 -11.805   8.850  1.00  0.00    -0.062 A 
HETATM   32  C   UNL     1      45.171 -10.822   9.887  1.00  0.00     0.048 C 
HETATM   33  C   UNL     1      43.431 -11.700   8.301  1.00  0.00     0.009 A 
HETATM   34  C   UNL     1      43.002 -12.589   7.308  1.00  0.00     0.032 A 
ENDBRANCH   1  28
TORSDOF 6
ENDMDL
MODEL 5
REMARK VINA RESULT:      -8.7      3.208      6.014
REMARK  6 active torsions:
REMARK  status: ('A' for Active; 'I' for Inactive)
REMARK    1  A    between atoms: C_5  and  N_6 
REMARK    2  A    between atoms: C_8  and  C_9 
REMARK    3  A    between atoms: C_11  and  O_12 
REMARK    4  A    between atoms: C_17  and  C_18 
REMARK       I    between atoms: C_18  and  N_19 
REMARK    5  A    between atoms: N_19  and  N_20 
REMARK       I    between atoms: N_20  and  C_21 
REMARK    6  A    between atoms: C_21  and  C_22 
ROOT
HETATM    1  N   UNL     1      43.561 -17.345   4.579  1.00  0.00    -0.244 N 
HETATM    2  N   UNL     1      42.863 -16.297   4.100  1.00  0.00    -0.166 NA
HETATM    3  C   UNL     1      42.894 -15.354   5.056  1.00  0.00     0.105 A 
HETATM    4  C   UNL     1      43.618 -15.816   6.201  1.00  0.00     0.082 A 
HETATM    5  C   UNL     1      44.020 -17.096   5.848  1.00  0.00     0.138 A 
ENDROOT
BRANCH   4   6
HETATM    6  C   UNL     1      43.876 -15.161   7.476  1.00  0.00     0.274 C 
HETATM    7  N   UNL     1      44.138 -13.805   7.386  1.00  0.00    -0.263 N 
HETATM    8  H   UNL     1      43.974 -13.272   6.537  1.00  0.00     0.190 HD
HETATM    9  O   UNL     1      43.854 -15.737   8.562  1.00  0.00    -0.266 OA
BRANCH   7  10
HETATM   10  N   UNL     1      44.215 -13.051   8.567  1.00  0.00    -0.262 N 
HETATM   11  C   UNL     1      43.649 -11.792   8.572  1.00  0.00     0.286 C 
HETATM   12  O   UNL     1      43.161 -11.306   7.550  1.00  0.00    -0.264 OA
HETATM   13  H   UNL     1      44.542 -13.527   9.402  1.00  0.00     0.190 HD
BRANCH  11  14
HETATM   14  C   UNL     1      43.661 -11.098   9.838  1.00  0.00     0.102 A 
HETATM   15  N   UNL     1      42.658 -10.213  10.178  1.00  0.00    -0.361 N 
HETATM   16  H   UNL     1      41.870  -9.999   9.577  1.00  0.00     0.165 HD
HETATM   17  C   UNL     1      42.889  -9.684  11.417  1.00  0.00     0.088 A 
HETATM   18  C   UNL     1      44.057 -10.230  11.897  1.00  0.00     0.019 A 
HETATM   19  C   UNL     1      44.545 -11.118  10.905  1.00  0.00     0.036 A 
ENDBRANCH  11  14
ENDBRANCH   7  10
ENDBRANCH   4   6
BRANCH   3  20
HETATM   20  C   UNL     1      42.228 -14.069   4.801  1.00  0.00    -0.002 A 
HETATM   21  C   UNL     1      41.347 -13.496   5.730  1.00  0.00     0.050 A 
HETATM   22  C   UNL     1      40.729 -12.271   5.464  1.00  0.00     0.069 A 
HETATM   23  C   UNL     1      41.038 -11.579   4.293  1.00  0.00     0.037 A 
HETATM   24  C   UNL     1      41.927 -12.123   3.370  1.00  0.00     0.004 A 
HETATM   25  C   UNL     1      42.514 -13.364   3.621  1.00  0.00     0.014 A 
BRANCH  22  26
HETATM   26  O   UNL     1      39.837 -11.643   6.292  1.00  0.00    -0.356 OA
HETATM   27  C   UNL     1      39.166 -12.490   7.220  1.00  0.00     0.210 C 
ENDBRANCH  22  26
ENDBRANCH   3  20
BRANCH   1  28
HETATM   28  C   UNL     1      43.749 -18.520   3.796  1.00  0.00     0.058 A 
HETATM   29  C   UNL     1      44.561 -19.552   4.287  1.00  0.00     0.032 A 
HETATM   30  C   UNL     1      44.751 -20.720   3.541  1.00  0.00     0.009 A 
HETATM   31  C   UNL     1      44.138 -20.871   2.292  1.00  0.00    -0.062 A 
HETATM   32  C   UNL     1      44.308 -22.135   1.503  1.00  0.00     0.048 C 
HETATM   33  C   UNL     1      43.321 -19.844   1.808  1.00  0.00     0.009 A 
HETATM   34  C   UNL     1      43.127 -18.674   2.549  1.00  0.00     0.032 A 
ENDBRANCH   1  28
TORSDOF 6
ENDMDL
MODEL 6
REMARK VINA RESULT:      -8.7      4.038      9.808
REMARK  6 active torsions:
REMARK  status: ('A' for Active; 'I' for Inactive)
REMARK    1  A    between atoms: C_5  and  N_6 
REMARK    2  A    between atoms: C_8  and  C_9 
REMARK    3  A    between atoms: C_11  and  O_12 
REMARK    4  A    between atoms: C_17  and  C_18 
REMARK       I    between atoms: C_18  and  N_19 
REMARK    5  A    between atoms: N_19  and  N_20 
REMARK       I    between atoms: N_20  and  C_21 
REMARK    6  A    between atoms: C_21  and  C_22 
ROOT
HETATM    1  N   UNL     1      41.477 -16.545   2.760  1.00  0.00    -0.244 N 
HETATM    2  N   UNL     1      41.396 -15.519   3.630  1.00  0.00    -0.166 NA
HETATM    3  C   UNL     1      40.443 -14.698   3.158  1.00  0.00     0.105 A 
HETATM    4  C   UNL     1      39.904 -15.199   1.931  1.00  0.00     0.082 A 
HETATM    5  C   UNL     1      40.602 -16.378   1.716  1.00  0.00     0.138 A 
ENDROOT
BRANCH   4   6
HETATM    6  C   UNL     1      38.890 -14.634   1.050  1.00  0.00     0.274 C 
HETATM    7  N   UNL     1      39.255 -14.571  -0.283  1.00  0.00    -0.263 N 
HETATM    8  H   UNL     1      40.073 -15.050  -0.650  1.00  0.00     0.190 HD
HETATM    9  O   UNL     1      37.785 -14.251   1.429  1.00  0.00    -0.266 OA
BRANCH   7  10
HETATM   10  N   UNL     1      38.286 -14.218  -1.234  1.00  0.00    -0.262 N 
HETATM   11  C   UNL     1      38.662 -14.176  -2.561  1.00  0.00     0.286 C 
HETATM   12  O   UNL     1      39.832 -14.362  -2.901  1.00  0.00    -0.264 OA
HETATM   13  H   UNL     1      37.322 -14.164  -0.918  1.00  0.00     0.190 HD
BRANCH  11  14
HETATM   14  C   UNL     1      37.606 -13.911  -3.511  1.00  0.00     0.102 A 
HETATM   15  N   UNL     1      37.366 -12.635  -3.975  1.00  0.00    -0.361 N 
HETATM   16  H   UNL     1      37.899 -11.822  -3.688  1.00  0.00     0.165 HD
HETATM   17  C   UNL     1      36.322 -12.638  -4.858  1.00  0.00     0.088 A 
HETATM   18  C   UNL     1      35.873 -13.933  -4.975  1.00  0.00     0.019 A 
HETATM   19  C   UNL     1      36.679 -14.735  -4.128  1.00  0.00     0.036 A 
ENDBRANCH  11  14
ENDBRANCH   7  10
ENDBRANCH   4   6
BRANCH   3  20
HETATM   20  C   UNL     1      40.110 -13.489   3.925  1.00  0.00    -0.002 A 
HETATM   21  C   UNL     1      39.742 -13.549   5.276  1.00  0.00     0.050 A 
HETATM   22  C   UNL     1      39.433 -12.383   5.983  1.00  0.00     0.069 A 
HETATM   23  C   UNL     1      39.553 -11.142   5.357  1.00  0.00     0.037 A 
HETATM   24  C   UNL     1      39.939 -11.062   4.022  1.00  0.00     0.004 A 
HETATM   25  C   UNL     1      40.210 -12.231   3.309  1.00  0.00     0.014 A 
BRANCH  22  26
HETATM   26  O   UNL     1      39.039 -12.338   7.293  1.00  0.00    -0.356 OA
HETATM   27  C   UNL     1      39.525 -11.226   8.039  1.00  0.00     0.210 C 
ENDBRANCH  22  26
ENDBRANCH   3  20
BRANCH   1  28
HETATM   28  C   UNL     1      42.384 -17.621   2.979  1.00  0.00     0.058 A 
HETATM   29  C   UNL     1      42.941 -17.804   4.253  1.00  0.00     0.032 A 
HETATM   30  C   UNL     1      43.825 -18.861   4.494  1.00  0.00     0.009 A 
HETATM   31  C   UNL     1      44.171 -19.744   3.466  1.00  0.00    -0.062 A 
HETATM   32  C   UNL     1      45.090 -20.901   3.726  1.00  0.00     0.048 C 
HETATM   33  C   UNL     1      43.607 -19.566   2.198  1.00  0.00     0.009 A 
HETATM   34  C   UNL     1      42.722 -18.511   1.950  1.00  0.00     0.032 A 
ENDBRANCH   1  28
TORSDOF 6
ENDMDL
MODEL 7
REMARK VINA RESULT:      -8.5      3.499      6.715
REMARK  6 active torsions:
REMARK  status: ('A' for Active; 'I' for Inactive)
REMARK    1  A    between atoms: C_5  and  N_6 
REMARK    2  A    between atoms: C_8  and  C_9 
REMARK    3  A    between atoms: C_11  and  O_12 
REMARK    4  A    between atoms: C_17  and  C_18 
REMARK       I    between atoms: C_18  and  N_19 
REMARK    5  A    between atoms: N_19  and  N_20 
REMARK       I    between atoms: N_20  and  C_21 
REMARK    6  A    between atoms: C_21  and  C_22 
ROOT
HETATM    1  N   UNL     1      42.982 -17.534   2.904  1.00  0.00    -0.244 N 
HETATM    2  N   UNL     1      41.932 -17.216   2.122  1.00  0.00    -0.166 NA
HETATM    3  C   UNL     1      41.750 -15.892   2.255  1.00  0.00     0.105 A 
HETATM    4  C   UNL     1      42.700 -15.338   3.170  1.00  0.00     0.082 A 
HETATM    5  C   UNL     1      43.462 -16.429   3.562  1.00  0.00     0.138 A 
ENDROOT
BRANCH   4   6
HETATM    6  C   UNL     1      42.859 -13.971   3.647  1.00  0.00     0.274 C 
HETATM    7  N   UNL     1      41.769 -13.470   4.337  1.00  0.00    -0.263 N 
HETATM    8  H   UNL     1      41.005 -14.060   4.655  1.00  0.00     0.190 HD
HETATM    9  O   UNL     1      43.873 -13.297   3.479  1.00  0.00    -0.266 OA
BRANCH   7  10
HETATM   10  N   UNL     1      41.892 -12.237   4.994  1.00  0.00    -0.262 N 
HETATM   11  C   UNL     1      41.349 -11.121   4.391  1.00  0.00     0.286 C 
HETATM   12  O   UNL     1      40.841 -11.184   3.269  1.00  0.00    -0.264 OA
HETATM   13  H   UNL     1      42.234 -12.251   5.951  1.00  0.00     0.190 HD
BRANCH  11  14
HETATM   14  C   UNL     1      41.408  -9.896   5.154  1.00  0.00     0.102 A 
HETATM   15  N   UNL     1      41.897  -8.731   4.599  1.00  0.00    -0.361 N 
HETATM   16  H   UNL     1      42.237  -8.661   3.646  1.00  0.00     0.165 HD
HETATM   17  C   UNL     1      41.853  -7.714   5.512  1.00  0.00     0.088 A 
HETATM   18  C   UNL     1      41.327  -8.218   6.679  1.00  0.00     0.019 A 
HETATM   19  C   UNL     1      41.048  -9.590   6.457  1.00  0.00     0.036 A 
ENDBRANCH  11  14
ENDBRANCH   7  10
ENDBRANCH   4   6
BRANCH   3  20
HETATM   20  C   UNL     1      40.675 -15.247   1.487  1.00  0.00    -0.002 A 
HETATM   21  C   UNL     1      40.861 -14.835   0.159  1.00  0.00     0.050 A 
HETATM   22  C   UNL     1      39.822 -14.226  -0.550  1.00  0.00     0.069 A 
HETATM   23  C   UNL     1      38.568 -14.082   0.046  1.00  0.00     0.037 A 
HETATM   24  C   UNL     1      38.360 -14.506   1.355  1.00  0.00     0.004 A 
HETATM   25  C   UNL     1      39.410 -15.079   2.073  1.00  0.00     0.014 A 
BRANCH  22  26
HETATM   26  O   UNL     1      39.910 -13.767  -1.837  1.00  0.00    -0.356 OA
HETATM   27  C   UNL     1      38.739 -13.131  -2.340  1.00  0.00     0.210 C 
ENDBRANCH  22  26
ENDBRANCH   3  20
BRANCH   1  28
HETATM   28  C   UNL     1      43.463 -18.873   2.976  1.00  0.00     0.058 A 
HETATM   29  C   UNL     1      43.213 -19.752   1.913  1.00  0.00     0.032 A 
HETATM   30  C   UNL     1      43.686 -21.067   1.955  1.00  0.00     0.009 A 
HETATM   31  C   UNL     1      44.408 -21.526   3.063  1.00  0.00    -0.062 A 
HETATM   32  C   UNL     1      44.950 -22.924   3.099  1.00  0.00     0.048 C 
HETATM   33  C   UNL     1      44.664 -20.644   4.118  1.00  0.00     0.009 A 
HETATM   34  C   UNL     1      44.194 -19.327   4.082  1.00  0.00     0.032 A 
ENDBRANCH   1  28
TORSDOF 6
ENDMDL
MODEL 8
REMARK VINA RESULT:      -8.5      2.272      6.064
REMARK  6 active torsions:
REMARK  status: ('A' for Active; 'I' for Inactive)
REMARK    1  A    between atoms: C_5  and  N_6 
REMARK    2  A    between atoms: C_8  and  C_9 
REMARK    3  A    between atoms: C_11  and  O_12 
REMARK    4  A    between atoms: C_17  and  C_18 
REMARK       I    between atoms: C_18  and  N_19 
REMARK    5  A    between atoms: N_19  and  N_20 
REMARK       I    between atoms: N_20  and  C_21 
REMARK    6  A    between atoms: C_21  and  C_22 
ROOT
HETATM    1  N   UNL     1      43.064 -17.126   3.217  1.00  0.00    -0.244 N 
HETATM    2  N   UNL     1      42.268 -16.513   2.319  1.00  0.00    -0.166 NA
HETATM    3  C   UNL     1      42.099 -15.256   2.762  1.00  0.00     0.105 A 
HETATM    4  C   UNL     1      42.791 -15.055   3.998  1.00  0.00     0.082 A 
HETATM    5  C   UNL     1      43.388 -16.282   4.250  1.00  0.00     0.138 A 
ENDROOT
BRANCH   4   6
HETATM    6  C   UNL     1      42.861 -13.880   4.856  1.00  0.00     0.274 C 
HETATM    7  N   UNL     1      42.877 -14.155   6.212  1.00  0.00    -0.263 N 
HETATM    8  H   UNL     1      43.024 -15.092   6.578  1.00  0.00     0.190 HD
HETATM    9  O   UNL     1      42.919 -12.725   4.438  1.00  0.00    -0.266 OA
BRANCH   7  10
HETATM   10  N   UNL     1      43.129 -13.110   7.113  1.00  0.00    -0.262 N 
HETATM   11  C   UNL     1      44.151 -13.270   8.026  1.00  0.00     0.286 C 
HETATM   12  O   UNL     1      44.774 -14.330   8.109  1.00  0.00    -0.264 OA
HETATM   13  H   UNL     1      42.654 -12.227   6.946  1.00  0.00     0.190 HD
BRANCH  11  14
HETATM   14  C   UNL     1      44.440 -12.127   8.860  1.00  0.00     0.102 A 
HETATM   15  N   UNL     1      45.739 -11.781   9.172  1.00  0.00    -0.361 N 
HETATM   16  H   UNL     1      46.551 -12.291   8.845  1.00  0.00     0.165 HD
HETATM   17  C   UNL     1      45.756 -10.671   9.971  1.00  0.00     0.088 A 
HETATM   18  C   UNL     1      44.454 -10.284  10.184  1.00  0.00     0.019 A 
HETATM   19  C   UNL     1      43.624 -11.200   9.488  1.00  0.00     0.036 A 
ENDBRANCH  11  14
ENDBRANCH   7  10
ENDBRANCH   4   6
BRANCH   3  20
HETATM   20  C   UNL     1      41.285 -14.329   1.961  1.00  0.00    -0.002 A 
HETATM   21  C   UNL     1      40.050 -13.847   2.418  1.00  0.00     0.050 A 
HETATM   22  C   UNL     1      39.298 -12.964   1.637  1.00  0.00     0.069 A 
HETATM   23  C   UNL     1      39.807 -12.509   0.421  1.00  0.00     0.037 A 
HETATM   24  C   UNL     1      41.042 -12.960  -0.037  1.00  0.00     0.004 A 
HETATM   25  C   UNL     1      41.774 -13.870   0.727  1.00  0.00     0.014 A 
BRANCH  22  26
HETATM   26  O   UNL     1      38.073 -12.458   1.981  1.00  0.00    -0.356 OA
HETATM   27  C   UNL     1      37.851 -11.098   1.620  1.00  0.00     0.210 C 
ENDBRANCH  22  26
ENDBRANCH   3  20
BRANCH   1  28
HETATM   28  C   UNL     1      43.467 -18.480   3.034  1.00  0.00     0.058 A 
HETATM   29  C   UNL     1      43.017 -19.187   1.910  1.00  0.00     0.032 A 
HETATM   30  C   UNL     1      43.409 -20.513   1.703  1.00  0.00     0.009 A 
HETATM   31  C   UNL     1      44.250 -21.155   2.619  1.00  0.00    -0.062 A 
HETATM   32  C   UNL     1      44.704 -22.565   2.385  1.00  0.00     0.048 C 
HETATM   33  C   UNL     1      44.706 -20.445   3.735  1.00  0.00     0.009 A 
HETATM   34  C   UNL     1      44.317 -19.118   3.947  1.00  0.00     0.032 A 
ENDBRANCH   1  28
TORSDOF 6
ENDMDL
MODEL 9
REMARK VINA RESULT:      -8.4      3.873      8.827
REMARK  6 active torsions:
REMARK  status: ('A' for Active; 'I' for Inactive)
REMARK    1  A    between atoms: C_5  and  N_6 
REMARK    2  A    between atoms: C_8  and  C_9 
REMARK    3  A    between atoms: C_11  and  O_12 
REMARK    4  A    between atoms: C_17  and  C_18 
REMARK       I    between atoms: C_18  and  N_19 
REMARK    5  A    between atoms: N_19  and  N_20 
REMARK       I    between atoms: N_20  and  C_21 
REMARK    6  A    between atoms: C_21  and  C_22 
ROOT
HETATM    1  N   UNL     1      42.811 -17.508   2.186  1.00  0.00    -0.244 N 
HETATM    2  N   UNL     1      42.532 -16.537   3.077  1.00  0.00    -0.166 NA
HETATM    3  C   UNL     1      42.031 -15.509   2.372  1.00  0.00     0.105 A 
HETATM    4  C   UNL     1      42.003 -15.818   0.975  1.00  0.00     0.082 A 
HETATM    5  C   UNL     1      42.517 -17.105   0.907  1.00  0.00     0.138 A 
ENDROOT
BRANCH   4   6
HETATM    6  C   UNL     1      41.583 -15.006  -0.159  1.00  0.00     0.274 C 
HETATM    7  N   UNL     1      42.381 -13.903  -0.406  1.00  0.00    -0.263 N 
HETATM    8  H   UNL     1      43.287 -13.774   0.035  1.00  0.00     0.190 HD
HETATM    9  O   UNL     1      40.612 -15.263  -0.868  1.00  0.00    -0.266 OA
BRANCH   7  10
HETATM   10  N   UNL     1      42.172 -13.165  -1.581  1.00  0.00    -0.262 N 
HETATM   11  C   UNL     1      42.680 -11.884  -1.643  1.00  0.00     0.286 C 
HETATM   12  O   UNL     1      43.231 -11.366  -0.670  1.00  0.00    -0.264 OA
HETATM   13  H   UNL     1      41.796 -13.663  -2.382  1.00  0.00     0.190 HD
BRANCH  11  14
HETATM   14  C   UNL     1      42.531 -11.204  -2.909  1.00  0.00     0.102 A 
HETATM   15  N   UNL     1      42.667  -9.834  -3.005  1.00  0.00    -0.361 N 
HETATM   16  H   UNL     1      42.875  -9.233  -2.216  1.00  0.00     0.165 HD
HETATM   17  C   UNL     1      42.482  -9.427  -4.297  1.00  0.00     0.088 A 
HETATM   18  C   UNL     1      42.222 -10.544  -5.057  1.00  0.00     0.019 A 
HETATM   19  C   UNL     1      42.251 -11.662  -4.186  1.00  0.00     0.036 A 
ENDBRANCH  11  14
ENDBRANCH   7  10
ENDBRANCH   4   6
BRANCH   3  20
HETATM   20  C   UNL     1      41.606 -14.300   3.091  1.00  0.00    -0.002 A 
HETATM   21  C   UNL     1      40.329 -13.747   2.916  1.00  0.00     0.050 A 
HETATM   22  C   UNL     1      39.949 -12.597   3.615  1.00  0.00     0.069 A 
HETATM   23  C   UNL     1      40.824 -12.029   4.542  1.00  0.00     0.037 A 
HETATM   24  C   UNL     1      42.087 -12.578   4.744  1.00  0.00     0.004 A 
HETATM   25  C   UNL     1      42.477 -13.704   4.018  1.00  0.00     0.014 A 
BRANCH  22  26
HETATM   26  O   UNL     1      38.739 -11.968   3.496  1.00  0.00    -0.356 OA
HETATM   27  C   UNL     1      38.217 -11.895   2.173  1.00  0.00     0.210 C 
ENDBRANCH  22  26
ENDBRANCH   3  20
BRANCH   1  28
HETATM   28  C   UNL     1      43.339 -18.761   2.609  1.00  0.00     0.058 A 
HETATM   29  C   UNL     1      43.310 -19.853   1.729  1.00  0.00     0.032 A 
HETATM   30  C   UNL     1      43.833 -21.090   2.118  1.00  0.00     0.009 A 
HETATM   31  C   UNL     1      44.386 -21.257   3.392  1.00  0.00    -0.062 A 
HETATM   32  C   UNL     1      44.982 -22.571   3.803  1.00  0.00     0.048 C 
HETATM   33  C   UNL     1      44.422 -20.165   4.265  1.00  0.00     0.009 A 
HETATM   34  C   UNL     1      43.901 -18.924   3.882  1.00  0.00     0.032 A 
ENDBRANCH   1  28
TORSDOF 6
ENDMDL
MODEL 10
REMARK VINA RESULT:      -8.2      3.575      8.947
REMARK  6 active torsions:
REMARK  status: ('A' for Active; 'I' for Inactive)
REMARK    1  A    between atoms: C_5  and  N_6 
REMARK    2  A    between atoms: C_8  and  C_9 
REMARK    3  A    between atoms: C_11  and  O_12 
REMARK    4  A    between atoms: C_17  and  C_18 
REMARK       I    between atoms: C_18  and  N_19 
REMARK    5  A    between atoms: N_19  and  N_20 
REMARK       I    between atoms: N_20  and  C_21 
REMARK    6  A    between atoms: C_21  and  C_22 
ROOT
HETATM    1  N   UNL     1      42.880 -17.377   3.236  1.00  0.00    -0.244 N 
HETATM    2  N   UNL     1      42.598 -16.412   4.133  1.00  0.00    -0.166 NA
HETATM    3  C   UNL     1      42.012 -15.417   3.447  1.00  0.00     0.105 A 
HETATM    4  C   UNL     1      41.930 -15.740   2.055  1.00  0.00     0.082 A 
HETATM    5  C   UNL     1      42.503 -17.001   1.970  1.00  0.00     0.138 A 
ENDROOT
BRANCH   4   6
HETATM    6  C   UNL     1      41.414 -14.960   0.939  1.00  0.00     0.274 C 
HETATM    7  N   UNL     1      40.244 -15.450   0.384  1.00  0.00    -0.263 N 
HETATM    8  H   UNL     1      39.687 -16.173   0.832  1.00  0.00     0.190 HD
HETATM    9  O   UNL     1      41.943 -13.936   0.511  1.00  0.00    -0.266 OA
BRANCH   7  10
HETATM   10  N   UNL     1      39.569 -14.673  -0.569  1.00  0.00    -0.262 N 
HETATM   11  C   UNL     1      38.452 -13.972  -0.164  1.00  0.00     0.286 C 
HETATM   12  O   UNL     1      38.007 -14.084   0.979  1.00  0.00    -0.264 OA
HETATM   13  H   UNL     1      40.025 -14.541  -1.468  1.00  0.00     0.190 HD
BRANCH  11  14
HETATM   14  C   UNL     1      37.855 -13.106  -1.154  1.00  0.00     0.102 A 
HETATM   15  N   UNL     1      37.186 -11.956  -0.787  1.00  0.00    -0.361 N 
HETATM   16  H   UNL     1      37.074 -11.653   0.174  1.00  0.00     0.165 HD
HETATM   17  C   UNL     1      36.711 -11.308  -1.893  1.00  0.00     0.088 A 
HETATM   18  C   UNL     1      37.074 -12.041  -2.999  1.00  0.00     0.019 A 
HETATM   19  C   UNL     1      37.792 -13.173  -2.536  1.00  0.00     0.036 A 
ENDBRANCH  11  14
ENDBRANCH   7  10
ENDBRANCH   4   6
BRANCH   3  20
HETATM   20  C   UNL     1      41.564 -14.224   4.179  1.00  0.00    -0.002 A 
HETATM   21  C   UNL     1      40.301 -13.655   3.961  1.00  0.00     0.050 A 
HETATM   22  C   UNL     1      39.899 -12.521   4.673  1.00  0.00     0.069 A 
HETATM   23  C   UNL     1      40.735 -11.985   5.653  1.00  0.00     0.037 A 
HETATM   24  C   UNL     1      41.983 -12.551   5.897  1.00  0.00     0.004 A 
HETATM   25  C   UNL     1      42.397 -13.661   5.159  1.00  0.00     0.014 A 
BRANCH  22  26
HETATM   26  O   UNL     1      38.701 -11.877   4.516  1.00  0.00    -0.356 OA
HETATM   27  C   UNL     1      38.484 -11.294   3.235  1.00  0.00     0.210 C 
ENDBRANCH  22  26
ENDBRANCH   3  20
BRANCH   1  28
HETATM   28  C   UNL     1      43.490 -18.599   3.640  1.00  0.00     0.058 A 
HETATM   29  C   UNL     1      43.731 -18.830   5.002  1.00  0.00     0.032 A 
HETATM   30  C   UNL     1      44.318 -20.027   5.424  1.00  0.00     0.009 A 
HETATM   31  C   UNL     1      44.680 -21.006   4.492  1.00  0.00    -0.062 A 
HETATM   32  C   UNL     1      45.277 -22.307   4.940  1.00  0.00     0.048 C 
HETATM   33  C   UNL     1      44.431 -20.777   3.135  1.00  0.00     0.009 A 
HETATM   34  C   UNL     1      43.843 -19.582   2.706  1.00  0.00     0.032 A 
ENDBRANCH   1  28
TORSDOF 6
ENDMDL
