MODEL 1
REMARK VINA RESULT:      -8.3      0.000      0.000
REMARK  5 active torsions:
REMARK  status: ('A' for Active; 'I' for Inactive)
REMARK    1  A    between atoms: C_2  and  C_3 
REMARK    2  A    between atoms: C_3  and  C_4 
REMARK    3  A    between atoms: C_7  and  N_8 
REMARK       I    between atoms: N_8  and  C_9 
REMARK       I    between atoms: C_9  and  N_10 
REMARK    4  A    between atoms: N_10  and  N_11 
REMARK       I    between atoms: N_11  and  C_12 
REMARK    5  A    between atoms: C_12  and  C_13 
ROOT
HETATM    1  N   UNL     1      40.365 -15.403   4.207  1.00  0.00    -0.337 N 
HETATM    2  C   UNL     1      40.163 -14.807   5.430  1.00  0.00     0.335 C 
HETATM    3  N   UNL     1      40.387 -15.625   6.502  1.00  0.00    -0.249 N 
HETATM    4  O   UNL     1      39.819 -13.640   5.579  1.00  0.00    -0.246 OA
HETATM    5  H   UNL     1      40.180 -16.396   4.225  1.00  0.00     0.164 HD
HETATM    6  H   UNL     1      40.260 -15.238   7.436  1.00  0.00     0.192 HD
ENDROOT
BRANCH   3   7
HETATM    7  N   UNL     1      41.050 -16.861   6.409  1.00  0.00    -0.262 N 
HETATM    8  C   UNL     1      42.429 -16.827   6.584  1.00  0.00     0.272 C 
HETATM    9  O   UNL     1      43.003 -15.820   6.994  1.00  0.00    -0.266 OA
HETATM   10  H   UNL     1      40.668 -17.521   5.737  1.00  0.00     0.190 HD
BRANCH   8  11
HETATM   11  C   UNL     1      43.139 -18.046   6.200  1.00  0.00     0.061 A 
HETATM   12  C   UNL     1      43.436 -18.472   4.859  1.00  0.00     0.008 A 
HETATM   13  C   UNL     1      44.134 -19.677   4.940  1.00  0.00     0.043 A 
HETATM   14  C   UNL     1      43.170 -17.942   3.577  1.00  0.00     0.015 A 
HETATM   15  C   UNL     1      44.580 -20.376   3.811  1.00  0.00     0.030 A 
HETATM   16  N   UNL     1      44.268 -19.977   6.275  1.00  0.00    -0.364 N 
HETATM   17  C   UNL     1      44.299 -19.828   2.556  1.00  0.00     0.002 A 
HETATM   18  C   UNL     1      43.604 -18.629   2.437  1.00  0.00     0.001 A 
HETATM   19  H   UNL     1      44.746 -20.794   6.629  1.00  0.00     0.165 HD
HETATM   20  C   UNL     1      43.673 -19.008   7.043  1.00  0.00     0.106 A 
ENDBRANCH   8  11
ENDBRANCH   3   7
BRANCH   1  21
HETATM   21  C   UNL     1      40.038 -14.677   2.983  1.00  0.00     0.086 C 
HETATM   22  C   UNL     1      41.227 -13.835   2.507  1.00  0.00     0.026 C 
HETATM   23  C   UNL     1      42.319 -14.660   1.825  1.00  0.00     0.006 C 
HETATM   24  C   UNL     1      41.779 -15.538   0.685  1.00  0.00    -0.014 C 
HETATM   25  C   UNL     1      40.652 -16.433   1.229  1.00  0.00     0.006 C 
HETATM   26  C   UNL     1      39.527 -15.632   1.891  1.00  0.00     0.026 C 
BRANCH  24  27
HETATM   27  C   UNL     1      41.297 -14.744  -0.550  1.00  0.00     0.004 C 
BRANCH  27  28
HETATM   28  C   UNL     1      40.968 -15.619  -1.761  1.00  0.00    -0.004 C 
HETATM   29  C   UNL     1      41.249 -14.881  -3.063  1.00  0.00     0.005 C 
ENDBRANCH  27  28
ENDBRANCH  24  27
ENDBRANCH   1  21
TORSDOF 5
ENDMDL
MODEL 2
REMARK VINA RESULT:      -7.7      2.838      4.995
REMARK  5 active torsions:
REMARK  status: ('A' for Active; 'I' for Inactive)
REMARK    1  A    between atoms: C_2  and  C_3 
REMARK    2  A    between atoms: C_3  and  C_4 
REMARK    3  A    between atoms: C_7  and  N_8 
REMARK       I    between atoms: N_8  and  C_9 
REMARK       I    between atoms: C_9  and  N_10 
REMARK    4  A    between atoms: N_10  and  N_11 
REMARK       I    between atoms: N_11  and  C_12 
REMARK    5  A    between atoms: C_12  and  C_13 
ROOT
HETATM    1  N   UNL     1      42.324 -15.813   2.033  1.00  0.00    -0.337 N 
HETATM    2  C   UNL     1      42.071 -14.560   1.527  1.00  0.00     0.335 C 
HETATM    3  N   UNL     1      41.776 -13.617   2.472  1.00  0.00    -0.249 N 
HETATM    4  O   UNL     1      42.107 -14.278   0.334  1.00  0.00    -0.246 OA
HETATM    5  H   UNL     1      41.822 -15.993   2.892  1.00  0.00     0.164 HD
HETATM    6  H   UNL     1      41.585 -12.666   2.158  1.00  0.00     0.192 HD
ENDROOT
BRANCH   3   7
HETATM    7  N   UNL     1      41.997 -13.802   3.847  1.00  0.00    -0.262 N 
HETATM    8  C   UNL     1      43.327 -13.893   4.243  1.00  0.00     0.272 C 
HETATM    9  O   UNL     1      44.249 -13.626   3.475  1.00  0.00    -0.266 OA
HETATM   10  H   UNL     1      41.312 -14.372   4.335  1.00  0.00     0.190 HD
BRANCH   8  11
HETATM   11  C   UNL     1      43.543 -14.374   5.607  1.00  0.00     0.061 A 
HETATM   12  C   UNL     1      43.358 -15.721   6.075  1.00  0.00     0.008 A 
HETATM   13  C   UNL     1      43.685 -15.748   7.431  1.00  0.00     0.043 A 
HETATM   14  C   UNL     1      42.937 -16.924   5.467  1.00  0.00     0.015 A 
HETATM   15  C   UNL     1      43.613 -16.913   8.207  1.00  0.00     0.030 A 
HETATM   16  N   UNL     1      44.062 -14.475   7.781  1.00  0.00    -0.364 N 
HETATM   17  C   UNL     1      43.191 -18.087   7.578  1.00  0.00     0.002 A 
HETATM   18  C   UNL     1      42.856 -18.096   6.228  1.00  0.00     0.001 A 
HETATM   19  H   UNL     1      44.363 -14.206   8.708  1.00  0.00     0.165 HD
HETATM   20  C   UNL     1      43.979 -13.638   6.698  1.00  0.00     0.106 A 
ENDBRANCH   8  11
ENDBRANCH   3   7
BRANCH   1  21
HETATM   21  C   UNL     1      42.527 -16.937   1.122  1.00  0.00     0.086 C 
HETATM   22  C   UNL     1      43.985 -17.408   1.146  1.00  0.00     0.026 C 
HETATM   23  C   UNL     1      44.333 -18.239   2.381  1.00  0.00     0.006 C 
HETATM   24  C   UNL     1      43.373 -19.419   2.597  1.00  0.00    -0.014 C 
HETATM   25  C   UNL     1      41.930 -18.890   2.660  1.00  0.00     0.006 C 
HETATM   26  C   UNL     1      41.541 -18.078   1.421  1.00  0.00     0.026 C 
BRANCH  24  27
HETATM   27  C   UNL     1      43.497 -20.537   1.536  1.00  0.00     0.004 C 
BRANCH  27  28
HETATM   28  C   UNL     1      44.527 -21.612   1.883  1.00  0.00    -0.004 C 
HETATM   29  C   UNL     1      44.424 -22.017   3.347  1.00  0.00     0.005 C 
ENDBRANCH  27  28
ENDBRANCH  24  27
ENDBRANCH   1  21
TORSDOF 5
ENDMDL
MODEL 3
REMARK VINA RESULT:      -7.7      3.113      7.504
REMARK  5 active torsions:
REMARK  status: ('A' for Active; 'I' for Inactive)
REMARK    1  A    between atoms: C_2  and  C_3 
REMARK    2  A    between atoms: C_3  and  C_4 
REMARK    3  A    between atoms: C_7  and  N_8 
REMARK       I    between atoms: N_8  and  C_9 
REMARK       I    between atoms: C_9  and  N_10 
REMARK    4  A    between atoms: N_10  and  N_11 
REMARK       I    between atoms: N_11  and  C_12 
REMARK    5  A    between atoms: C_12  and  C_13 
ROOT
HETATM    1  N   UNL     1      42.829 -15.082   2.208  1.00  0.00    -0.337 N 
HETATM    2  C   UNL     1      42.877 -13.765   2.597  1.00  0.00     0.335 C 
HETATM    3  N   UNL     1      42.019 -12.943   1.919  1.00  0.00    -0.249 N 
HETATM    4  O   UNL     1      43.610 -13.332   3.480  1.00  0.00    -0.246 OA
HETATM    5  H   UNL     1      42.572 -15.191   1.237  1.00  0.00     0.164 HD
HETATM    6  H   UNL     1      42.004 -11.955   2.168  1.00  0.00     0.192 HD
ENDROOT
BRANCH   3   7
HETATM    7  N   UNL     1      40.967 -13.415   1.115  1.00  0.00    -0.262 N 
HETATM    8  C   UNL     1      41.050 -13.103  -0.238  1.00  0.00     0.272 C 
HETATM    9  O   UNL     1      42.070 -12.627  -0.730  1.00  0.00    -0.266 OA
HETATM   10  H   UNL     1      40.049 -13.430   1.548  1.00  0.00     0.190 HD
BRANCH   8  11
HETATM   11  C   UNL     1      39.829 -13.335  -1.009  1.00  0.00     0.061 A 
HETATM   12  C   UNL     1      39.638 -14.338  -2.021  1.00  0.00     0.008 A 
HETATM   13  C   UNL     1      38.330 -14.222  -2.494  1.00  0.00     0.043 A 
HETATM   14  C   UNL     1      40.463 -15.337  -2.584  1.00  0.00     0.015 A 
HETATM   15  C   UNL     1      37.807 -15.050  -3.496  1.00  0.00     0.030 A 
HETATM   16  N   UNL     1      37.740 -13.195  -1.798  1.00  0.00    -0.364 N 
HETATM   17  C   UNL     1      38.649 -16.027  -4.035  1.00  0.00     0.002 A 
HETATM   18  C   UNL     1      39.959 -16.171  -3.589  1.00  0.00     0.001 A 
HETATM   19  H   UNL     1      36.782 -12.897  -1.928  1.00  0.00     0.165 HD
HETATM   20  C   UNL     1      38.627 -12.651  -0.905  1.00  0.00     0.106 A 
ENDBRANCH   8  11
ENDBRANCH   3   7
BRANCH   1  21
HETATM   21  C   UNL     1      43.784 -16.038   2.764  1.00  0.00     0.086 C 
HETATM   22  C   UNL     1      43.183 -16.784   3.961  1.00  0.00     0.026 C 
HETATM   23  C   UNL     1      42.194 -17.879   3.558  1.00  0.00     0.006 C 
HETATM   24  C   UNL     1      42.779 -18.866   2.537  1.00  0.00    -0.014 C 
HETATM   25  C   UNL     1      43.285 -18.083   1.312  1.00  0.00     0.006 C 
HETATM   26  C   UNL     1      44.301 -16.999   1.680  1.00  0.00     0.026 C 
BRANCH  24  27
HETATM   27  C   UNL     1      43.896 -19.772   3.102  1.00  0.00     0.004 C 
BRANCH  27  28
HETATM   28  C   UNL     1      44.448 -20.781   2.093  1.00  0.00    -0.004 C 
HETATM   29  C   UNL     1      43.381 -21.789   1.687  1.00  0.00     0.005 C 
ENDBRANCH  27  28
ENDBRANCH  24  27
ENDBRANCH   1  21
TORSDOF 5
ENDMDL
MODEL 4
REMARK VINA RESULT:      -7.6      4.502      7.895
REMARK  5 active torsions:
REMARK  status: ('A' for Active; 'I' for Inactive)
REMARK    1  A    between atoms: C_2  and  C_3 
REMARK    2  A    between atoms: C_3  and  C_4 
REMARK    3  A    between atoms: C_7  and  N_8 
REMARK       I    between atoms: N_8  and  C_9 
REMARK       I    between atoms: C_9  and  N_10 
REMARK    4  A    between atoms: N_10  and  N_11 
REMARK       I    between atoms: N_11  and  C_12 
REMARK    5  A    between atoms: C_12  and  C_13 
ROOT
HETATM    1  N   UNL     1      41.090 -14.043   6.239  1.00  0.00    -0.337 N 
HETATM    2  C   UNL     1      39.942 -13.553   5.662  1.00  0.00     0.335 C 
HETATM    3  N   UNL     1      39.097 -12.920   6.530  1.00  0.00    -0.249 N 
HETATM    4  O   UNL     1      39.674 -13.653   4.469  1.00  0.00    -0.246 OA
HETATM    5  H   UNL     1      40.957 -14.302   7.207  1.00  0.00     0.164 HD
HETATM    6  H   UNL     1      38.232 -12.530   6.159  1.00  0.00     0.192 HD
ENDROOT
BRANCH   3   7
HETATM    7  N   UNL     1      39.471 -12.526   7.826  1.00  0.00    -0.262 N 
HETATM    8  C   UNL     1      39.534 -11.155   8.050  1.00  0.00     0.272 C 
HETATM    9  O   UNL     1      39.097 -10.346   7.235  1.00  0.00    -0.266 OA
HETATM   10  H   UNL     1      40.150 -13.119   8.293  1.00  0.00     0.190 HD
BRANCH   8  11
HETATM   11  C   UNL     1      40.197 -10.753   9.290  1.00  0.00     0.061 A 
HETATM   12  C   UNL     1      41.613 -10.763   9.540  1.00  0.00     0.008 A 
HETATM   13  C   UNL     1      41.820 -10.294  10.838  1.00  0.00     0.043 A 
HETATM   14  C   UNL     1      42.744 -11.134   8.779  1.00  0.00     0.015 A 
HETATM   15  C   UNL     1      43.093 -10.176  11.411  1.00  0.00     0.030 A 
HETATM   16  N   UNL     1      40.584 -10.001  11.362  1.00  0.00    -0.364 N 
HETATM   17  C   UNL     1      44.192 -10.553  10.634  1.00  0.00     0.002 A 
HETATM   18  C   UNL     1      44.024 -11.026   9.336  1.00  0.00     0.001 A 
HETATM   19  H   UNL     1      40.434  -9.629  12.290  1.00  0.00     0.165 HD
HETATM   20  C   UNL     1      39.600 -10.274  10.446  1.00  0.00     0.106 A 
ENDBRANCH   8  11
ENDBRANCH   3   7
BRANCH   1  21
HETATM   21  C   UNL     1      42.014 -14.851   5.447  1.00  0.00     0.086 C 
HETATM   22  C   UNL     1      43.469 -14.466   5.737  1.00  0.00     0.026 C 
HETATM   23  C   UNL     1      43.989 -15.022   7.063  1.00  0.00     0.006 C 
HETATM   24  C   UNL     1      43.788 -16.539   7.195  1.00  0.00    -0.014 C 
HETATM   25  C   UNL     1      42.300 -16.870   6.989  1.00  0.00     0.006 C 
HETATM   26  C   UNL     1      41.757 -16.352   5.654  1.00  0.00     0.026 C 
BRANCH  24  27
HETATM   27  C   UNL     1      44.669 -17.378   6.241  1.00  0.00     0.004 C 
BRANCH  27  28
HETATM   28  C   UNL     1      44.412 -18.884   6.322  1.00  0.00    -0.004 C 
HETATM   29  C   UNL     1      44.345 -19.504   4.933  1.00  0.00     0.005 C 
ENDBRANCH  27  28
ENDBRANCH  24  27
ENDBRANCH   1  21
TORSDOF 5
ENDMDL
MODEL 5
REMARK VINA RESULT:      -7.5      3.670      8.295
REMARK  5 active torsions:
REMARK  status: ('A' for Active; 'I' for Inactive)
REMARK    1  A    between atoms: C_2  and  C_3 
REMARK    2  A    between atoms: C_3  and  C_4 
REMARK    3  A    between atoms: C_7  and  N_8 
REMARK       I    between atoms: N_8  and  C_9 
REMARK       I    between atoms: C_9  and  N_10 
REMARK    4  A    between atoms: N_10  and  N_11 
REMARK       I    between atoms: N_11  and  C_12 
REMARK    5  A    between atoms: C_12  and  C_13 
ROOT
HETATM    1  N   UNL     1      42.431 -15.343   1.439  1.00  0.00    -0.337 N 
HETATM    2  C   UNL     1      42.292 -13.977   1.495  1.00  0.00     0.335 C 
HETATM    3  N   UNL     1      41.506 -13.447   0.509  1.00  0.00    -0.249 N 
HETATM    4  O   UNL     1      42.808 -13.265   2.350  1.00  0.00    -0.246 OA
HETATM    5  H   UNL     1      42.369 -15.701   0.496  1.00  0.00     0.164 HD
HETATM    6  H   UNL     1      41.360 -12.439   0.501  1.00  0.00     0.192 HD
ENDROOT
BRANCH   3   7
HETATM    7  N   UNL     1      40.667 -14.220  -0.312  1.00  0.00    -0.262 N 
HETATM    8  C   UNL     1      40.953 -14.192  -1.673  1.00  0.00     0.272 C 
HETATM    9  O   UNL     1      41.989 -13.691  -2.105  1.00  0.00    -0.266 OA
HETATM   10  H   UNL     1      39.694 -14.273  -0.028  1.00  0.00     0.190 HD
BRANCH   8  11
HETATM   11  C   UNL     1      39.917 -14.749  -2.542  1.00  0.00     0.061 A 
HETATM   12  C   UNL     1      38.732 -14.073  -2.996  1.00  0.00     0.008 A 
HETATM   13  C   UNL     1      38.024 -14.957  -3.812  1.00  0.00     0.043 A 
HETATM   14  C   UNL     1      38.192 -12.785  -2.785  1.00  0.00     0.015 A 
HETATM   15  C   UNL     1      36.811 -14.620  -4.425  1.00  0.00     0.030 A 
HETATM   16  N   UNL     1      38.746 -16.124  -3.863  1.00  0.00    -0.364 N 
HETATM   17  C   UNL     1      36.300 -13.339  -4.195  1.00  0.00     0.002 A 
HETATM   18  C   UNL     1      36.978 -12.432  -3.386  1.00  0.00     0.001 A 
HETATM   19  H   UNL     1      38.472 -16.939  -4.396  1.00  0.00     0.165 HD
HETATM   20  C   UNL     1      39.883 -16.016  -3.104  1.00  0.00     0.106 A 
ENDBRANCH   8  11
ENDBRANCH   3   7
BRANCH   1  21
HETATM   21  C   UNL     1      43.346 -16.017   2.358  1.00  0.00     0.086 C 
HETATM   22  C   UNL     1      42.575 -16.757   3.457  1.00  0.00     0.026 C 
HETATM   23  C   UNL     1      41.952 -18.070   2.982  1.00  0.00     0.006 C 
HETATM   24  C   UNL     1      42.968 -19.002   2.304  1.00  0.00    -0.014 C 
HETATM   25  C   UNL     1      43.650 -18.249   1.148  1.00  0.00     0.006 C 
HETATM   26  C   UNL     1      44.311 -16.944   1.599  1.00  0.00     0.026 C 
BRANCH  24  27
HETATM   27  C   UNL     1      44.024 -19.593   3.266  1.00  0.00     0.004 C 
BRANCH  27  28
HETATM   28  C   UNL     1      44.782 -20.793   2.695  1.00  0.00    -0.004 C 
HETATM   29  C   UNL     1      43.847 -21.717   1.927  1.00  0.00     0.005 C 
ENDBRANCH  27  28
ENDBRANCH  24  27
ENDBRANCH   1  21
TORSDOF 5
ENDMDL
MODEL 6
REMARK VINA RESULT:      -7.4      2.794      3.709
REMARK  5 active torsions:
REMARK  status: ('A' for Active; 'I' for Inactive)
REMARK    1  A    between atoms: C_2  and  C_3 
REMARK    2  A    between atoms: C_3  and  C_4 
REMARK    3  A    between atoms: C_7  and  N_8 
REMARK       I    between atoms: N_8  and  C_9 
REMARK       I    between atoms: C_9  and  N_10 
REMARK    4  A    between atoms: N_10  and  N_11 
REMARK       I    between atoms: N_11  and  C_12 
REMARK    5  A    between atoms: C_12  and  C_13 
ROOT
HETATM    1  N   UNL     1      39.842 -13.925   1.127  1.00  0.00    -0.337 N 
HETATM    2  C   UNL     1      38.723 -14.691   1.351  1.00  0.00     0.335 C 
HETATM    3  N   UNL     1      38.950 -15.827   2.077  1.00  0.00    -0.249 N 
HETATM    4  O   UNL     1      37.599 -14.403   0.953  1.00  0.00    -0.246 OA
HETATM    5  H   UNL     1      40.688 -14.477   1.086  1.00  0.00     0.164 HD
HETATM    6  H   UNL     1      38.156 -16.433   2.282  1.00  0.00     0.192 HD
ENDROOT
BRANCH   3   7
HETATM    7  N   UNL     1      40.135 -16.063   2.796  1.00  0.00    -0.262 N 
HETATM    8  C   UNL     1      40.969 -17.051   2.285  1.00  0.00     0.272 C 
HETATM    9  O   UNL     1      40.785 -17.541   1.173  1.00  0.00    -0.266 OA
HETATM   10  H   UNL     1      40.070 -15.965   3.804  1.00  0.00     0.190 HD
BRANCH   8  11
HETATM   11  C   UNL     1      42.037 -17.493   3.180  1.00  0.00     0.061 A 
HETATM   12  C   UNL     1      42.876 -18.647   3.001  1.00  0.00     0.008 A 
HETATM   13  C   UNL     1      43.767 -18.697   4.074  1.00  0.00     0.043 A 
HETATM   14  C   UNL     1      42.957 -19.662   2.021  1.00  0.00     0.015 A 
HETATM   15  C   UNL     1      44.732 -19.703   4.216  1.00  0.00     0.030 A 
HETATM   16  N   UNL     1      43.493 -17.615   4.875  1.00  0.00    -0.364 N 
HETATM   17  C   UNL     1      44.786 -20.694   3.232  1.00  0.00     0.002 A 
HETATM   18  C   UNL     1      43.912 -20.677   2.149  1.00  0.00     0.001 A 
HETATM   19  H   UNL     1      43.998 -17.394   5.724  1.00  0.00     0.165 HD
HETATM   20  C   UNL     1      42.456 -16.885   4.354  1.00  0.00     0.106 A 
ENDBRANCH   8  11
ENDBRANCH   3   7
BRANCH   1  21
HETATM   21  C   UNL     1      39.759 -12.754   0.257  1.00  0.00     0.086 C 
HETATM   22  C   UNL     1      40.635 -11.613   0.785  1.00  0.00     0.026 C 
HETATM   23  C   UNL     1      42.125 -11.815   0.509  1.00  0.00     0.006 C 
HETATM   24  C   UNL     1      42.425 -12.095  -0.972  1.00  0.00    -0.014 C 
HETATM   25  C   UNL     1      41.595 -13.306  -1.434  1.00  0.00     0.006 C 
HETATM   26  C   UNL     1      40.094 -13.120  -1.199  1.00  0.00     0.026 C 
BRANCH  24  27
HETATM   27  C   UNL     1      42.189 -10.885  -1.904  1.00  0.00     0.004 C 
BRANCH  27  28
HETATM   28  C   UNL     1      42.440 -11.183  -3.384  1.00  0.00    -0.004 C 
HETATM   29  C   UNL     1      41.227 -10.819  -4.230  1.00  0.00     0.005 C 
ENDBRANCH  27  28
ENDBRANCH  24  27
ENDBRANCH   1  21
TORSDOF 5
ENDMDL
MODEL 7
REMARK VINA RESULT:      -7.4      2.665      6.987
REMARK  5 active torsions:
REMARK  status: ('A' for Active; 'I' for Inactive)
REMARK    1  A    between atoms: C_2  and  C_3 
REMARK    2  A    between atoms: C_3  and  C_4 
REMARK    3  A    between atoms: C_7  and  N_8 
REMARK       I    between atoms: N_8  and  C_9 
REMARK       I    between atoms: C_9  and  N_10 
REMARK    4  A    between atoms: N_10  and  N_11 
REMARK       I    between atoms: N_11  and  C_12 
REMARK    5  A    between atoms: C_12  and  C_13 
ROOT
HETATM    1  N   UNL     1      42.177 -14.880   2.933  1.00  0.00    -0.337 N 
HETATM    2  C   UNL     1      42.023 -13.801   3.771  1.00  0.00     0.335 C 
HETATM    3  N   UNL     1      42.259 -12.590   3.182  1.00  0.00    -0.249 N 
HETATM    4  O   UNL     1      41.694 -13.883   4.949  1.00  0.00    -0.246 OA
HETATM    5  H   UNL     1      42.861 -14.714   2.209  1.00  0.00     0.164 HD
HETATM    6  H   UNL     1      42.155 -11.750   3.751  1.00  0.00     0.192 HD
ENDROOT
BRANCH   3   7
HETATM    7  N   UNL     1      42.355 -12.409   1.791  1.00  0.00    -0.262 N 
HETATM    8  C   UNL     1      41.205 -11.951   1.157  1.00  0.00     0.272 C 
HETATM    9  O   UNL     1      40.238 -11.538   1.793  1.00  0.00    -0.266 OA
HETATM   10  H   UNL     1      42.943 -13.073   1.296  1.00  0.00     0.190 HD
BRANCH   8  11
HETATM   11  C   UNL     1      41.215 -12.045  -0.302  1.00  0.00     0.061 A 
HETATM   12  C   UNL     1      41.134 -13.253  -1.078  1.00  0.00     0.008 A 
HETATM   13  C   UNL     1      41.165 -12.895  -2.427  1.00  0.00     0.043 A 
HETATM   14  C   UNL     1      41.042 -14.625  -0.756  1.00  0.00     0.015 A 
HETATM   15  C   UNL     1      41.106 -13.834  -3.464  1.00  0.00     0.030 A 
HETATM   16  N   UNL     1      41.253 -11.525  -2.478  1.00  0.00    -0.364 N 
HETATM   17  C   UNL     1      41.017 -15.184  -3.114  1.00  0.00     0.002 A 
HETATM   18  C   UNL     1      40.986 -15.578  -1.780  1.00  0.00     0.001 A 
HETATM   19  H   UNL     1      41.280 -10.989  -3.335  1.00  0.00     0.165 HD
HETATM   20  C   UNL     1      41.287 -11.001  -1.211  1.00  0.00     0.106 A 
ENDBRANCH   8  11
ENDBRANCH   3   7
BRANCH   1  21
HETATM   21  C   UNL     1      42.078 -16.235   3.470  1.00  0.00     0.086 C 
HETATM   22  C   UNL     1      41.109 -17.087   2.641  1.00  0.00     0.026 C 
HETATM   23  C   UNL     1      41.705 -17.565   1.317  1.00  0.00     0.006 C 
HETATM   24  C   UNL     1      43.052 -18.284   1.493  1.00  0.00    -0.014 C 
HETATM   25  C   UNL     1      44.022 -17.358   2.247  1.00  0.00     0.006 C 
HETATM   26  C   UNL     1      43.465 -16.886   3.593  1.00  0.00     0.026 C 
BRANCH  24  27
HETATM   27  C   UNL     1      42.949 -19.655   2.199  1.00  0.00     0.004 C 
BRANCH  27  28
HETATM   28  C   UNL     1      44.289 -20.376   2.355  1.00  0.00    -0.004 C 
HETATM   29  C   UNL     1      44.209 -21.803   1.830  1.00  0.00     0.005 C 
ENDBRANCH  27  28
ENDBRANCH  24  27
ENDBRANCH   1  21
TORSDOF 5
ENDMDL
MODEL 8
REMARK VINA RESULT:      -7.4      2.783      5.150
REMARK  5 active torsions:
REMARK  status: ('A' for Active; 'I' for Inactive)
REMARK    1  A    between atoms: C_2  and  C_3 
REMARK    2  A    between atoms: C_3  and  C_4 
REMARK    3  A    between atoms: C_7  and  N_8 
REMARK       I    between atoms: N_8  and  C_9 
REMARK       I    between atoms: C_9  and  N_10 
REMARK    4  A    between atoms: N_10  and  N_11 
REMARK       I    between atoms: N_11  and  C_12 
REMARK    5  A    between atoms: C_12  and  C_13 
ROOT
HETATM    1  N   UNL     1      41.700 -14.644   1.731  1.00  0.00    -0.337 N 
HETATM    2  C   UNL     1      41.346 -15.010   0.454  1.00  0.00     0.335 C 
HETATM    3  N   UNL     1      42.100 -16.021  -0.075  1.00  0.00    -0.249 N 
HETATM    4  O   UNL     1      40.430 -14.499  -0.182  1.00  0.00    -0.246 OA
HETATM    5  H   UNL     1      42.682 -14.790   1.918  1.00  0.00     0.164 HD
HETATM    6  H   UNL     1      41.881 -16.341  -1.017  1.00  0.00     0.192 HD
ENDROOT
BRANCH   3   7
HETATM    7  N   UNL     1      42.957 -16.830   0.691  1.00  0.00    -0.262 N 
HETATM    8  C   UNL     1      42.354 -17.886   1.366  1.00  0.00     0.272 C 
HETATM    9  O   UNL     1      41.189 -18.212   1.147  1.00  0.00    -0.266 OA
HETATM   10  H   UNL     1      43.733 -16.355   1.141  1.00  0.00     0.190 HD
BRANCH   8  11
HETATM   11  C   UNL     1      43.184 -18.536   2.380  1.00  0.00     0.061 A 
HETATM   12  C   UNL     1      43.496 -18.020   3.685  1.00  0.00     0.008 A 
HETATM   13  C   UNL     1      44.302 -18.957   4.332  1.00  0.00     0.043 A 
HETATM   14  C   UNL     1      43.169 -16.833   4.377  1.00  0.00     0.015 A 
HETATM   15  C   UNL     1      44.794 -18.770   5.630  1.00  0.00     0.030 A 
HETATM   16  N   UNL     1      44.473 -20.009   3.465  1.00  0.00    -0.364 N 
HETATM   17  C   UNL     1      44.455 -17.585   6.288  1.00  0.00     0.002 A 
HETATM   18  C   UNL     1      43.654 -16.627   5.673  1.00  0.00     0.001 A 
HETATM   19  H   UNL     1      45.007 -20.841   3.678  1.00  0.00     0.165 HD
HETATM   20  C   UNL     1      43.810 -19.770   2.288  1.00  0.00     0.106 A 
ENDBRANCH   8  11
ENDBRANCH   3   7
BRANCH   1  21
HETATM   21  C   UNL     1      41.057 -13.493   2.360  1.00  0.00     0.086 C 
HETATM   22  C   UNL     1      39.918 -13.936   3.285  1.00  0.00     0.026 C 
HETATM   23  C   UNL     1      40.406 -14.498   4.620  1.00  0.00     0.006 C 
HETATM   24  C   UNL     1      41.368 -13.550   5.352  1.00  0.00    -0.014 C 
HETATM   25  C   UNL     1      42.543 -13.206   4.420  1.00  0.00     0.006 C 
HETATM   26  C   UNL     1      42.086 -12.611   3.086  1.00  0.00     0.026 C 
BRANCH  24  27
HETATM   27  C   UNL     1      40.701 -12.261   5.885  1.00  0.00     0.004 C 
BRANCH  27  28
HETATM   28  C   UNL     1      39.421 -12.510   6.685  1.00  0.00    -0.004 C 
HETATM   29  C   UNL     1      39.378 -11.641   7.935  1.00  0.00     0.005 C 
ENDBRANCH  27  28
ENDBRANCH  24  27
ENDBRANCH   1  21
TORSDOF 5
ENDMDL
MODEL 9
REMARK VINA RESULT:      -7.4      2.139      6.480
REMARK  5 active torsions:
REMARK  status: ('A' for Active; 'I' for Inactive)
REMARK    1  A    between atoms: C_2  and  C_3 
REMARK    2  A    between atoms: C_3  and  C_4 
REMARK    3  A    between atoms: C_7  and  N_8 
REMARK       I    between atoms: N_8  and  C_9 
REMARK       I    between atoms: C_9  and  N_10 
REMARK    4  A    between atoms: N_10  and  N_11 
REMARK       I    between atoms: N_11  and  C_12 
REMARK    5  A    between atoms: C_12  and  C_13 
ROOT
HETATM    1  N   UNL     1      43.571 -16.152   5.620  1.00  0.00    -0.337 N 
HETATM    2  C   UNL     1      43.942 -15.045   6.346  1.00  0.00     0.335 C 
HETATM    3  N   UNL     1      44.260 -13.952   5.590  1.00  0.00    -0.249 N 
HETATM    4  O   UNL     1      43.986 -15.008   7.572  1.00  0.00    -0.246 OA
HETATM    5  H   UNL     1      44.015 -16.187   4.713  1.00  0.00     0.164 HD
HETATM    6  H   UNL     1      44.537 -13.098   6.072  1.00  0.00     0.192 HD
ENDROOT
BRANCH   3   7
HETATM    7  N   UNL     1      43.958 -13.842   4.221  1.00  0.00    -0.262 N 
HETATM    8  C   UNL     1      42.755 -13.216   3.913  1.00  0.00     0.272 C 
HETATM    9  O   UNL     1      42.100 -12.619   4.765  1.00  0.00    -0.266 OA
HETATM   10  H   UNL     1      44.260 -14.614   3.636  1.00  0.00     0.190 HD
BRANCH   8  11
HETATM   11  C   UNL     1      42.309 -13.363   2.528  1.00  0.00     0.061 A 
HETATM   12  C   UNL     1      42.042 -14.601   1.847  1.00  0.00     0.008 A 
HETATM   13  C   UNL     1      41.630 -14.293   0.550  1.00  0.00     0.043 A 
HETATM   14  C   UNL     1      42.118 -15.963   2.215  1.00  0.00     0.015 A 
HETATM   15  C   UNL     1      41.290 -15.271  -0.393  1.00  0.00     0.030 A 
HETATM   16  N   UNL     1      41.636 -12.923   0.440  1.00  0.00    -0.364 N 
HETATM   17  C   UNL     1      41.377 -16.610  -0.000  1.00  0.00     0.002 A 
HETATM   18  C   UNL     1      41.785 -16.954   1.285  1.00  0.00     0.001 A 
HETATM   19  H   UNL     1      41.368 -12.419  -0.395  1.00  0.00     0.165 HD
HETATM   20  C   UNL     1      42.044 -12.352   1.618  1.00  0.00     0.106 A 
ENDBRANCH   8  11
ENDBRANCH   3   7
BRANCH   1  21
HETATM   21  C   UNL     1      43.330 -17.421   6.302  1.00  0.00     0.086 C 
HETATM   22  C   UNL     1      42.528 -18.380   5.415  1.00  0.00     0.026 C 
HETATM   23  C   UNL     1      43.368 -19.034   4.317  1.00  0.00     0.006 C 
HETATM   24  C   UNL     1      44.632 -19.719   4.859  1.00  0.00    -0.014 C 
HETATM   25  C   UNL     1      45.452 -18.696   5.665  1.00  0.00     0.006 C 
HETATM   26  C   UNL     1      44.647 -18.046   6.793  1.00  0.00     0.026 C 
BRANCH  24  27
HETATM   27  C   UNL     1      44.352 -20.981   5.707  1.00  0.00     0.004 C 
BRANCH  27  28
HETATM   28  C   UNL     1      44.984 -22.257   5.147  1.00  0.00    -0.004 C 
HETATM   29  C   UNL     1      44.616 -22.454   3.683  1.00  0.00     0.005 C 
ENDBRANCH  27  28
ENDBRANCH  24  27
ENDBRANCH   1  21
TORSDOF 5
ENDMDL
MODEL 10
REMARK VINA RESULT:      -7.3      5.861      8.653
REMARK  5 active torsions:
REMARK  status: ('A' for Active; 'I' for Inactive)
REMARK    1  A    between atoms: C_2  and  C_3 
REMARK    2  A    between atoms: C_3  and  C_4 
REMARK    3  A    between atoms: C_7  and  N_8 
REMARK       I    between atoms: N_8  and  C_9 
REMARK       I    between atoms: C_9  and  N_10 
REMARK    4  A    between atoms: N_10  and  N_11 
REMARK       I    between atoms: N_11  and  C_12 
REMARK    5  A    between atoms: C_12  and  C_13 
ROOT
HETATM    1  N   UNL     1      42.201 -12.977   6.540  1.00  0.00    -0.337 N 
HETATM    2  C   UNL     1      41.209 -12.110   6.149  1.00  0.00     0.335 C 
HETATM    3  N   UNL     1      40.631 -11.411   7.173  1.00  0.00    -0.249 N 
HETATM    4  O   UNL     1      40.853 -11.948   4.986  1.00  0.00    -0.246 OA
HETATM    5  H   UNL     1      42.058 -13.334   7.475  1.00  0.00     0.164 HD
HETATM    6  H   UNL     1      39.893 -10.747   6.944  1.00  0.00     0.192 HD
ENDROOT
BRANCH   3   7
HETATM    7  N   UNL     1      41.178 -11.337   8.465  1.00  0.00    -0.262 N 
HETATM    8  C   UNL     1      41.984 -10.234   8.723  1.00  0.00     0.272 C 
HETATM    9  O   UNL     1      42.050  -9.286   7.943  1.00  0.00    -0.266 OA
HETATM   10  H   UNL     1      41.427 -12.223   8.894  1.00  0.00     0.190 HD
BRANCH   8  11
HETATM   11  C   UNL     1      42.777 -10.310   9.949  1.00  0.00     0.061 A 
HETATM   12  C   UNL     1      42.520  -9.603  11.174  1.00  0.00     0.008 A 
HETATM   13  C   UNL     1      43.506  -9.969  12.092  1.00  0.00     0.043 A 
HETATM   14  C   UNL     1      41.538  -8.676  11.588  1.00  0.00     0.015 A 
HETATM   15  C   UNL     1      43.558  -9.460  13.396  1.00  0.00     0.030 A 
HETATM   16  N   UNL     1      44.329 -10.870  11.461  1.00  0.00    -0.364 N 
HETATM   17  C   UNL     1      42.573  -8.543  13.775  1.00  0.00     0.002 A 
HETATM   18  C   UNL     1      41.576  -8.154  12.886  1.00  0.00     0.001 A 
HETATM   19  H   UNL     1      45.127 -11.313  11.897  1.00  0.00     0.165 HD
HETATM   20  C   UNL     1      43.906 -11.082  10.174  1.00  0.00     0.106 A 
ENDBRANCH   8  11
ENDBRANCH   3   7
BRANCH   1  21
HETATM   21  C   UNL     1      42.809 -13.875   5.561  1.00  0.00     0.086 C 
HETATM   22  C   UNL     1      44.230 -14.268   5.982  1.00  0.00     0.026 C 
HETATM   23  C   UNL     1      44.263 -15.320   7.091  1.00  0.00     0.006 C 
HETATM   24  C   UNL     1      43.427 -16.565   6.758  1.00  0.00    -0.014 C 
HETATM   25  C   UNL     1      41.987 -16.132   6.433  1.00  0.00     0.006 C 
HETATM   26  C   UNL     1      41.918 -15.101   5.304  1.00  0.00     0.026 C 
BRANCH  24  27
HETATM   27  C   UNL     1      44.007 -17.429   5.615  1.00  0.00     0.004 C 
BRANCH  27  28
HETATM   28  C   UNL     1      43.075 -18.549   5.149  1.00  0.00    -0.004 C 
HETATM   29  C   UNL     1      43.171 -18.751   3.643  1.00  0.00     0.005 C 
ENDBRANCH  27  28
ENDBRANCH  24  27
ENDBRANCH   1  21
TORSDOF 5
ENDMDL
