MODEL 1
REMARK VINA RESULT:      -7.9      0.000      0.000
REMARK  4 active torsions:
REMARK  status: ('A' for Active; 'I' for Inactive)
REMARK    1  A    between atoms: C_3  and  N_4 
REMARK       I    between atoms: N_4  and  C_5 
REMARK    2  A    between atoms: C_5  and  C_6 
REMARK    3  A    between atoms: C_7  and  C_8 
REMARK    4  A    between atoms: C_15  and  C_16 
ROOT
HETATM    1  C   UNL     1      43.059 -17.400   1.030  1.00  0.00     0.003 A 
HETATM    2  C   UNL     1      43.165 -16.402   2.003  1.00  0.00     0.029 A 
HETATM    3  C   UNL     1      43.611 -16.714   3.287  1.00  0.00     0.035 A 
HETATM    4  C   UNL     1      43.947 -18.046   3.584  1.00  0.00     0.042 A 
HETATM    5  C   UNL     1      43.848 -19.057   2.614  1.00  0.00    -0.021 A 
HETATM    6  C   UNL     1      43.398 -18.718   1.334  1.00  0.00     0.012 A 
ENDROOT
BRANCH   3   7
HETATM    7  N   UNL     1      43.753 -15.767   4.325  1.00  0.00    -0.324 N 
HETATM    8  C   UNL     1      42.878 -15.527   5.365  1.00  0.00     0.245 C 
HETATM    9  O   UNL     1      41.816 -16.094   5.587  1.00  0.00    -0.268 OA
HETATM   10  H   UNL     1      44.589 -15.199   4.283  1.00  0.00     0.169 HD
BRANCH   8  11
HETATM   11  C   UNL     1      43.364 -14.439   6.257  1.00  0.00     0.077 C 
HETATM   12  C   UNL     1      44.549 -14.567   6.871  1.00  0.00     0.042 C 
BRANCH  12  13
HETATM   13  C   UNL     1      45.035 -13.547   7.734  1.00  0.00     0.075 A 
HETATM   14  O   UNL     1      44.476 -13.233   8.954  1.00  0.00    -0.323 OA
HETATM   15  C   UNL     1      45.189 -12.221   9.504  1.00  0.00     0.142 A 
HETATM   16  C   UNL     1      46.215 -11.852   8.674  1.00  0.00     0.027 A 
HETATM   17  C   UNL     1      46.119 -12.696   7.543  1.00  0.00     0.039 A 
ENDBRANCH  12  13
ENDBRANCH   8  11
ENDBRANCH   3   7
BRANCH   5  18
HETATM   18  C   UNL     1      44.202 -20.426   2.949  1.00  0.00     0.010 A 
HETATM   19  C   UNL     1      44.150 -21.611   2.177  1.00  0.00     0.152 A 
HETATM   20  N   UNL     1      44.547 -22.690   2.857  1.00  0.00    -0.187 NA
HETATM   21  N   UNL     1      44.857 -22.202   4.067  1.00  0.00    -0.289 N 
HETATM   22  H   UNL     1      45.190 -22.847   4.777  1.00  0.00     0.188 HD
HETATM   23  C   UNL     1      44.666 -20.854   4.175  1.00  0.00     0.123 A 
ENDBRANCH   5  18
TORSDOF 4
ENDMDL
MODEL 2
REMARK VINA RESULT:      -7.5      3.813      7.480
REMARK  4 active torsions:
REMARK  status: ('A' for Active; 'I' for Inactive)
REMARK    1  A    between atoms: C_3  and  N_4 
REMARK       I    between atoms: N_4  and  C_5 
REMARK    2  A    between atoms: C_5  and  C_6 
REMARK    3  A    between atoms: C_7  and  C_8 
REMARK    4  A    between atoms: C_15  and  C_16 
ROOT
HETATM    1  C   UNL     1      44.742 -20.530   3.466  1.00  0.00     0.003 A 
HETATM    2  C   UNL     1      44.008 -19.961   2.421  1.00  0.00     0.029 A 
HETATM    3  C   UNL     1      43.147 -18.892   2.665  1.00  0.00     0.035 A 
HETATM    4  C   UNL     1      43.030 -18.400   3.976  1.00  0.00     0.042 A 
HETATM    5  C   UNL     1      43.765 -18.960   5.034  1.00  0.00    -0.021 A 
HETATM    6  C   UNL     1      44.622 -20.032   4.763  1.00  0.00     0.012 A 
ENDROOT
BRANCH   3   7
HETATM    7  N   UNL     1      42.376 -18.256   1.668  1.00  0.00    -0.324 N 
HETATM    8  C   UNL     1      42.440 -16.934   1.274  1.00  0.00     0.245 C 
HETATM    9  O   UNL     1      43.183 -16.065   1.712  1.00  0.00    -0.268 OA
HETATM   10  H   UNL     1      41.695 -18.843   1.205  1.00  0.00     0.169 HD
BRANCH   8  11
HETATM   11  C   UNL     1      41.458 -16.629   0.199  1.00  0.00     0.077 C 
HETATM   12  C   UNL     1      41.622 -15.534  -0.557  1.00  0.00     0.042 C 
BRANCH  12  13
HETATM   13  C   UNL     1      40.695 -15.214  -1.586  1.00  0.00     0.075 A 
HETATM   14  O   UNL     1      39.637 -14.344  -1.432  1.00  0.00    -0.323 OA
HETATM   15  C   UNL     1      38.966 -14.273  -2.607  1.00  0.00     0.142 A 
HETATM   16  C   UNL     1      39.557 -15.080  -3.545  1.00  0.00     0.027 A 
HETATM   17  C   UNL     1      40.660 -15.682  -2.895  1.00  0.00     0.039 A 
ENDBRANCH  12  13
ENDBRANCH   8  11
ENDBRANCH   3   7
BRANCH   5  18
HETATM   18  C   UNL     1      43.625 -18.431   6.381  1.00  0.00     0.010 A 
HETATM   19  C   UNL     1      43.170 -17.172   6.838  1.00  0.00     0.152 A 
HETATM   20  N   UNL     1      43.208 -17.059   8.169  1.00  0.00    -0.187 NA
HETATM   21  N   UNL     1      43.687 -18.246   8.570  1.00  0.00    -0.289 N 
HETATM   22  H   UNL     1      43.811 -18.405   9.565  1.00  0.00     0.188 HD
HETATM   23  C   UNL     1      43.954 -19.101   7.540  1.00  0.00     0.123 A 
ENDBRANCH   5  18
TORSDOF 4
ENDMDL
MODEL 3
REMARK VINA RESULT:      -7.5      3.795      6.599
REMARK  4 active torsions:
REMARK  status: ('A' for Active; 'I' for Inactive)
REMARK    1  A    between atoms: C_3  and  N_4 
REMARK       I    between atoms: N_4  and  C_5 
REMARK    2  A    between atoms: C_5  and  C_6 
REMARK    3  A    between atoms: C_7  and  C_8 
REMARK    4  A    between atoms: C_15  and  C_16 
ROOT
HETATM    1  C   UNL     1      43.684 -17.425   5.167  1.00  0.00     0.003 A 
HETATM    2  C   UNL     1      43.262 -16.764   4.011  1.00  0.00     0.029 A 
HETATM    3  C   UNL     1      43.205 -17.440   2.793  1.00  0.00     0.035 A 
HETATM    4  C   UNL     1      43.579 -18.794   2.750  1.00  0.00     0.042 A 
HETATM    5  C   UNL     1      44.001 -19.471   3.906  1.00  0.00    -0.021 A 
HETATM    6  C   UNL     1      44.050 -18.770   5.115  1.00  0.00     0.012 A 
ENDROOT
BRANCH   3   7
HETATM    7  N   UNL     1      42.785 -16.849   1.581  1.00  0.00    -0.324 N 
HETATM    8  C   UNL     1      41.489 -16.681   1.136  1.00  0.00     0.245 C 
HETATM    9  O   UNL     1      40.459 -17.009   1.710  1.00  0.00    -0.268 OA
HETATM   10  H   UNL     1      43.528 -16.526   0.975  1.00  0.00     0.169 HD
BRANCH   8  11
HETATM   11  C   UNL     1      41.444 -16.027  -0.200  1.00  0.00     0.077 C 
HETATM   12  C   UNL     1      41.429 -14.690  -0.282  1.00  0.00     0.042 C 
BRANCH  12  13
HETATM   13  C   UNL     1      41.378 -14.038  -1.545  1.00  0.00     0.075 A 
HETATM   14  O   UNL     1      40.335 -14.159  -2.438  1.00  0.00    -0.323 OA
HETATM   15  C   UNL     1      40.615 -13.406  -3.529  1.00  0.00     0.142 A 
HETATM   16  C   UNL     1      41.828 -12.784  -3.382  1.00  0.00     0.027 A 
HETATM   17  C   UNL     1      42.317 -13.187  -2.117  1.00  0.00     0.039 A 
ENDBRANCH  12  13
ENDBRANCH   8  11
ENDBRANCH   3   7
BRANCH   5  18
HETATM   18  C   UNL     1      44.382 -20.872   3.833  1.00  0.00     0.010 A 
HETATM   19  C   UNL     1      44.407 -21.768   2.739  1.00  0.00     0.152 A 
HETATM   20  N   UNL     1      44.805 -22.996   3.084  1.00  0.00    -0.187 NA
HETATM   21  N   UNL     1      45.038 -22.892   4.400  1.00  0.00    -0.289 N 
HETATM   22  H   UNL     1      45.356 -23.716   4.901  1.00  0.00     0.188 HD
HETATM   23  C   UNL     1      44.798 -21.643   4.897  1.00  0.00     0.123 A 
ENDBRANCH   5  18
TORSDOF 4
ENDMDL
MODEL 4
REMARK VINA RESULT:      -7.4      3.160      5.765
REMARK  4 active torsions:
REMARK  status: ('A' for Active; 'I' for Inactive)
REMARK    1  A    between atoms: C_3  and  N_4 
REMARK       I    between atoms: N_4  and  C_5 
REMARK    2  A    between atoms: C_5  and  C_6 
REMARK    3  A    between atoms: C_7  and  C_8 
REMARK    4  A    between atoms: C_15  and  C_16 
ROOT
HETATM    1  C   UNL     1      44.779 -17.807   6.341  1.00  0.00     0.003 A 
HETATM    2  C   UNL     1      43.835 -16.949   5.771  1.00  0.00     0.029 A 
HETATM    3  C   UNL     1      43.095 -17.353   4.660  1.00  0.00     0.035 A 
HETATM    4  C   UNL     1      43.317 -18.634   4.126  1.00  0.00     0.042 A 
HETATM    5  C   UNL     1      44.260 -19.507   4.692  1.00  0.00    -0.021 A 
HETATM    6  C   UNL     1      44.989 -19.078   5.805  1.00  0.00     0.012 A 
ENDROOT
BRANCH   3   7
HETATM    7  N   UNL     1      42.119 -16.552   4.028  1.00  0.00    -0.324 N 
HETATM    8  C   UNL     1      41.049 -15.911   4.621  1.00  0.00     0.245 C 
HETATM    9  O   UNL     1      40.748 -15.913   5.807  1.00  0.00    -0.268 OA
HETATM   10  H   UNL     1      42.219 -16.453   3.027  1.00  0.00     0.169 HD
BRANCH   8  11
HETATM   11  C   UNL     1      40.228 -15.169   3.626  1.00  0.00     0.077 C 
HETATM   12  C   UNL     1      40.255 -15.539   2.338  1.00  0.00     0.042 C 
BRANCH  12  13
HETATM   13  C   UNL     1      39.487 -14.844   1.364  1.00  0.00     0.075 A 
HETATM   14  O   UNL     1      38.152 -14.534   1.507  1.00  0.00    -0.323 OA
HETATM   15  C   UNL     1      37.744 -13.872   0.398  1.00  0.00     0.142 A 
HETATM   16  C   UNL     1      38.783 -13.734  -0.486  1.00  0.00     0.027 A 
HETATM   17  C   UNL     1      39.896 -14.354   0.129  1.00  0.00     0.039 A 
ENDBRANCH  12  13
ENDBRANCH   8  11
ENDBRANCH   3   7
BRANCH   5  18
HETATM   18  C   UNL     1      44.469 -20.826   4.118  1.00  0.00     0.010 A 
HETATM   19  C   UNL     1      44.384 -21.278   2.781  1.00  0.00     0.152 A 
HETATM   20  N   UNL     1      44.630 -22.586   2.658  1.00  0.00    -0.187 NA
HETATM   21  N   UNL     1      44.876 -22.977   3.918  1.00  0.00    -0.289 N 
HETATM   22  H   UNL     1      45.093 -23.955   4.085  1.00  0.00     0.188 HD
HETATM   23  C   UNL     1      44.790 -21.964   4.829  1.00  0.00     0.123 A 
ENDBRANCH   5  18
TORSDOF 4
ENDMDL
MODEL 5
REMARK VINA RESULT:      -7.2      3.782      7.253
REMARK  4 active torsions:
REMARK  status: ('A' for Active; 'I' for Inactive)
REMARK    1  A    between atoms: C_3  and  N_4 
REMARK       I    between atoms: N_4  and  C_5 
REMARK    2  A    between atoms: C_5  and  C_6 
REMARK    3  A    between atoms: C_7  and  C_8 
REMARK    4  A    between atoms: C_15  and  C_16 
ROOT
HETATM    1  C   UNL     1      44.386 -20.037   3.384  1.00  0.00     0.003 A 
HETATM    2  C   UNL     1      43.925 -19.371   2.245  1.00  0.00     0.029 A 
HETATM    3  C   UNL     1      43.363 -18.100   2.350  1.00  0.00     0.035 A 
HETATM    4  C   UNL     1      43.266 -17.503   3.619  1.00  0.00     0.042 A 
HETATM    5  C   UNL     1      43.729 -18.159   4.771  1.00  0.00    -0.021 A 
HETATM    6  C   UNL     1      44.289 -19.434   4.639  1.00  0.00     0.012 A 
ENDROOT
BRANCH   3   7
HETATM    7  N   UNL     1      42.880 -17.357   1.250  1.00  0.00    -0.324 N 
HETATM    8  C   UNL     1      41.567 -17.037   0.968  1.00  0.00     0.245 C 
HETATM    9  O   UNL     1      40.574 -17.331   1.622  1.00  0.00    -0.268 OA
HETATM   10  H   UNL     1      43.583 -17.040   0.597  1.00  0.00     0.169 HD
BRANCH   8  11
HETATM   11  C   UNL     1      41.448 -16.251  -0.290  1.00  0.00     0.077 C 
HETATM   12  C   UNL     1      41.611 -14.921  -0.258  1.00  0.00     0.042 C 
BRANCH  12  13
HETATM   13  C   UNL     1      41.496 -14.144  -1.443  1.00  0.00     0.075 A 
HETATM   14  O   UNL     1      40.684 -14.473  -2.508  1.00  0.00    -0.323 OA
HETATM   15  C   UNL     1      40.818 -13.517  -3.460  1.00  0.00     0.142 A 
HETATM   16  C   UNL     1      41.705 -12.556  -3.050  1.00  0.00     0.027 A 
HETATM   17  C   UNL     1      42.139 -12.955  -1.764  1.00  0.00     0.039 A 
ENDBRANCH  12  13
ENDBRANCH   8  11
ENDBRANCH   3   7
BRANCH   5  18
HETATM   18  C   UNL     1      43.616 -17.518   6.071  1.00  0.00     0.010 A 
HETATM   19  C   UNL     1      43.334 -18.058   7.348  1.00  0.00     0.152 A 
HETATM   20  N   UNL     1      43.296 -17.128   8.307  1.00  0.00    -0.187 NA
HETATM   21  N   UNL     1      43.555 -15.989   7.648  1.00  0.00    -0.289 N 
HETATM   22  H   UNL     1      43.578 -15.122   8.176  1.00  0.00     0.188 HD
HETATM   23  C   UNL     1      43.751 -16.167   6.309  1.00  0.00     0.123 A 
ENDBRANCH   5  18
TORSDOF 4
ENDMDL
MODEL 6
REMARK VINA RESULT:      -7.2      3.180      4.866
REMARK  4 active torsions:
REMARK  status: ('A' for Active; 'I' for Inactive)
REMARK    1  A    between atoms: C_3  and  N_4 
REMARK       I    between atoms: N_4  and  C_5 
REMARK    2  A    between atoms: C_5  and  C_6 
REMARK    3  A    between atoms: C_7  and  C_8 
REMARK    4  A    between atoms: C_15  and  C_16 
ROOT
HETATM    1  C   UNL     1      45.053 -18.198   6.269  1.00  0.00     0.003 A 
HETATM    2  C   UNL     1      44.094 -17.186   6.184  1.00  0.00     0.029 A 
HETATM    3  C   UNL     1      43.139 -17.203   5.168  1.00  0.00     0.035 A 
HETATM    4  C   UNL     1      43.161 -18.253   4.233  1.00  0.00     0.042 A 
HETATM    5  C   UNL     1      44.118 -19.277   4.310  1.00  0.00    -0.021 A 
HETATM    6  C   UNL     1      45.065 -19.237   5.339  1.00  0.00     0.012 A 
ENDROOT
BRANCH   3   7
HETATM    7  N   UNL     1      42.132 -16.225   5.013  1.00  0.00    -0.324 N 
HETATM    8  C   UNL     1      40.946 -16.127   5.712  1.00  0.00     0.245 C 
HETATM    9  O   UNL     1      40.545 -16.867   6.601  1.00  0.00    -0.268 OA
HETATM   10  H   UNL     1      42.307 -15.530   4.300  1.00  0.00     0.169 HD
BRANCH   8  11
HETATM   11  C   UNL     1      40.132 -14.966   5.259  1.00  0.00     0.077 C 
HETATM   12  C   UNL     1      40.439 -14.351   4.108  1.00  0.00     0.042 C 
BRANCH  12  13
HETATM   13  C   UNL     1      39.683 -13.235   3.655  1.00  0.00     0.075 A 
HETATM   14  O   UNL     1      39.091 -13.154   2.413  1.00  0.00    -0.323 OA
HETATM   15  C   UNL     1      38.455 -11.962   2.318  1.00  0.00     0.142 A 
HETATM   16  C   UNL     1      38.611 -11.244   3.476  1.00  0.00     0.027 A 
HETATM   17  C   UNL     1      39.395 -12.055   4.330  1.00  0.00     0.039 A 
ENDBRANCH  12  13
ENDBRANCH   8  11
ENDBRANCH   3   7
BRANCH   5  18
HETATM   18  C   UNL     1      44.118 -20.351   3.330  1.00  0.00     0.010 A 
HETATM   19  C   UNL     1      44.641 -21.664   3.395  1.00  0.00     0.152 A 
HETATM   20  N   UNL     1      44.457 -22.352   2.264  1.00  0.00    -0.187 NA
HETATM   21  N   UNL     1      43.814 -21.483   1.470  1.00  0.00    -0.289 N 
HETATM   22  H   UNL     1      43.561 -21.782   0.533  1.00  0.00     0.188 HD
HETATM   23  C   UNL     1      43.589 -20.272   2.059  1.00  0.00     0.123 A 
ENDBRANCH   5  18
TORSDOF 4
ENDMDL
MODEL 7
REMARK VINA RESULT:      -7.1      3.383      9.017
REMARK  4 active torsions:
REMARK  status: ('A' for Active; 'I' for Inactive)
REMARK    1  A    between atoms: C_3  and  N_4 
REMARK       I    between atoms: N_4  and  C_5 
REMARK    2  A    between atoms: C_5  and  C_6 
REMARK    3  A    between atoms: C_7  and  C_8 
REMARK    4  A    between atoms: C_15  and  C_16 
ROOT
HETATM    1  C   UNL     1      46.741 -11.835   8.207  1.00  0.00     0.003 A 
HETATM    2  C   UNL     1      46.410 -12.866   7.324  1.00  0.00     0.029 A 
HETATM    3  C   UNL     1      45.203 -13.550   7.459  1.00  0.00     0.035 A 
HETATM    4  C   UNL     1      44.328 -13.184   8.496  1.00  0.00     0.042 A 
HETATM    5  C   UNL     1      44.647 -12.147   9.388  1.00  0.00    -0.021 A 
HETATM    6  C   UNL     1      45.865 -11.478   9.231  1.00  0.00     0.012 A 
ENDROOT
BRANCH   3   7
HETATM    7  N   UNL     1      44.789 -14.598   6.607  1.00  0.00    -0.324 N 
HETATM    8  C   UNL     1      44.149 -15.767   6.968  1.00  0.00     0.245 C 
HETATM    9  O   UNL     1      43.814 -16.112   8.093  1.00  0.00    -0.268 OA
HETATM   10  H   UNL     1      45.002 -14.471   5.627  1.00  0.00     0.169 HD
BRANCH   8  11
HETATM   11  C   UNL     1      43.885 -16.638   5.791  1.00  0.00     0.077 C 
HETATM   12  C   UNL     1      44.502 -17.825   5.694  1.00  0.00     0.042 C 
BRANCH  12  13
HETATM   13  C   UNL     1      44.274 -18.674   4.577  1.00  0.00     0.075 A 
HETATM   14  O   UNL     1      44.842 -19.921   4.424  1.00  0.00    -0.323 OA
HETATM   15  C   UNL     1      44.409 -20.448   3.254  1.00  0.00     0.142 A 
HETATM   16  C   UNL     1      43.562 -19.577   2.620  1.00  0.00     0.027 A 
HETATM   17  C   UNL     1      43.475 -18.443   3.463  1.00  0.00     0.039 A 
ENDBRANCH  12  13
ENDBRANCH   8  11
ENDBRANCH   3   7
BRANCH   5  18
HETATM   18  C   UNL     1      43.724 -11.790  10.453  1.00  0.00     0.010 A 
HETATM   19  C   UNL     1      42.607 -10.923  10.457  1.00  0.00     0.152 A 
HETATM   20  N   UNL     1      42.017 -10.842  11.653  1.00  0.00    -0.187 NA
HETATM   21  N   UNL     1      42.754 -11.659  12.421  1.00  0.00    -0.289 N 
HETATM   22  H   UNL     1      42.497 -11.765  13.397  1.00  0.00     0.188 HD
HETATM   23  C   UNL     1      43.788 -12.248  11.752  1.00  0.00     0.123 A 
ENDBRANCH   5  18
TORSDOF 4
ENDMDL
MODEL 8
REMARK VINA RESULT:      -7.1      4.244      6.730
REMARK  4 active torsions:
REMARK  status: ('A' for Active; 'I' for Inactive)
REMARK    1  A    between atoms: C_3  and  N_4 
REMARK       I    between atoms: N_4  and  C_5 
REMARK    2  A    between atoms: C_5  and  C_6 
REMARK    3  A    between atoms: C_7  and  C_8 
REMARK    4  A    between atoms: C_15  and  C_16 
ROOT
HETATM    1  C   UNL     1      44.039 -19.419   3.455  1.00  0.00     0.003 A 
HETATM    2  C   UNL     1      43.231 -18.546   2.722  1.00  0.00     0.029 A 
HETATM    3  C   UNL     1      42.540 -17.519   3.363  1.00  0.00     0.035 A 
HETATM    4  C   UNL     1      42.668 -17.380   4.755  1.00  0.00     0.042 A 
HETATM    5  C   UNL     1      43.480 -18.248   5.503  1.00  0.00    -0.021 A 
HETATM    6  C   UNL     1      44.163 -19.271   4.836  1.00  0.00     0.012 A 
ENDROOT
BRANCH   3   7
HETATM    7  N   UNL     1      41.709 -16.592   2.697  1.00  0.00    -0.324 N 
HETATM    8  C   UNL     1      40.908 -16.824   1.596  1.00  0.00     0.245 C 
HETATM    9  O   UNL     1      40.763 -17.879   0.994  1.00  0.00    -0.268 OA
HETATM   10  H   UNL     1      41.719 -15.652   3.070  1.00  0.00     0.169 HD
BRANCH   8  11
HETATM   11  C   UNL     1      40.187 -15.594   1.168  1.00  0.00     0.077 C 
HETATM   12  C   UNL     1      39.153 -15.146   1.894  1.00  0.00     0.042 C 
BRANCH  12  13
HETATM   13  C   UNL     1      38.442 -13.979   1.505  1.00  0.00     0.075 A 
HETATM   14  O   UNL     1      38.748 -12.705   1.934  1.00  0.00    -0.323 OA
HETATM   15  C   UNL     1      37.873 -11.840   1.368  1.00  0.00     0.142 A 
HETATM   16  C   UNL     1      36.985 -12.512   0.568  1.00  0.00     0.027 A 
HETATM   17  C   UNL     1      37.346 -13.877   0.655  1.00  0.00     0.039 A 
ENDBRANCH  12  13
ENDBRANCH   8  11
ENDBRANCH   3   7
BRANCH   5  18
HETATM   18  C   UNL     1      43.595 -18.081   6.942  1.00  0.00     0.010 A 
HETATM   19  C   UNL     1      43.303 -16.973   7.772  1.00  0.00     0.152 A 
HETATM   20  N   UNL     1      43.564 -17.207   9.061  1.00  0.00    -0.187 NA
HETATM   21  N   UNL     1      44.024 -18.467   9.063  1.00  0.00    -0.289 N 
HETATM   22  H   UNL     1      44.297 -18.879   9.950  1.00  0.00     0.188 HD
HETATM   23  C   UNL     1      44.064 -19.034   7.822  1.00  0.00     0.123 A 
ENDBRANCH   5  18
TORSDOF 4
ENDMDL
MODEL 9
REMARK VINA RESULT:      -7.0      3.326      5.579
REMARK  4 active torsions:
REMARK  status: ('A' for Active; 'I' for Inactive)
REMARK    1  A    between atoms: C_3  and  N_4 
REMARK       I    between atoms: N_4  and  C_5 
REMARK    2  A    between atoms: C_5  and  C_6 
REMARK    3  A    between atoms: C_7  and  C_8 
REMARK    4  A    between atoms: C_15  and  C_16 
ROOT
HETATM    1  C   UNL     1      44.625 -18.010   6.186  1.00  0.00     0.003 A 
HETATM    2  C   UNL     1      43.800 -16.969   5.752  1.00  0.00     0.029 A 
HETATM    3  C   UNL     1      43.101 -17.077   4.551  1.00  0.00     0.035 A 
HETATM    4  C   UNL     1      43.243 -18.247   3.786  1.00  0.00     0.042 A 
HETATM    5  C   UNL     1      44.065 -19.302   4.212  1.00  0.00    -0.021 A 
HETATM    6  C   UNL     1      44.756 -19.169   5.421  1.00  0.00     0.012 A 
ENDROOT
BRANCH   3   7
HETATM    7  N   UNL     1      42.243 -16.076   4.044  1.00  0.00    -0.324 N 
HETATM    8  C   UNL     1      42.606 -14.863   3.492  1.00  0.00     0.245 C 
HETATM    9  O   UNL     1      43.739 -14.429   3.333  1.00  0.00    -0.268 OA
HETATM   10  H   UNL     1      41.255 -16.277   4.109  1.00  0.00     0.169 HD
BRANCH   8  11
HETATM   11  C   UNL     1      41.418 -14.066   3.081  1.00  0.00     0.077 C 
HETATM   12  C   UNL     1      40.512 -14.606   2.254  1.00  0.00     0.042 C 
BRANCH  12  13
HETATM   13  C   UNL     1      39.372 -13.865   1.839  1.00  0.00     0.075 A 
HETATM   14  O   UNL     1      39.131 -12.554   2.189  1.00  0.00    -0.323 OA
HETATM   15  C   UNL     1      37.963 -12.166   1.622  1.00  0.00     0.142 A 
HETATM   16  C   UNL     1      37.419 -13.195   0.897  1.00  0.00     0.027 A 
HETATM   17  C   UNL     1      38.316 -14.280   1.036  1.00  0.00     0.039 A 
ENDBRANCH  12  13
ENDBRANCH   8  11
ENDBRANCH   3   7
BRANCH   5  18
HETATM   18  C   UNL     1      44.194 -20.501   3.401  1.00  0.00     0.010 A 
HETATM   19  C   UNL     1      44.669 -21.793   3.727  1.00  0.00     0.152 A 
HETATM   20  N   UNL     1      44.649 -22.631   2.686  1.00  0.00    -0.187 NA
HETATM   21  N   UNL     1      44.159 -21.880   1.689  1.00  0.00    -0.289 N 
HETATM   22  H   UNL     1      44.050 -22.305   0.774  1.00  0.00     0.188 HD
HETATM   23  C   UNL     1      43.873 -20.598   2.063  1.00  0.00     0.123 A 
ENDBRANCH   5  18
TORSDOF 4
ENDMDL
MODEL 10
REMARK VINA RESULT:      -7.0      2.701      2.984
REMARK  4 active torsions:
REMARK  status: ('A' for Active; 'I' for Inactive)
REMARK    1  A    between atoms: C_3  and  N_4 
REMARK       I    between atoms: N_4  and  C_5 
REMARK    2  A    between atoms: C_5  and  C_6 
REMARK    3  A    between atoms: C_7  and  C_8 
REMARK    4  A    between atoms: C_15  and  C_16 
ROOT
HETATM    1  C   UNL     1      43.707 -17.733   1.003  1.00  0.00     0.003 A 
HETATM    2  C   UNL     1      43.159 -16.795   1.881  1.00  0.00     0.029 A 
HETATM    3  C   UNL     1      42.986 -17.106   3.228  1.00  0.00     0.035 A 
HETATM    4  C   UNL     1      43.370 -18.378   3.686  1.00  0.00     0.042 A 
HETATM    5  C   UNL     1      43.926 -19.329   2.815  1.00  0.00    -0.021 A 
HETATM    6  C   UNL     1      44.088 -18.992   1.467  1.00  0.00     0.012 A 
ENDROOT
BRANCH   3   7
HETATM    7  N   UNL     1      42.446 -16.215   4.182  1.00  0.00    -0.324 N 
HETATM    8  C   UNL     1      41.436 -16.469   5.088  1.00  0.00     0.245 C 
HETATM    9  O   UNL     1      40.821 -17.517   5.239  1.00  0.00    -0.268 OA
HETATM   10  H   UNL     1      42.846 -15.286   4.184  1.00  0.00     0.169 HD
BRANCH   8  11
HETATM   11  C   UNL     1      41.130 -15.276   5.923  1.00  0.00     0.077 C 
HETATM   12  C   UNL     1      40.946 -14.086   5.335  1.00  0.00     0.042 C 
BRANCH  12  13
HETATM   13  C   UNL     1      40.660 -12.927   6.108  1.00  0.00     0.075 A 
HETATM   14  O   UNL     1      41.591 -11.967   6.438  1.00  0.00    -0.323 OA
HETATM   15  C   UNL     1      40.978 -11.010   7.175  1.00  0.00     0.142 A 
HETATM   16  C   UNL     1      39.652 -11.313   7.344  1.00  0.00     0.027 A 
HETATM   17  C   UNL     1      39.447 -12.537   6.664  1.00  0.00     0.039 A 
ENDBRANCH  12  13
ENDBRANCH   8  11
ENDBRANCH   3   7
BRANCH   5  18
HETATM   18  C   UNL     1      44.314 -20.638   3.314  1.00  0.00     0.010 A 
HETATM   19  C   UNL     1      44.328 -21.904   2.683  1.00  0.00     0.152 A 
HETATM   20  N   UNL     1      44.738 -22.884   3.493  1.00  0.00    -0.187 NA
HETATM   21  N   UNL     1      44.990 -22.250   4.648  1.00  0.00    -0.289 N 
HETATM   22  H   UNL     1      45.320 -22.797   5.436  1.00  0.00     0.188 HD
HETATM   23  C   UNL     1      44.751 -20.907   4.595  1.00  0.00     0.123 A 
ENDBRANCH   5  18
TORSDOF 4
ENDMDL
