MODEL 1
REMARK VINA RESULT:      -7.4      0.000      0.000
REMARK  13 active torsions:
REMARK  status: ('A' for Active; 'I' for Inactive)
REMARK    1  A    between atoms: C_2  and  N_3 
REMARK    2  A    between atoms: N_3  and  C_5 
REMARK    3  A    between atoms: N_3  and  C_34 
REMARK    4  A    between atoms: C_5  and  C_6 
REMARK    5  A    between atoms: N_7  and  C_8 
REMARK    6  A    between atoms: C_12  and  N_13 
REMARK    7  A    between atoms: C_16  and  C_17 
REMARK       I    between atoms: C_17  and  N_18 
REMARK    8  A    between atoms: N_18  and  N_19 
REMARK    9  A    between atoms: C_20  and  C_21 
REMARK   10  A    between atoms: C_22  and  O_23 
REMARK   11  A    between atoms: C_25  and  N_26 
REMARK   12  A    between atoms: N_26  and  C_27 
REMARK   13  A    between atoms: N_26  and  C_29 
ROOT
HETATM    1  C   UNL     1      43.609 -11.325   9.645  1.00  0.00     0.096 A 
HETATM    2  N   UNL     1      43.628 -10.968  10.994  1.00  0.00    -0.215 N 
HETATM    3  N   UNL     1      44.616 -11.675  11.611  1.00  0.00     0.012 NA
HETATM    4  N   UNL     1      45.147 -12.531  10.755  1.00  0.00    -0.152 NA
HETATM    5  C   UNL     1      44.535 -12.356   9.553  1.00  0.00     0.170 A 
ENDROOT
BRANCH   5   6
HETATM    6  C   UNL     1      44.829 -13.147   8.368  1.00  0.00     0.293 C 
HETATM    7  N   UNL     1      43.972 -14.211   8.168  1.00  0.00    -0.242 N 
HETATM    8  H   UNL     1      43.204 -14.380   8.816  1.00  0.00     0.192 HD
HETATM    9  O   UNL     1      45.770 -12.828   7.641  1.00  0.00    -0.264 OA
BRANCH   7  10
HETATM   10  N   UNL     1      44.179 -15.051   7.117  1.00  0.00    -0.183 NA
HETATM   11  C   UNL     1      43.376 -16.067   7.035  1.00  0.00     0.153 C 
BRANCH  11  12
HETATM   12  C   UNL     1      43.507 -17.054   5.945  1.00  0.00     0.016 A 
HETATM   13  C   UNL     1      44.611 -17.898   5.828  1.00  0.00     0.079 A 
HETATM   14  C   UNL     1      44.695 -18.811   4.772  1.00  0.00     0.066 A 
HETATM   15  C   UNL     1      43.690 -18.921   3.794  1.00  0.00     0.032 A 
HETATM   16  C   UNL     1      42.588 -18.059   3.946  1.00  0.00     0.030 A 
HETATM   17  C   UNL     1      42.489 -17.138   5.000  1.00  0.00     0.018 A 
BRANCH  13  18
HETATM   18  O   UNL     1      45.657 -17.889   6.714  1.00  0.00    -0.360 OA
HETATM   19  H   UNL     1      45.370 -18.375   7.516  1.00  0.00     0.217 HD
ENDBRANCH  13  18
BRANCH  15  20
HETATM   20  N   UNL     1      43.783 -19.819   2.737  1.00  0.00    -0.382 N 
BRANCH  20  21
HETATM   21  C   UNL     1      44.365 -21.157   2.908  1.00  0.00     0.118 C 
HETATM   22  C   UNL     1      44.231 -21.985   1.640  1.00  0.00     0.026 C 
ENDBRANCH  20  21
BRANCH  20  23
HETATM   23  C   UNL     1      43.348 -19.466   1.376  1.00  0.00     0.118 C 
HETATM   24  C   UNL     1      43.768 -18.050   1.001  1.00  0.00     0.026 C 
ENDBRANCH  20  23
ENDBRANCH  15  20
ENDBRANCH  11  12
ENDBRANCH   7  10
ENDBRANCH   5   6
BRANCH   1  25
HETATM   25  C   UNL     1      42.828 -10.668   8.565  1.00  0.00     0.296 C 
BRANCH  25  26
HETATM   26  N   UNL     1      41.558 -11.400   8.168  1.00  0.00    -0.066 N 
HETATM   27  H   UNL     1      41.728 -12.399   8.406  1.00  0.00     0.280 HD
BRANCH  26  28
HETATM   28  C   UNL     1      41.337 -11.357   6.664  1.00  0.00     0.231 C 
HETATM   29  C   UNL     1      41.403 -12.751   6.067  1.00  0.00     0.034 C 
ENDBRANCH  26  28
BRANCH  26  30
HETATM   30  C   UNL     1      40.350 -10.915   8.939  1.00  0.00     0.231 C 
HETATM   31  C   UNL     1      40.326  -9.398   9.013  1.00  0.00     0.034 C 
ENDBRANCH  26  30
ENDBRANCH  25  26
ENDBRANCH   1  25
BRANCH   2  32
HETATM   32  C   UNL     1      42.776 -10.091  11.708  1.00  0.00     0.225 A 
HETATM   33  N   UNL     1      43.028  -8.781  11.733  1.00  0.00    -0.081 NA
HETATM   34  O   UNL     1      41.979  -8.254  12.492  1.00  0.00    -0.103 OA
HETATM   35  N   UNL     1      41.099  -9.250  12.889  1.00  0.00    -0.083 NA
HETATM   36  C   UNL     1      41.590 -10.388  12.403  1.00  0.00     0.201 A 
BRANCH  36  37
HETATM   37  N   UNL     1      41.022 -11.592  12.565  1.00  0.00    -0.379 N 
HETATM   38  H   UNL     1      40.097 -11.775  12.184  1.00  0.00     0.158 HD
HETATM   39  H   UNL     1      41.531 -12.423  12.862  1.00  0.00     0.158 HD
ENDBRANCH  36  37
ENDBRANCH   2  32
TORSDOF 13
ENDMDL
MODEL 2
REMARK VINA RESULT:      -7.0      7.246     10.501
REMARK  13 active torsions:
REMARK  status: ('A' for Active; 'I' for Inactive)
REMARK    1  A    between atoms: C_2  and  N_3 
REMARK    2  A    between atoms: N_3  and  C_5 
REMARK    3  A    between atoms: N_3  and  C_34 
REMARK    4  A    between atoms: C_5  and  C_6 
REMARK    5  A    between atoms: N_7  and  C_8 
REMARK    6  A    between atoms: C_12  and  N_13 
REMARK    7  A    between atoms: C_16  and  C_17 
REMARK       I    between atoms: C_17  and  N_18 
REMARK    8  A    between atoms: N_18  and  N_19 
REMARK    9  A    between atoms: C_20  and  C_21 
REMARK   10  A    between atoms: C_22  and  O_23 
REMARK   11  A    between atoms: C_25  and  N_26 
REMARK   12  A    between atoms: N_26  and  C_27 
REMARK   13  A    between atoms: N_26  and  C_29 
ROOT
HETATM    1  C   UNL     1      38.922 -13.619  -1.836  1.00  0.00     0.096 A 
HETATM    2  N   UNL     1      38.508 -12.939  -2.982  1.00  0.00    -0.215 N 
HETATM    3  N   UNL     1      39.536 -12.942  -3.877  1.00  0.00     0.012 NA
HETATM    4  N   UNL     1      40.604 -13.488  -3.322  1.00  0.00    -0.152 NA
HETATM    5  C   UNL     1      40.264 -13.890  -2.068  1.00  0.00     0.170 A 
ENDROOT
BRANCH   5   6
HETATM    6  C   UNL     1      41.192 -14.506  -1.132  1.00  0.00     0.293 C 
HETATM    7  N   UNL     1      41.090 -15.881  -1.051  1.00  0.00    -0.242 N 
HETATM    8  H   UNL     1      40.415 -16.379  -1.629  1.00  0.00     0.192 HD
HETATM    9  O   UNL     1      41.985 -13.801  -0.508  1.00  0.00    -0.264 OA
BRANCH   7  10
HETATM   10  N   UNL     1      41.875 -16.562  -0.172  1.00  0.00    -0.183 NA
HETATM   11  C   UNL     1      41.333 -16.842   0.973  1.00  0.00     0.153 C 
BRANCH  11  12
HETATM   12  C   UNL     1      42.087 -17.568   2.014  1.00  0.00     0.016 A 
HETATM   13  C   UNL     1      41.705 -17.566   3.355  1.00  0.00     0.079 A 
HETATM   14  C   UNL     1      42.457 -18.263   4.306  1.00  0.00     0.066 A 
HETATM   15  C   UNL     1      43.614 -18.986   3.965  1.00  0.00     0.032 A 
HETATM   16  C   UNL     1      43.968 -18.972   2.602  1.00  0.00     0.030 A 
HETATM   17  C   UNL     1      43.223 -18.278   1.636  1.00  0.00     0.018 A 
BRANCH  13  18
HETATM   18  O   UNL     1      40.599 -16.901   3.817  1.00  0.00    -0.360 OA
HETATM   19  H   UNL     1      40.896 -16.282   4.517  1.00  0.00     0.217 HD
ENDBRANCH  13  18
BRANCH  15  20
HETATM   20  N   UNL     1      44.369 -19.664   4.914  1.00  0.00    -0.382 N 
BRANCH  20  21
HETATM   21  C   UNL     1      45.175 -20.842   4.563  1.00  0.00     0.118 C 
HETATM   22  C   UNL     1      44.776 -22.052   5.393  1.00  0.00     0.026 C 
ENDBRANCH  20  21
BRANCH  20  23
HETATM   23  C   UNL     1      44.369 -19.273   6.333  1.00  0.00     0.118 C 
HETATM   24  C   UNL     1      45.257 -18.061   6.582  1.00  0.00     0.026 C 
ENDBRANCH  20  23
ENDBRANCH  15  20
ENDBRANCH  11  12
ENDBRANCH   7  10
ENDBRANCH   5   6
BRANCH   1  25
HETATM   25  C   UNL     1      38.068 -14.022  -0.689  1.00  0.00     0.296 C 
BRANCH  25  26
HETATM   26  N   UNL     1      38.355 -13.279   0.604  1.00  0.00    -0.066 N 
HETATM   27  H   UNL     1      39.201 -12.705   0.413  1.00  0.00     0.280 HD
BRANCH  26  28
HETATM   28  C   UNL     1      38.738 -14.235   1.723  1.00  0.00     0.231 C 
HETATM   29  C   UNL     1      39.926 -13.703   2.506  1.00  0.00     0.034 C 
ENDBRANCH  26  28
BRANCH  26  30
HETATM   30  C   UNL     1      37.222 -12.358   1.000  1.00  0.00     0.231 C 
HETATM   31  C   UNL     1      37.722 -10.937   1.200  1.00  0.00     0.034 C 
ENDBRANCH  26  30
ENDBRANCH  25  26
ENDBRANCH   1  25
BRANCH   2  32
HETATM   32  C   UNL     1      37.288 -12.271  -3.246  1.00  0.00     0.225 A 
HETATM   33  N   UNL     1      36.906 -11.242  -2.486  1.00  0.00    -0.081 NA
HETATM   34  O   UNL     1      35.698 -10.836  -3.059  1.00  0.00    -0.103 OA
HETATM   35  N   UNL     1      35.384 -11.607  -4.168  1.00  0.00    -0.083 NA
HETATM   36  C   UNL     1      36.369 -12.495  -4.287  1.00  0.00     0.201 A 
BRANCH  36  37
HETATM   37  N   UNL     1      36.440 -13.428  -5.249  1.00  0.00    -0.379 N 
HETATM   38  H   UNL     1      36.595 -14.402  -5.002  1.00  0.00     0.158 HD
HETATM   39  H   UNL     1      36.140 -13.275  -6.209  1.00  0.00     0.158 HD
ENDBRANCH  36  37
ENDBRANCH   2  32
TORSDOF 13
ENDMDL
MODEL 3
REMARK VINA RESULT:      -7.0      7.780     10.900
REMARK  13 active torsions:
REMARK  status: ('A' for Active; 'I' for Inactive)
REMARK    1  A    between atoms: C_2  and  N_3 
REMARK    2  A    between atoms: N_3  and  C_5 
REMARK    3  A    between atoms: N_3  and  C_34 
REMARK    4  A    between atoms: C_5  and  C_6 
REMARK    5  A    between atoms: N_7  and  C_8 
REMARK    6  A    between atoms: C_12  and  N_13 
REMARK    7  A    between atoms: C_16  and  C_17 
REMARK       I    between atoms: C_17  and  N_18 
REMARK    8  A    between atoms: N_18  and  N_19 
REMARK    9  A    between atoms: C_20  and  C_21 
REMARK   10  A    between atoms: C_22  and  O_23 
REMARK   11  A    between atoms: C_25  and  N_26 
REMARK   12  A    between atoms: N_26  and  C_27 
REMARK   13  A    between atoms: N_26  and  C_29 
ROOT
HETATM    1  C   UNL     1      39.280 -12.259  -1.823  1.00  0.00     0.096 A 
HETATM    2  N   UNL     1      38.584 -12.229  -3.033  1.00  0.00    -0.215 N 
HETATM    3  N   UNL     1      37.784 -13.330  -3.095  1.00  0.00     0.012 NA
HETATM    4  N   UNL     1      38.014 -14.103  -2.047  1.00  0.00    -0.152 NA
HETATM    5  C   UNL     1      38.939 -13.485  -1.266  1.00  0.00     0.170 A 
ENDROOT
BRANCH   5   6
HETATM    6  C   UNL     1      39.475 -14.050  -0.036  1.00  0.00     0.293 C 
HETATM    7  N   UNL     1      40.449 -15.009  -0.229  1.00  0.00    -0.242 N 
HETATM    8  H   UNL     1      40.745 -15.258  -1.171  1.00  0.00     0.192 HD
HETATM    9  O   UNL     1      39.057 -13.649   1.050  1.00  0.00    -0.264 OA
BRANCH   7  10
HETATM   10  N   UNL     1      40.988 -15.644   0.849  1.00  0.00    -0.183 NA
HETATM   11  C   UNL     1      41.723 -16.681   0.588  1.00  0.00     0.153 C 
BRANCH  11  12
HETATM   12  C   UNL     1      42.353 -17.457   1.674  1.00  0.00     0.016 A 
HETATM   13  C   UNL     1      41.807 -17.535   2.954  1.00  0.00     0.079 A 
HETATM   14  C   UNL     1      42.446 -18.276   3.953  1.00  0.00     0.066 A 
HETATM   15  C   UNL     1      43.649 -18.968   3.720  1.00  0.00     0.032 A 
HETATM   16  C   UNL     1      44.169 -18.873   2.416  1.00  0.00     0.030 A 
HETATM   17  C   UNL     1      43.539 -18.134   1.403  1.00  0.00     0.018 A 
BRANCH  13  18
HETATM   18  O   UNL     1      40.641 -16.907   3.309  1.00  0.00    -0.360 OA
HETATM   19  H   UNL     1      40.482 -16.189   2.662  1.00  0.00     0.217 HD
ENDBRANCH  13  18
BRANCH  15  20
HETATM   20  N   UNL     1      44.290 -19.691   4.718  1.00  0.00    -0.382 N 
BRANCH  20  21
HETATM   21  C   UNL     1      44.201 -19.303   6.133  1.00  0.00     0.118 C 
HETATM   22  C   UNL     1      45.198 -18.205   6.469  1.00  0.00     0.026 C 
ENDBRANCH  20  21
BRANCH  20  23
HETATM   23  C   UNL     1      45.133 -20.859   4.414  1.00  0.00     0.118 C 
HETATM   24  C   UNL     1      44.786 -22.048   5.300  1.00  0.00     0.026 C 
ENDBRANCH  20  23
ENDBRANCH  15  20
ENDBRANCH  11  12
ENDBRANCH   7  10
ENDBRANCH   5   6
BRANCH   1  25
HETATM   25  C   UNL     1      40.113 -11.169  -1.253  1.00  0.00     0.296 C 
BRANCH  25  26
HETATM   26  N   UNL     1      41.477 -11.011  -1.902  1.00  0.00    -0.066 N 
HETATM   27  H   UNL     1      41.310 -11.106  -2.925  1.00  0.00     0.280 HD
BRANCH  26  28
HETATM   28  C   UNL     1      42.411 -12.148  -1.520  1.00  0.00     0.231 C 
HETATM   29  C   UNL     1      42.682 -13.050  -2.712  1.00  0.00     0.034 C 
ENDBRANCH  26  28
BRANCH  26  30
HETATM   30  C   UNL     1      42.087  -9.653  -1.633  1.00  0.00     0.231 C 
HETATM   31  C   UNL     1      43.546  -9.784  -1.231  1.00  0.00     0.034 C 
ENDBRANCH  26  30
ENDBRANCH  25  26
ENDBRANCH   1  25
BRANCH   2  32
HETATM   32  C   UNL     1      38.670 -11.305  -4.102  1.00  0.00     0.225 A 
HETATM   33  N   UNL     1      39.858 -10.984  -4.620  1.00  0.00    -0.081 NA
HETATM   34  O   UNL     1      39.542 -10.091  -5.648  1.00  0.00    -0.103 OA
HETATM   35  N   UNL     1      38.171  -9.910  -5.751  1.00  0.00    -0.083 NA
HETATM   36  C   UNL     1      37.629 -10.662  -4.796  1.00  0.00     0.201 A 
BRANCH  36  37
HETATM   37  N   UNL     1      36.312 -10.766  -4.565  1.00  0.00    -0.379 N 
HETATM   38  H   UNL     1      35.712  -9.951  -4.663  1.00  0.00     0.158 HD
HETATM   39  H   UNL     1      35.816 -11.654  -4.501  1.00  0.00     0.158 HD
ENDBRANCH  36  37
ENDBRANCH   2  32
TORSDOF 13
ENDMDL
MODEL 4
REMARK VINA RESULT:      -7.0      2.276      4.004
REMARK  13 active torsions:
REMARK  status: ('A' for Active; 'I' for Inactive)
REMARK    1  A    between atoms: C_2  and  N_3 
REMARK    2  A    between atoms: N_3  and  C_5 
REMARK    3  A    between atoms: N_3  and  C_34 
REMARK    4  A    between atoms: C_5  and  C_6 
REMARK    5  A    between atoms: N_7  and  C_8 
REMARK    6  A    between atoms: C_12  and  N_13 
REMARK    7  A    between atoms: C_16  and  C_17 
REMARK       I    between atoms: C_17  and  N_18 
REMARK    8  A    between atoms: N_18  and  N_19 
REMARK    9  A    between atoms: C_20  and  C_21 
REMARK   10  A    between atoms: C_22  and  O_23 
REMARK   11  A    between atoms: C_25  and  N_26 
REMARK   12  A    between atoms: N_26  and  C_27 
REMARK   13  A    between atoms: N_26  and  C_29 
ROOT
HETATM    1  C   UNL     1      40.839 -10.131  10.066  1.00  0.00     0.096 A 
HETATM    2  N   UNL     1      40.033  -9.039  10.389  1.00  0.00    -0.215 N 
HETATM    3  N   UNL     1      39.605  -8.464   9.230  1.00  0.00     0.012 NA
HETATM    4  N   UNL     1      40.179  -9.064   8.201  1.00  0.00    -0.152 NA
HETATM    5  C   UNL     1      40.955 -10.071   8.684  1.00  0.00     0.170 A 
ENDROOT
BRANCH   5   6
HETATM    6  C   UNL     1      41.776 -10.937   7.850  1.00  0.00     0.293 C 
HETATM    7  N   UNL     1      41.064 -11.679   6.929  1.00  0.00    -0.242 N 
HETATM    8  H   UNL     1      40.052 -11.585   6.866  1.00  0.00     0.192 HD
HETATM    9  O   UNL     1      42.997 -10.945   7.999  1.00  0.00    -0.264 OA
BRANCH   7  10
HETATM   10  N   UNL     1      41.721 -12.561   6.127  1.00  0.00    -0.183 NA
HETATM   11  C   UNL     1      41.097 -13.670   5.871  1.00  0.00     0.153 C 
BRANCH  11  12
HETATM   12  C   UNL     1      41.711 -14.709   5.022  1.00  0.00     0.016 A 
HETATM   13  C   UNL     1      42.906 -14.504   4.332  1.00  0.00     0.079 A 
HETATM   14  C   UNL     1      43.445 -15.516   3.532  1.00  0.00     0.066 A 
HETATM   15  C   UNL     1      42.820 -16.768   3.386  1.00  0.00     0.032 A 
HETATM   16  C   UNL     1      41.620 -16.944   4.099  1.00  0.00     0.030 A 
HETATM   17  C   UNL     1      41.067 -15.938   4.906  1.00  0.00     0.018 A 
BRANCH  13  18
HETATM   18  O   UNL     1      43.611 -13.330   4.391  1.00  0.00    -0.360 OA
HETATM   19  H   UNL     1      43.001 -12.604   4.141  1.00  0.00     0.217 HD
ENDBRANCH  13  18
BRANCH  15  20
HETATM   20  N   UNL     1      43.350 -17.768   2.577  1.00  0.00    -0.382 N 
BRANCH  20  21
HETATM   21  C   UNL     1      43.511 -17.585   1.128  1.00  0.00     0.118 C 
HETATM   22  C   UNL     1      42.275 -16.948   0.510  1.00  0.00     0.026 C 
ENDBRANCH  20  21
BRANCH  20  23
HETATM   23  C   UNL     1      43.736 -19.082   3.116  1.00  0.00     0.118 C 
HETATM   24  C   UNL     1      43.548 -20.188   2.086  1.00  0.00     0.026 C 
ENDBRANCH  20  23
ENDBRANCH  15  20
ENDBRANCH  11  12
ENDBRANCH   7  10
ENDBRANCH   5   6
BRANCH   1  25
HETATM   25  C   UNL     1      41.360 -11.156  11.007  1.00  0.00     0.296 C 
BRANCH  25  26
HETATM   26  N   UNL     1      42.646 -10.769  11.716  1.00  0.00    -0.066 N 
HETATM   27  H   UNL     1      42.942  -9.870  11.281  1.00  0.00     0.280 HD
BRANCH  26  28
HETATM   28  C   UNL     1      43.761 -11.762  11.429  1.00  0.00     0.231 C 
HETATM   29  C   UNL     1      44.970 -11.062  10.833  1.00  0.00     0.034 C 
ENDBRANCH  26  28
BRANCH  26  30
HETATM   30  C   UNL     1      42.441 -10.548  13.199  1.00  0.00     0.231 C 
HETATM   31  C   UNL     1      43.329  -9.425  13.707  1.00  0.00     0.034 C 
ENDBRANCH  26  30
ENDBRANCH  25  26
ENDBRANCH   1  25
BRANCH   2  32
HETATM   32  C   UNL     1      39.709  -8.498  11.657  1.00  0.00     0.225 A 
HETATM   33  N   UNL     1      40.501  -7.585  12.221  1.00  0.00    -0.081 NA
HETATM   34  O   UNL     1      39.853  -7.277  13.421  1.00  0.00    -0.103 OA
HETATM   35  N   UNL     1      38.669  -7.988  13.547  1.00  0.00    -0.083 NA
HETATM   36  C   UNL     1      38.577  -8.743  12.455  1.00  0.00     0.201 A 
BRANCH  36  37
HETATM   37  N   UNL     1      37.562  -9.581  12.193  1.00  0.00    -0.379 N 
HETATM   38  H   UNL     1      37.260 -10.251  12.896  1.00  0.00     0.158 HD
HETATM   39  H   UNL     1      36.918  -9.464  11.413  1.00  0.00     0.158 HD
ENDBRANCH  36  37
ENDBRANCH   2  32
TORSDOF 13
ENDMDL
MODEL 5
REMARK VINA RESULT:      -6.9      5.827     10.802
REMARK  13 active torsions:
REMARK  status: ('A' for Active; 'I' for Inactive)
REMARK    1  A    between atoms: C_2  and  N_3 
REMARK    2  A    between atoms: N_3  and  C_5 
REMARK    3  A    between atoms: N_3  and  C_34 
REMARK    4  A    between atoms: C_5  and  C_6 
REMARK    5  A    between atoms: N_7  and  C_8 
REMARK    6  A    between atoms: C_12  and  N_13 
REMARK    7  A    between atoms: C_16  and  C_17 
REMARK       I    between atoms: C_17  and  N_18 
REMARK    8  A    between atoms: N_18  and  N_19 
REMARK    9  A    between atoms: C_20  and  C_21 
REMARK   10  A    between atoms: C_22  and  O_23 
REMARK   11  A    between atoms: C_25  and  N_26 
REMARK   12  A    between atoms: N_26  and  C_27 
REMARK   13  A    between atoms: N_26  and  C_29 
ROOT
HETATM    1  C   UNL     1      43.172 -18.401   3.735  1.00  0.00     0.096 A 
HETATM    2  N   UNL     1      43.971 -19.322   3.056  1.00  0.00    -0.215 N 
HETATM    3  N   UNL     1      44.313 -18.786   1.851  1.00  0.00     0.012 NA
HETATM    4  N   UNL     1      43.691 -17.631   1.688  1.00  0.00    -0.152 NA
HETATM    5  C   UNL     1      42.969 -17.382   2.813  1.00  0.00     0.170 A 
ENDROOT
BRANCH   5   6
HETATM    6  C   UNL     1      42.119 -16.215   2.993  1.00  0.00     0.293 C 
HETATM    7  N   UNL     1      40.832 -16.370   2.518  1.00  0.00    -0.242 N 
HETATM    8  H   UNL     1      40.543 -17.252   2.098  1.00  0.00     0.192 HD
HETATM    9  O   UNL     1      42.573 -15.211   3.543  1.00  0.00    -0.264 OA
BRANCH   7  10
HETATM   10  N   UNL     1      39.961 -15.327   2.588  1.00  0.00    -0.183 NA
HETATM   11  C   UNL     1      39.678 -14.747   1.462  1.00  0.00     0.153 C 
BRANCH  11  12
HETATM   12  C   UNL     1      38.753 -13.598   1.409  1.00  0.00     0.016 A 
HETATM   13  C   UNL     1      38.865 -12.507   2.271  1.00  0.00     0.079 A 
HETATM   14  C   UNL     1      37.960 -11.444   2.189  1.00  0.00     0.066 A 
HETATM   15  C   UNL     1      36.911 -11.423   1.253  1.00  0.00     0.032 A 
HETATM   16  C   UNL     1      36.830 -12.537   0.395  1.00  0.00     0.030 A 
HETATM   17  C   UNL     1      37.731 -13.610   0.465  1.00  0.00     0.018 A 
BRANCH  13  18
HETATM   18  O   UNL     1      39.843 -12.406   3.227  1.00  0.00    -0.360 OA
HETATM   19  H   UNL     1      40.566 -11.858   2.855  1.00  0.00     0.217 HD
ENDBRANCH  13  18
BRANCH  15  20
HETATM   20  N   UNL     1      36.002 -10.374   1.184  1.00  0.00    -0.382 N 
BRANCH  20  21
HETATM   21  C   UNL     1      36.419  -8.978   1.379  1.00  0.00     0.118 C 
HETATM   22  C   UNL     1      36.978  -8.383   0.096  1.00  0.00     0.026 C 
ENDBRANCH  20  21
BRANCH  20  23
HETATM   23  C   UNL     1      34.566 -10.601   0.958  1.00  0.00     0.118 C 
HETATM   24  C   UNL     1      33.717  -9.944   2.039  1.00  0.00     0.026 C 
ENDBRANCH  20  23
ENDBRANCH  15  20
ENDBRANCH  11  12
ENDBRANCH   7  10
ENDBRANCH   5   6
BRANCH   1  25
HETATM   25  C   UNL     1      42.734 -18.483   5.152  1.00  0.00     0.296 C 
BRANCH  25  26
HETATM   26  N   UNL     1      43.244 -17.360   6.038  1.00  0.00    -0.066 N 
HETATM   27  H   UNL     1      43.568 -16.617   5.385  1.00  0.00     0.280 HD
BRANCH  26  28
HETATM   28  C   UNL     1      44.470 -17.787   6.830  1.00  0.00     0.231 C 
HETATM   29  C   UNL     1      44.130 -18.919   7.785  1.00  0.00     0.034 C 
ENDBRANCH  26  28
BRANCH  26  30
HETATM   30  C   UNL     1      42.159 -16.789   6.924  1.00  0.00     0.231 C 
HETATM   31  C   UNL     1      40.801 -16.884   6.249  1.00  0.00     0.034 C 
ENDBRANCH  26  30
ENDBRANCH  25  26
ENDBRANCH   1  25
BRANCH   2  32
HETATM   32  C   UNL     1      44.360 -20.630   3.431  1.00  0.00     0.225 A 
HETATM   33  N   UNL     1      44.805 -20.871   4.666  1.00  0.00    -0.081 NA
HETATM   34  O   UNL     1      45.055 -22.247   4.668  1.00  0.00    -0.103 OA
HETATM   35  N   UNL     1      44.733 -22.815   3.444  1.00  0.00    -0.083 NA
HETATM   36  C   UNL     1      44.300 -21.816   2.679  1.00  0.00     0.201 A 
BRANCH  36  37
HETATM   37  N   UNL     1      43.884 -21.955   1.411  1.00  0.00    -0.379 N 
HETATM   38  H   UNL     1      42.991 -22.401   1.213  1.00  0.00     0.158 HD
HETATM   39  H   UNL     1      44.294 -21.457   0.623  1.00  0.00     0.158 HD
ENDBRANCH  36  37
ENDBRANCH   2  32
TORSDOF 13
ENDMDL
MODEL 6
REMARK VINA RESULT:      -6.6      7.944     11.054
REMARK  13 active torsions:
REMARK  status: ('A' for Active; 'I' for Inactive)
REMARK    1  A    between atoms: C_2  and  N_3 
REMARK    2  A    between atoms: N_3  and  C_5 
REMARK    3  A    between atoms: N_3  and  C_34 
REMARK    4  A    between atoms: C_5  and  C_6 
REMARK    5  A    between atoms: N_7  and  C_8 
REMARK    6  A    between atoms: C_12  and  N_13 
REMARK    7  A    between atoms: C_16  and  C_17 
REMARK       I    between atoms: C_17  and  N_18 
REMARK    8  A    between atoms: N_18  and  N_19 
REMARK    9  A    between atoms: C_20  and  C_21 
REMARK   10  A    between atoms: C_22  and  O_23 
REMARK   11  A    between atoms: C_25  and  N_26 
REMARK   12  A    between atoms: N_26  and  C_27 
REMARK   13  A    between atoms: N_26  and  C_29 
ROOT
HETATM    1  C   UNL     1      39.438 -12.460  -2.304  1.00  0.00     0.096 A 
HETATM    2  N   UNL     1      38.243 -12.231  -2.987  1.00  0.00    -0.215 N 
HETATM    3  N   UNL     1      37.547 -13.401  -3.036  1.00  0.00     0.012 NA
HETATM    4  N   UNL     1      38.279 -14.373  -2.520  1.00  0.00    -0.152 NA
HETATM    5  C   UNL     1      39.448 -13.832  -2.086  1.00  0.00     0.170 A 
ENDROOT
BRANCH   5   6
HETATM    6  C   UNL     1      40.528 -14.601  -1.488  1.00  0.00     0.293 C 
HETATM    7  N   UNL     1      40.244 -15.100  -0.232  1.00  0.00    -0.242 N 
HETATM    8  H   UNL     1      39.335 -14.930   0.194  1.00  0.00     0.192 HD
HETATM    9  O   UNL     1      41.576 -14.765  -2.113  1.00  0.00    -0.264 OA
BRANCH   7  10
HETATM   10  N   UNL     1      41.199 -15.795   0.445  1.00  0.00    -0.183 NA
HETATM   11  C   UNL     1      40.798 -16.421   1.509  1.00  0.00     0.153 C 
BRANCH  11  12
HETATM   12  C   UNL     1      41.742 -17.201   2.333  1.00  0.00     0.016 A 
HETATM   13  C   UNL     1      42.953 -17.681   1.834  1.00  0.00     0.079 A 
HETATM   14  C   UNL     1      43.811 -18.423   2.651  1.00  0.00     0.066 A 
HETATM   15  C   UNL     1      43.502 -18.717   3.991  1.00  0.00     0.032 A 
HETATM   16  C   UNL     1      42.276 -18.213   4.465  1.00  0.00     0.030 A 
HETATM   17  C   UNL     1      41.405 -17.467   3.657  1.00  0.00     0.018 A 
BRANCH  13  18
HETATM   18  O   UNL     1      43.370 -17.463   0.546  1.00  0.00    -0.360 OA
HETATM   19  H   UNL     1      43.192 -18.280   0.034  1.00  0.00     0.217 HD
ENDBRANCH  13  18
BRANCH  15  20
HETATM   20  N   UNL     1      44.350 -19.469   4.797  1.00  0.00    -0.382 N 
BRANCH  20  21
HETATM   21  C   UNL     1      45.112 -20.608   4.265  1.00  0.00     0.118 C 
HETATM   22  C   UNL     1      44.840 -21.875   5.062  1.00  0.00     0.026 C 
ENDBRANCH  20  21
BRANCH  20  23
HETATM   23  C   UNL     1      44.498 -19.198   6.236  1.00  0.00     0.118 C 
HETATM   24  C   UNL     1      45.330 -17.948   6.489  1.00  0.00     0.026 C 
ENDBRANCH  20  23
ENDBRANCH  15  20
ENDBRANCH  11  12
ENDBRANCH   7  10
ENDBRANCH   5   6
BRANCH   1  25
HETATM   25  C   UNL     1      40.410 -11.432  -1.850  1.00  0.00     0.296 C 
BRANCH  25  26
HETATM   26  N   UNL     1      41.755 -11.480  -2.553  1.00  0.00    -0.066 N 
HETATM   27  H   UNL     1      41.773 -12.391  -3.056  1.00  0.00     0.280 HD
BRANCH  26  28
HETATM   28  C   UNL     1      42.904 -11.527  -1.557  1.00  0.00     0.231 C 
HETATM   29  C   UNL     1      43.535 -10.156  -1.394  1.00  0.00     0.034 C 
ENDBRANCH  26  28
BRANCH  26  30
HETATM   30  C   UNL     1      41.917 -10.364  -3.562  1.00  0.00     0.231 C 
HETATM   31  C   UNL     1      42.325 -10.913  -4.918  1.00  0.00     0.034 C 
ENDBRANCH  26  30
ENDBRANCH  25  26
ENDBRANCH   1  25
BRANCH   2  32
HETATM   32  C   UNL     1      37.773 -11.052  -3.614  1.00  0.00     0.225 A 
HETATM   33  N   UNL     1      37.986  -9.860  -3.052  1.00  0.00    -0.081 NA
HETATM   34  O   UNL     1      37.417  -8.959  -3.957  1.00  0.00    -0.103 OA
HETATM   35  N   UNL     1      36.894  -9.619  -5.060  1.00  0.00    -0.083 NA
HETATM   36  C   UNL     1      37.116 -10.915  -4.850  1.00  0.00     0.201 A 
BRANCH  36  37
HETATM   37  N   UNL     1      36.761 -11.894  -5.696  1.00  0.00    -0.379 N 
HETATM   38  H   UNL     1      35.793 -11.984  -5.993  1.00  0.00     0.158 HD
HETATM   39  H   UNL     1      37.426 -12.438  -6.243  1.00  0.00     0.158 HD
ENDBRANCH  36  37
ENDBRANCH   2  32
TORSDOF 13
ENDMDL
MODEL 7
REMARK VINA RESULT:      -6.6      7.661     10.960
REMARK  13 active torsions:
REMARK  status: ('A' for Active; 'I' for Inactive)
REMARK    1  A    between atoms: C_2  and  N_3 
REMARK    2  A    between atoms: N_3  and  C_5 
REMARK    3  A    between atoms: N_3  and  C_34 
REMARK    4  A    between atoms: C_5  and  C_6 
REMARK    5  A    between atoms: N_7  and  C_8 
REMARK    6  A    between atoms: C_12  and  N_13 
REMARK    7  A    between atoms: C_16  and  C_17 
REMARK       I    between atoms: C_17  and  N_18 
REMARK    8  A    between atoms: N_18  and  N_19 
REMARK    9  A    between atoms: C_20  and  C_21 
REMARK   10  A    between atoms: C_22  and  O_23 
REMARK   11  A    between atoms: C_25  and  N_26 
REMARK   12  A    between atoms: N_26  and  C_27 
REMARK   13  A    between atoms: N_26  and  C_29 
ROOT
HETATM    1  C   UNL     1      39.133 -12.268  -2.014  1.00  0.00     0.096 A 
HETATM    2  N   UNL     1      37.824 -11.869  -2.290  1.00  0.00    -0.215 N 
HETATM    3  N   UNL     1      37.106 -11.925  -1.134  1.00  0.00     0.012 NA
HETATM    4  N   UNL     1      37.856 -12.437  -0.172  1.00  0.00    -0.152 NA
HETATM    5  C   UNL     1      39.091 -12.677  -0.687  1.00  0.00     0.170 A 
ENDROOT
BRANCH   5   6
HETATM    6  C   UNL     1      40.184 -13.275   0.064  1.00  0.00     0.293 C 
HETATM    7  N   UNL     1      40.178 -14.656   0.074  1.00  0.00    -0.242 N 
HETATM    8  H   UNL     1      39.457 -15.169  -0.430  1.00  0.00     0.192 HD
HETATM    9  O   UNL     1      41.016 -12.550   0.609  1.00  0.00    -0.264 OA
BRANCH   7  10
HETATM   10  N   UNL     1      41.125 -15.325   0.786  1.00  0.00    -0.183 NA
HETATM   11  C   UNL     1      40.705 -16.343   1.473  1.00  0.00     0.153 C 
BRANCH  11  12
HETATM   12  C   UNL     1      41.636 -17.143   2.294  1.00  0.00     0.016 A 
HETATM   13  C   UNL     1      42.831 -17.653   1.788  1.00  0.00     0.079 A 
HETATM   14  C   UNL     1      43.676 -18.413   2.602  1.00  0.00     0.066 A 
HETATM   15  C   UNL     1      43.370 -18.695   3.946  1.00  0.00     0.032 A 
HETATM   16  C   UNL     1      42.159 -18.160   4.425  1.00  0.00     0.030 A 
HETATM   17  C   UNL     1      41.301 -17.395   3.621  1.00  0.00     0.018 A 
BRANCH  13  18
HETATM   18  O   UNL     1      43.245 -17.450   0.497  1.00  0.00    -0.360 OA
HETATM   19  H   UNL     1      44.203 -17.246   0.522  1.00  0.00     0.217 HD
ENDBRANCH  13  18
BRANCH  15  20
HETATM   20  N   UNL     1      44.204 -19.464   4.749  1.00  0.00    -0.382 N 
BRANCH  20  21
HETATM   21  C   UNL     1      45.037 -20.540   4.191  1.00  0.00     0.118 C 
HETATM   22  C   UNL     1      44.978 -21.789   5.056  1.00  0.00     0.026 C 
ENDBRANCH  20  21
BRANCH  20  23
HETATM   23  C   UNL     1      44.268 -19.279   6.207  1.00  0.00     0.118 C 
HETATM   24  C   UNL     1      45.205 -18.139   6.588  1.00  0.00     0.026 C 
ENDBRANCH  20  23
ENDBRANCH  15  20
ENDBRANCH  11  12
ENDBRANCH   7  10
ENDBRANCH   5   6
BRANCH   1  25
HETATM   25  C   UNL     1      40.299 -12.176  -2.930  1.00  0.00     0.296 C 
BRANCH  25  26
HETATM   26  N   UNL     1      40.695 -13.489  -3.583  1.00  0.00    -0.066 N 
HETATM   27  H   UNL     1      40.828 -13.268  -4.591  1.00  0.00     0.280 HD
BRANCH  26  28
HETATM   28  C   UNL     1      39.566 -14.505  -3.521  1.00  0.00     0.231 C 
HETATM   29  C   UNL     1      40.113 -15.919  -3.433  1.00  0.00     0.034 C 
ENDBRANCH  26  28
BRANCH  26  30
HETATM   30  C   UNL     1      41.992 -14.038  -3.030  1.00  0.00     0.231 C 
HETATM   31  C   UNL     1      42.864 -12.921  -2.484  1.00  0.00     0.034 C 
ENDBRANCH  26  30
ENDBRANCH  25  26
ENDBRANCH   1  25
BRANCH   2  32
HETATM   32  C   UNL     1      37.229 -11.515  -3.525  1.00  0.00     0.225 A 
HETATM   33  N   UNL     1      37.398 -10.289  -4.026  1.00  0.00    -0.081 NA
HETATM   34  O   UNL     1      36.705 -10.327  -5.239  1.00  0.00    -0.103 OA
HETATM   35  N   UNL     1      36.153 -11.580  -5.462  1.00  0.00    -0.083 NA
HETATM   36  C   UNL     1      36.479 -12.317  -4.403  1.00  0.00     0.201 A 
BRANCH  36  37
HETATM   37  N   UNL     1      36.135 -13.603  -4.237  1.00  0.00    -0.379 N 
HETATM   38  H   UNL     1      36.074 -13.997  -3.301  1.00  0.00     0.158 HD
HETATM   39  H   UNL     1      35.718 -14.177  -4.967  1.00  0.00     0.158 HD
ENDBRANCH  36  37
ENDBRANCH   2  32
TORSDOF 13
ENDMDL
MODEL 8
REMARK VINA RESULT:      -6.6      6.117      9.814
REMARK  13 active torsions:
REMARK  status: ('A' for Active; 'I' for Inactive)
REMARK    1  A    between atoms: C_2  and  N_3 
REMARK    2  A    between atoms: N_3  and  C_5 
REMARK    3  A    between atoms: N_3  and  C_34 
REMARK    4  A    between atoms: C_5  and  C_6 
REMARK    5  A    between atoms: N_7  and  C_8 
REMARK    6  A    between atoms: C_12  and  N_13 
REMARK    7  A    between atoms: C_16  and  C_17 
REMARK       I    between atoms: C_17  and  N_18 
REMARK    8  A    between atoms: N_18  and  N_19 
REMARK    9  A    between atoms: C_20  and  C_21 
REMARK   10  A    between atoms: C_22  and  O_23 
REMARK   11  A    between atoms: C_25  and  N_26 
REMARK   12  A    between atoms: N_26  and  C_27 
REMARK   13  A    between atoms: N_26  and  C_29 
ROOT
HETATM    1  C   UNL     1      42.532 -17.685   3.795  1.00  0.00     0.096 A 
HETATM    2  N   UNL     1      43.498 -18.506   4.378  1.00  0.00    -0.215 N 
HETATM    3  N   UNL     1      44.241 -19.068   3.384  1.00  0.00     0.012 NA
HETATM    4  N   UNL     1      43.733 -18.734   2.210  1.00  0.00    -0.152 NA
HETATM    5  C   UNL     1      42.675 -17.909   2.431  1.00  0.00     0.170 A 
ENDROOT
BRANCH   5   6
HETATM    6  C   UNL     1      41.836 -17.361   1.376  1.00  0.00     0.293 C 
HETATM    7  N   UNL     1      42.449 -16.388   0.611  1.00  0.00    -0.242 N 
HETATM    8  H   UNL     1      43.413 -16.119   0.798  1.00  0.00     0.192 HD
HETATM    9  O   UNL     1      40.691 -17.786   1.227  1.00  0.00    -0.264 OA
BRANCH   7  10
HETATM   10  N   UNL     1      41.744 -15.768  -0.375  1.00  0.00    -0.183 NA
HETATM   11  C   UNL     1      41.655 -14.477  -0.283  1.00  0.00     0.153 C 
BRANCH  11  12
HETATM   12  C   UNL     1      40.908 -13.693  -1.287  1.00  0.00     0.016 A 
HETATM   13  C   UNL     1      41.184 -13.768  -2.652  1.00  0.00     0.079 A 
HETATM   14  C   UNL     1      40.455 -13.000  -3.565  1.00  0.00     0.066 A 
HETATM   15  C   UNL     1      39.427 -12.129  -3.159  1.00  0.00     0.032 A 
HETATM   16  C   UNL     1      39.171 -12.082  -1.776  1.00  0.00     0.030 A 
HETATM   17  C   UNL     1      39.894 -12.847  -0.848  1.00  0.00     0.018 A 
BRANCH  13  18
HETATM   18  O   UNL     1      42.159 -14.577  -3.175  1.00  0.00    -0.360 OA
HETATM   19  H   UNL     1      41.723 -15.215  -3.779  1.00  0.00     0.217 HD
ENDBRANCH  13  18
BRANCH  15  20
HETATM   20  N   UNL     1      38.715 -11.354  -4.067  1.00  0.00    -0.382 N 
BRANCH  20  21
HETATM   21  C   UNL     1      39.392 -10.528  -5.077  1.00  0.00     0.118 C 
HETATM   22  C   UNL     1      40.096  -9.341  -4.439  1.00  0.00     0.026 C 
ENDBRANCH  20  21
BRANCH  20  23
HETATM   23  C   UNL     1      37.245 -11.278  -4.040  1.00  0.00     0.118 C 
HETATM   24  C   UNL     1      36.607 -12.623  -4.363  1.00  0.00     0.026 C 
ENDBRANCH  20  23
ENDBRANCH  15  20
ENDBRANCH  11  12
ENDBRANCH   7  10
ENDBRANCH   5   6
BRANCH   1  25
HETATM   25  C   UNL     1      41.635 -16.734   4.500  1.00  0.00     0.296 C 
BRANCH  25  26
HETATM   26  N   UNL     1      41.600 -15.338   3.903  1.00  0.00    -0.066 N 
HETATM   27  H   UNL     1      41.837 -15.460   2.897  1.00  0.00     0.280 HD
BRANCH  26  28
HETATM   28  C   UNL     1      42.690 -14.454   4.489  1.00  0.00     0.231 C 
HETATM   29  C   UNL     1      43.679 -14.032   3.417  1.00  0.00     0.034 C 
ENDBRANCH  26  28
BRANCH  26  30
HETATM   30  C   UNL     1      40.230 -14.703   4.006  1.00  0.00     0.231 C 
HETATM   31  C   UNL     1      39.554 -14.650   2.647  1.00  0.00     0.034 C 
ENDBRANCH  26  30
ENDBRANCH  25  26
ENDBRANCH   1  25
BRANCH   2  32
HETATM   32  C   UNL     1      43.712 -18.821   5.742  1.00  0.00     0.225 A 
HETATM   33  N   UNL     1      43.506 -20.063   6.186  1.00  0.00    -0.081 NA
HETATM   34  O   UNL     1      43.843 -19.993   7.540  1.00  0.00    -0.103 OA
HETATM   35  N   UNL     1      44.272 -18.719   7.885  1.00  0.00    -0.083 NA
HETATM   36  C   UNL     1      44.194 -17.993   6.772  1.00  0.00     0.201 A 
BRANCH  36  37
HETATM   37  N   UNL     1      44.527 -16.697   6.685  1.00  0.00    -0.379 N 
HETATM   38  H   UNL     1      45.506 -16.421   6.693  1.00  0.00     0.158 HD
HETATM   39  H   UNL     1      43.882 -15.964   6.395  1.00  0.00     0.158 HD
ENDBRANCH  36  37
ENDBRANCH   2  32
TORSDOF 13
ENDMDL
MODEL 9
REMARK VINA RESULT:      -6.6      4.519     10.671
REMARK  13 active torsions:
REMARK  status: ('A' for Active; 'I' for Inactive)
REMARK    1  A    between atoms: C_2  and  N_3 
REMARK    2  A    between atoms: N_3  and  C_5 
REMARK    3  A    between atoms: N_3  and  C_34 
REMARK    4  A    between atoms: C_5  and  C_6 
REMARK    5  A    between atoms: N_7  and  C_8 
REMARK    6  A    between atoms: C_12  and  N_13 
REMARK    7  A    between atoms: C_16  and  C_17 
REMARK       I    between atoms: C_17  and  N_18 
REMARK    8  A    between atoms: N_18  and  N_19 
REMARK    9  A    between atoms: C_20  and  C_21 
REMARK   10  A    between atoms: C_22  and  O_23 
REMARK   11  A    between atoms: C_25  and  N_26 
REMARK   12  A    between atoms: N_26  and  C_27 
REMARK   13  A    between atoms: N_26  and  C_29 
ROOT
HETATM    1  C   UNL     1      43.067 -18.505   3.745  1.00  0.00     0.096 A 
HETATM    2  N   UNL     1      44.006 -19.357   3.161  1.00  0.00    -0.215 N 
HETATM    3  N   UNL     1      44.567 -18.712   2.100  1.00  0.00     0.012 NA
HETATM    4  N   UNL     1      43.962 -17.551   1.918  1.00  0.00    -0.152 NA
HETATM    5  C   UNL     1      43.027 -17.408   2.894  1.00  0.00     0.170 A 
ENDROOT
BRANCH   5   6
HETATM    6  C   UNL     1      42.131 -16.267   3.002  1.00  0.00     0.293 C 
HETATM    7  N   UNL     1      42.711 -15.138   3.547  1.00  0.00    -0.242 N 
HETATM    8  H   UNL     1      43.691 -15.148   3.823  1.00  0.00     0.192 HD
HETATM    9  O   UNL     1      40.969 -16.366   2.607  1.00  0.00    -0.264 OA
BRANCH   7  10
HETATM   10  N   UNL     1      41.955 -14.023   3.742  1.00  0.00    -0.183 NA
HETATM   11  C   UNL     1      41.971 -13.530   4.942  1.00  0.00     0.153 C 
BRANCH  11  12
HETATM   12  C   UNL     1      41.184 -12.327   5.280  1.00  0.00     0.016 A 
HETATM   13  C   UNL     1      40.187 -12.335   6.255  1.00  0.00     0.079 A 
HETATM   14  C   UNL     1      39.461 -11.173   6.534  1.00  0.00     0.066 A 
HETATM   15  C   UNL     1      39.696  -9.962   5.858  1.00  0.00     0.032 A 
HETATM   16  C   UNL     1      40.713  -9.988   4.885  1.00  0.00     0.030 A 
HETATM   17  C   UNL     1      41.450 -11.146   4.594  1.00  0.00     0.018 A 
BRANCH  13  18
HETATM   18  O   UNL     1      39.861 -13.449   6.984  1.00  0.00    -0.360 OA
HETATM   19  H   UNL     1      40.188 -13.312   7.898  1.00  0.00     0.217 HD
ENDBRANCH  13  18
BRANCH  15  20
HETATM   20  N   UNL     1      38.963  -8.812   6.126  1.00  0.00    -0.382 N 
BRANCH  20  21
HETATM   21  C   UNL     1      38.608  -8.424   7.499  1.00  0.00     0.118 C 
HETATM   22  C   UNL     1      39.477  -7.276   7.991  1.00  0.00     0.026 C 
ENDBRANCH  20  21
BRANCH  20  23
HETATM   23  C   UNL     1      38.459  -7.941   5.051  1.00  0.00     0.118 C 
HETATM   24  C   UNL     1      37.040  -8.316   4.643  1.00  0.00     0.026 C 
ENDBRANCH  20  23
ENDBRANCH  15  20
ENDBRANCH  11  12
ENDBRANCH   7  10
ENDBRANCH   5   6
BRANCH   1  25
HETATM   25  C   UNL     1      42.359 -18.718   5.034  1.00  0.00     0.296 C 
BRANCH  25  26
HETATM   26  N   UNL     1      43.050 -18.110   6.242  1.00  0.00    -0.066 N 
HETATM   27  H   UNL     1      43.248 -18.909   6.879  1.00  0.00     0.280 HD
BRANCH  26  28
HETATM   28  C   UNL     1      42.120 -17.182   7.008  1.00  0.00     0.231 C 
HETATM   29  C   UNL     1      40.831 -16.950   6.238  1.00  0.00     0.034 C 
ENDBRANCH  26  28
BRANCH  26  30
HETATM   30  C   UNL     1      44.357 -17.440   5.880  1.00  0.00     0.231 C 
HETATM   31  C   UNL     1      45.521 -18.096   6.602  1.00  0.00     0.034 C 
ENDBRANCH  26  30
ENDBRANCH  25  26
ENDBRANCH   1  25
BRANCH   2  32
HETATM   32  C   UNL     1      44.343 -20.691   3.491  1.00  0.00     0.225 A 
HETATM   33  N   UNL     1      44.710 -21.005   4.735  1.00  0.00    -0.081 NA
HETATM   34  O   UNL     1      44.929 -22.384   4.680  1.00  0.00    -0.103 OA
HETATM   35  N   UNL     1      44.665 -22.884   3.413  1.00  0.00    -0.083 NA
HETATM   36  C   UNL     1      44.299 -21.837   2.676  1.00  0.00     0.201 A 
BRANCH  36  37
HETATM   37  N   UNL     1      43.954 -21.902   1.381  1.00  0.00    -0.379 N 
HETATM   38  H   UNL     1      43.367 -21.179   0.974  1.00  0.00     0.158 HD
HETATM   39  H   UNL     1      44.407 -22.513   0.705  1.00  0.00     0.158 HD
ENDBRANCH  36  37
ENDBRANCH   2  32
TORSDOF 13
ENDMDL
MODEL 10
REMARK VINA RESULT:      -6.5      3.504     10.981
REMARK  13 active torsions:
REMARK  status: ('A' for Active; 'I' for Inactive)
REMARK    1  A    between atoms: C_2  and  N_3 
REMARK    2  A    between atoms: N_3  and  C_5 
REMARK    3  A    between atoms: N_3  and  C_34 
REMARK    4  A    between atoms: C_5  and  C_6 
REMARK    5  A    between atoms: N_7  and  C_8 
REMARK    6  A    between atoms: C_12  and  N_13 
REMARK    7  A    between atoms: C_16  and  C_17 
REMARK       I    between atoms: C_17  and  N_18 
REMARK    8  A    between atoms: N_18  and  N_19 
REMARK    9  A    between atoms: C_20  and  C_21 
REMARK   10  A    between atoms: C_22  and  O_23 
REMARK   11  A    between atoms: C_25  and  N_26 
REMARK   12  A    between atoms: N_26  and  C_27 
REMARK   13  A    between atoms: N_26  and  C_29 
ROOT
HETATM    1  C   UNL     1      40.818 -14.000   4.368  1.00  0.00     0.096 A 
HETATM    2  N   UNL     1      40.970 -14.060   2.982  1.00  0.00    -0.215 N 
HETATM    3  N   UNL     1      40.606 -12.856   2.458  1.00  0.00     0.012 NA
HETATM    4  N   UNL     1      40.134 -12.081   3.419  1.00  0.00    -0.152 NA
HETATM    5  C   UNL     1      40.230 -12.762   4.592  1.00  0.00     0.170 A 
ENDROOT
BRANCH   5   6
HETATM    6  C   UNL     1      39.775 -12.245   5.873  1.00  0.00     0.293 C 
HETATM    7  N   UNL     1      40.537 -11.207   6.371  1.00  0.00    -0.242 N 
HETATM    8  H   UNL     1      41.335 -10.857   5.843  1.00  0.00     0.192 HD
HETATM    9  O   UNL     1      38.776 -12.730   6.405  1.00  0.00    -0.264 OA
BRANCH   7  10
HETATM   10  N   UNL     1      40.235 -10.675   7.587  1.00  0.00    -0.183 NA
HETATM   11  C   UNL     1      41.208 -10.628   8.444  1.00  0.00     0.153 C 
BRANCH  11  12
HETATM   12  C   UNL     1      41.001 -10.082   9.800  1.00  0.00     0.016 A 
HETATM   13  C   UNL     1      40.265 -10.756  10.775  1.00  0.00     0.079 A 
HETATM   14  C   UNL     1      40.089 -10.195  12.043  1.00  0.00     0.066 A 
HETATM   15  C   UNL     1      40.634  -8.946  12.393  1.00  0.00     0.032 A 
HETATM   16  C   UNL     1      41.375  -8.296  11.388  1.00  0.00     0.030 A 
HETATM   17  C   UNL     1      41.561  -8.847  10.111  1.00  0.00     0.018 A 
BRANCH  13  18
HETATM   18  O   UNL     1      39.683 -11.979  10.560  1.00  0.00    -0.360 OA
HETATM   19  H   UNL     1      40.076 -12.611  11.199  1.00  0.00     0.217 HD
ENDBRANCH  13  18
BRANCH  15  20
HETATM   20  N   UNL     1      40.444  -8.383  13.649  1.00  0.00    -0.382 N 
BRANCH  20  21
HETATM   21  C   UNL     1      39.143  -7.838  14.063  1.00  0.00     0.118 C 
HETATM   22  C   UNL     1      39.137  -7.484  15.542  1.00  0.00     0.026 C 
ENDBRANCH  20  21
BRANCH  20  23
HETATM   23  C   UNL     1      41.543  -8.256  14.619  1.00  0.00     0.118 C 
HETATM   24  C   UNL     1      42.229  -9.593  14.869  1.00  0.00     0.026 C 
ENDBRANCH  20  23
ENDBRANCH  15  20
ENDBRANCH  11  12
ENDBRANCH   7  10
ENDBRANCH   5   6
BRANCH   1  25
HETATM   25  C   UNL     1      41.276 -15.013   5.353  1.00  0.00     0.296 C 
BRANCH  25  26
HETATM   26  N   UNL     1      42.719 -15.454   5.182  1.00  0.00    -0.066 N 
HETATM   27  H   UNL     1      42.886 -15.464   4.155  1.00  0.00     0.280 HD
BRANCH  26  28
HETATM   28  C   UNL     1      42.926 -16.883   5.657  1.00  0.00     0.231 C 
HETATM   29  C   UNL     1      42.268 -17.870   4.708  1.00  0.00     0.034 C 
ENDBRANCH  26  28
BRANCH  26  30
HETATM   30  C   UNL     1      43.694 -14.490   5.823  1.00  0.00     0.231 C 
HETATM   31  C   UNL     1      44.303 -15.090   7.079  1.00  0.00     0.034 C 
ENDBRANCH  26  30
ENDBRANCH  25  26
ENDBRANCH   1  25
BRANCH   2  32
HETATM   32  C   UNL     1      41.359 -15.146   2.161  1.00  0.00     0.225 A 
HETATM   33  N   UNL     1      42.613 -15.234   1.711  1.00  0.00    -0.081 NA
HETATM   34  O   UNL     1      42.622 -16.425   0.981  1.00  0.00    -0.103 OA
HETATM   35  N   UNL     1      41.384 -17.050   1.025  1.00  0.00    -0.083 NA
HETATM   36  C   UNL     1      40.602 -16.261   1.758  1.00  0.00     0.201 A 
BRANCH  36  37
HETATM   37  N   UNL     1      39.316 -16.517   2.043  1.00  0.00    -0.379 N 
HETATM   38  H   UNL     1      39.080 -17.160   2.794  1.00  0.00     0.158 HD
HETATM   39  H   UNL     1      38.538 -15.954   1.704  1.00  0.00     0.158 HD
ENDBRANCH  36  37
ENDBRANCH   2  32
TORSDOF 13
ENDMDL
