MODEL 1
REMARK VINA RESULT:      -8.6      0.000      0.000
REMARK  5 active torsions:
REMARK  status: ('A' for Active; 'I' for Inactive)
REMARK    1  A    between atoms: C_2  and  N_3 
REMARK    2  A    between atoms: C_2  and  C_16 
REMARK    3  A    between atoms: N_3  and  C_6 
REMARK    4  A    between atoms: C_6  and  C_7 
REMARK    5  A    between atoms: C_19  and  C_20 
ROOT
HETATM    1  C   UNL     1      39.879 -15.652   2.089  1.00  0.00     0.049 C 
HETATM    2  C   UNL     1      40.946 -15.593   3.177  1.00  0.00     0.260 C 
ENDROOT
BRANCH   2   3
HETATM    3  N   UNL     1      40.245 -15.722   4.506  1.00  0.00    -0.060 N 
HETATM    4  H   UNL     1      39.225 -15.685   4.361  1.00  0.00     0.278 HD
HETATM    5  H   UNL     1      40.439 -16.642   4.925  1.00  0.00     0.278 HD
BRANCH   3   6
HETATM    6  C   UNL     1      40.568 -14.666   5.514  1.00  0.00     0.274 C 
BRANCH   6   7
HETATM    7  C   UNL     1      41.999 -14.746   5.943  1.00  0.00     0.004 A 
HETATM    8  C   UNL     1      42.508 -15.893   6.536  1.00  0.00     0.113 A 
HETATM    9  C   UNL     1      43.814 -15.989   6.955  1.00  0.00     0.105 A 
HETATM   10  O   UNL     1      41.812 -17.049   6.742  1.00  0.00    -0.322 OA
HETATM   11  O   UNL     1      44.097 -17.200   7.496  1.00  0.00    -0.323 OA
HETATM   12  C   UNL     1      44.697 -14.945   6.806  1.00  0.00     0.040 A 
HETATM   13  C   UNL     1      42.814 -17.844   7.435  1.00  0.00     0.352 A 
HETATM   14  C   UNL     1      44.222 -13.769   6.218  1.00  0.00     0.003 A 
HETATM   15  C   UNL     1      42.884 -13.667   5.793  1.00  0.00     0.012 A 
ENDBRANCH   6   7
ENDBRANCH   3   6
ENDBRANCH   2   3
BRANCH   2  16
HETATM   16  C   UNL     1      42.006 -16.614   2.937  1.00  0.00     0.203 A 
HETATM   17  O   UNL     1      43.132 -16.191   2.299  1.00  0.00    -0.194 OA
HETATM   18  N   UNL     1      43.937 -17.309   2.141  1.00  0.00    -0.106 NA
HETATM   19  C   UNL     1      43.242 -18.303   2.719  1.00  0.00     0.189 A 
HETATM   20  N   UNL     1      42.006 -17.899   3.193  1.00  0.00    -0.202 NA
BRANCH  19  21
HETATM   21  C   UNL     1      43.715 -19.677   2.842  1.00  0.00     0.017 A 
HETATM   22  C   UNL     1      44.333 -20.103   4.025  1.00  0.00     0.057 A 
HETATM   23  C   UNL     1      44.797 -21.410   4.136  1.00  0.00     0.117 A 
HETATM   24  F   UNL     1      45.392 -21.800   5.271  1.00  0.00    -0.206 F 
HETATM   25  C   UNL     1      44.659 -22.314   3.090  1.00  0.00     0.042 A 
HETATM   26  C   UNL     1      44.044 -21.904   1.909  1.00  0.00     0.004 A 
HETATM   27  C   UNL     1      43.576 -20.592   1.785  1.00  0.00     0.016 A 
ENDBRANCH  19  21
ENDBRANCH   2  16
TORSDOF 5
ENDMDL
MODEL 2
REMARK VINA RESULT:      -8.5      1.176      1.889
REMARK  5 active torsions:
REMARK  status: ('A' for Active; 'I' for Inactive)
REMARK    1  A    between atoms: C_2  and  N_3 
REMARK    2  A    between atoms: C_2  and  C_16 
REMARK    3  A    between atoms: N_3  and  C_6 
REMARK    4  A    between atoms: C_6  and  C_7 
REMARK    5  A    between atoms: C_19  and  C_20 
ROOT
HETATM    1  C   UNL     1      39.964 -15.855   2.306  1.00  0.00     0.049 C 
HETATM    2  C   UNL     1      41.411 -15.372   2.334  1.00  0.00     0.260 C 
ENDROOT
BRANCH   2   3
HETATM    3  N   UNL     1      41.591 -14.551   3.585  1.00  0.00    -0.060 N 
HETATM    4  H   UNL     1      42.587 -14.551   3.855  1.00  0.00     0.278 HD
HETATM    5  H   UNL     1      41.346 -13.568   3.406  1.00  0.00     0.278 HD
BRANCH   3   6
HETATM    6  C   UNL     1      40.828 -15.019   4.782  1.00  0.00     0.274 C 
BRANCH   6   7
HETATM    7  C   UNL     1      41.728 -15.695   5.769  1.00  0.00     0.004 A 
HETATM    8  C   UNL     1      42.897 -15.089   6.207  1.00  0.00     0.113 A 
HETATM    9  C   UNL     1      43.750 -15.693   7.101  1.00  0.00     0.105 A 
HETATM   10  O   UNL     1      43.321 -13.843   5.848  1.00  0.00    -0.322 OA
HETATM   11  O   UNL     1      44.824 -14.918   7.397  1.00  0.00    -0.323 OA
HETATM   12  C   UNL     1      43.488 -16.941   7.617  1.00  0.00     0.040 A 
HETATM   13  C   UNL     1      44.596 -13.782   6.546  1.00  0.00     0.352 A 
HETATM   14  C   UNL     1      42.323 -17.587   7.196  1.00  0.00     0.003 A 
HETATM   15  C   UNL     1      41.450 -16.973   6.277  1.00  0.00     0.012 A 
ENDBRANCH   6   7
ENDBRANCH   3   6
ENDBRANCH   2   3
BRANCH   2  16
HETATM   16  C   UNL     1      42.355 -16.520   2.208  1.00  0.00     0.203 A 
HETATM   17  O   UNL     1      43.417 -16.352   1.373  1.00  0.00    -0.194 OA
HETATM   18  N   UNL     1      44.114 -17.552   1.378  1.00  0.00    -0.106 NA
HETATM   19  C   UNL     1      43.428 -18.330   2.232  1.00  0.00     0.189 A 
HETATM   20  N   UNL     1      42.296 -17.717   2.739  1.00  0.00    -0.202 NA
BRANCH  19  21
HETATM   21  C   UNL     1      43.813 -19.687   2.601  1.00  0.00     0.017 A 
HETATM   22  C   UNL     1      44.373 -19.941   3.860  1.00  0.00     0.057 A 
HETATM   23  C   UNL     1      44.754 -21.234   4.205  1.00  0.00     0.117 A 
HETATM   24  F   UNL     1      45.294 -21.458   5.409  1.00  0.00    -0.206 F 
HETATM   25  C   UNL     1      44.587 -22.293   3.321  1.00  0.00     0.042 A 
HETATM   26  C   UNL     1      44.029 -22.056   2.067  1.00  0.00     0.004 A 
HETATM   27  C   UNL     1      43.645 -20.759   1.708  1.00  0.00     0.016 A 
ENDBRANCH  19  21
ENDBRANCH   2  16
TORSDOF 5
ENDMDL
MODEL 3
REMARK VINA RESULT:      -8.3      1.651      2.157
REMARK  5 active torsions:
REMARK  status: ('A' for Active; 'I' for Inactive)
REMARK    1  A    between atoms: C_2  and  N_3 
REMARK    2  A    between atoms: C_2  and  C_16 
REMARK    3  A    between atoms: N_3  and  C_6 
REMARK    4  A    between atoms: C_6  and  C_7 
REMARK    5  A    between atoms: C_19  and  C_20 
ROOT
HETATM    1  C   UNL     1      41.937 -13.377   1.096  1.00  0.00     0.049 C 
HETATM    2  C   UNL     1      42.415 -14.055   2.377  1.00  0.00     0.260 C 
ENDROOT
BRANCH   2   3
HETATM    3  N   UNL     1      41.483 -13.636   3.486  1.00  0.00    -0.060 N 
HETATM    4  H   UNL     1      40.822 -12.930   3.130  1.00  0.00     0.278 HD
HETATM    5  H   UNL     1      40.910 -14.433   3.792  1.00  0.00     0.278 HD
BRANCH   3   6
HETATM    6  C   UNL     1      42.137 -13.034   4.688  1.00  0.00     0.274 C 
BRANCH   6   7
HETATM    7  C   UNL     1      42.781 -14.084   5.538  1.00  0.00     0.004 A 
HETATM    8  C   UNL     1      42.083 -15.219   5.929  1.00  0.00     0.113 A 
HETATM    9  C   UNL     1      42.644 -16.192   6.722  1.00  0.00     0.105 A 
HETATM   10  O   UNL     1      40.805 -15.523   5.561  1.00  0.00    -0.322 OA
HETATM   11  O   UNL     1      41.787 -17.214   6.972  1.00  0.00    -0.323 OA
HETATM   12  C   UNL     1      43.940 -16.096   7.173  1.00  0.00     0.040 A 
HETATM   13  C   UNL     1      40.598 -16.756   6.306  1.00  0.00     0.352 A 
HETATM   14  C   UNL     1      44.675 -14.966   6.806  1.00  0.00     0.003 A 
HETATM   15  C   UNL     1      44.101 -13.965   5.998  1.00  0.00     0.012 A 
ENDBRANCH   6   7
ENDBRANCH   3   6
ENDBRANCH   2   3
BRANCH   2  16
HETATM   16  C   UNL     1      42.524 -15.530   2.187  1.00  0.00     0.203 A 
HETATM   17  O   UNL     1      41.733 -16.085   1.228  1.00  0.00    -0.194 OA
HETATM   18  N   UNL     1      41.965 -17.452   1.271  1.00  0.00    -0.106 NA
HETATM   19  C   UNL     1      42.892 -17.601   2.233  1.00  0.00     0.189 A 
HETATM   20  N   UNL     1      43.232 -16.410   2.850  1.00  0.00    -0.202 NA
BRANCH  19  21
HETATM   21  C   UNL     1      43.491 -18.876   2.610  1.00  0.00     0.017 A 
HETATM   22  C   UNL     1      43.428 -19.967   1.733  1.00  0.00     0.057 A 
HETATM   23  C   UNL     1      43.986 -21.188   2.100  1.00  0.00     0.117 A 
HETATM   24  F   UNL     1      43.912 -22.223   1.253  1.00  0.00    -0.206 F 
HETATM   25  C   UNL     1      44.614 -21.351   3.328  1.00  0.00     0.042 A 
HETATM   26  C   UNL     1      44.686 -20.274   4.208  1.00  0.00     0.004 A 
HETATM   27  C   UNL     1      44.126 -19.043   3.851  1.00  0.00     0.016 A 
ENDBRANCH  19  21
ENDBRANCH   2  16
TORSDOF 5
ENDMDL
MODEL 4
REMARK VINA RESULT:      -8.3      1.845      4.342
REMARK  5 active torsions:
REMARK  status: ('A' for Active; 'I' for Inactive)
REMARK    1  A    between atoms: C_2  and  N_3 
REMARK    2  A    between atoms: C_2  and  C_16 
REMARK    3  A    between atoms: N_3  and  C_6 
REMARK    4  A    between atoms: C_6  and  C_7 
REMARK    5  A    between atoms: C_19  and  C_20 
ROOT
HETATM    1  C   UNL     1      44.145 -14.510   6.384  1.00  0.00     0.049 C 
HETATM    2  C   UNL     1      43.188 -15.691   6.510  1.00  0.00     0.260 C 
ENDROOT
BRANCH   2   3
HETATM    3  N   UNL     1      41.976 -15.385   5.667  1.00  0.00    -0.060 N 
HETATM    4  H   UNL     1      41.459 -16.257   5.481  1.00  0.00     0.278 HD
HETATM    5  H   UNL     1      41.327 -14.775   6.182  1.00  0.00     0.278 HD
BRANCH   3   6
HETATM    6  C   UNL     1      42.254 -14.765   4.336  1.00  0.00     0.274 C 
BRANCH   6   7
HETATM    7  C   UNL     1      41.768 -15.635   3.220  1.00  0.00     0.004 A 
HETATM    8  C   UNL     1      42.656 -16.335   2.416  1.00  0.00     0.113 A 
HETATM    9  C   UNL     1      42.239 -17.129   1.374  1.00  0.00     0.105 A 
HETATM   10  O   UNL     1      44.012 -16.353   2.570  1.00  0.00    -0.322 OA
HETATM   11  O   UNL     1      43.273 -17.725   0.729  1.00  0.00    -0.323 OA
HETATM   12  C   UNL     1      40.905 -17.278   1.070  1.00  0.00     0.040 A 
HETATM   13  C   UNL     1      44.399 -17.174   1.432  1.00  0.00     0.352 A 
HETATM   14  C   UNL     1      39.978 -16.585   1.853  1.00  0.00     0.003 A 
HETATM   15  C   UNL     1      40.404 -15.767   2.917  1.00  0.00     0.012 A 
ENDBRANCH   6   7
ENDBRANCH   3   6
ENDBRANCH   2   3
BRANCH   2  16
HETATM   16  C   UNL     1      43.873 -16.969   6.164  1.00  0.00     0.203 A 
HETATM   17  O   UNL     1      45.110 -17.166   6.698  1.00  0.00    -0.194 OA
HETATM   18  N   UNL     1      45.565 -18.378   6.201  1.00  0.00    -0.106 NA
HETATM   19  C   UNL     1      44.555 -18.820   5.430  1.00  0.00     0.189 A 
HETATM   20  N   UNL     1      43.495 -17.933   5.361  1.00  0.00    -0.202 NA
BRANCH  19  21
HETATM   21  C   UNL     1      44.554 -20.096   4.725  1.00  0.00     0.017 A 
HETATM   22  C   UNL     1      44.360 -20.131   3.337  1.00  0.00     0.057 A 
HETATM   23  C   UNL     1      44.345 -21.350   2.667  1.00  0.00     0.117 A 
HETATM   24  F   UNL     1      44.151 -21.366   1.342  1.00  0.00    -0.206 F 
HETATM   25  C   UNL     1      44.522 -22.547   3.348  1.00  0.00     0.042 A 
HETATM   26  C   UNL     1      44.718 -22.527   4.727  1.00  0.00     0.004 A 
HETATM   27  C   UNL     1      44.733 -21.308   5.412  1.00  0.00     0.016 A 
ENDBRANCH  19  21
ENDBRANCH   2  16
TORSDOF 5
ENDMDL
MODEL 5
REMARK VINA RESULT:      -8.2      3.597      6.059
REMARK  5 active torsions:
REMARK  status: ('A' for Active; 'I' for Inactive)
REMARK    1  A    between atoms: C_2  and  N_3 
REMARK    2  A    between atoms: C_2  and  C_16 
REMARK    3  A    between atoms: N_3  and  C_6 
REMARK    4  A    between atoms: C_6  and  C_7 
REMARK    5  A    between atoms: C_19  and  C_20 
ROOT
HETATM    1  C   UNL     1      39.819 -14.236   2.880  1.00  0.00     0.049 C 
HETATM    2  C   UNL     1      39.527 -15.373   1.906  1.00  0.00     0.260 C 
ENDROOT
BRANCH   2   3
HETATM    3  N   UNL     1      39.087 -14.754   0.604  1.00  0.00    -0.060 N 
HETATM    4  H   UNL     1      39.509 -15.271  -0.182  1.00  0.00     0.278 HD
HETATM    5  H   UNL     1      38.069 -14.846   0.490  1.00  0.00     0.278 HD
BRANCH   3   6
HETATM    6  C   UNL     1      39.456 -13.318   0.413  1.00  0.00     0.274 C 
BRANCH   6   7
HETATM    7  C   UNL     1      40.532 -13.167  -0.616  1.00  0.00     0.004 A 
HETATM    8  C   UNL     1      40.488 -13.872  -1.810  1.00  0.00     0.113 A 
HETATM    9  C   UNL     1      41.470 -13.765  -2.766  1.00  0.00     0.105 A 
HETATM   10  O   UNL     1      39.481 -14.710  -2.193  1.00  0.00    -0.322 OA
HETATM   11  O   UNL     1      41.220 -14.535  -3.855  1.00  0.00    -0.323 OA
HETATM   12  C   UNL     1      42.559 -12.942  -2.592  1.00  0.00     0.040 A 
HETATM   13  C   UNL     1      40.005 -15.194  -3.462  1.00  0.00     0.352 A 
HETATM   14  C   UNL     1      42.643 -12.218  -1.400  1.00  0.00     0.003 A 
HETATM   15  C   UNL     1      41.641 -12.330  -0.417  1.00  0.00     0.012 A 
ENDBRANCH   6   7
ENDBRANCH   3   6
ENDBRANCH   2   3
BRANCH   2  16
HETATM   16  C   UNL     1      40.700 -16.286   1.789  1.00  0.00     0.203 A 
HETATM   17  O   UNL     1      41.396 -16.244   0.619  1.00  0.00    -0.194 OA
HETATM   18  N   UNL     1      42.394 -17.202   0.721  1.00  0.00    -0.106 NA
HETATM   19  C   UNL     1      42.231 -17.721   1.950  1.00  0.00     0.189 A 
HETATM   20  N   UNL     1      41.148 -17.188   2.627  1.00  0.00    -0.202 NA
BRANCH  19  21
HETATM   21  C   UNL     1      43.089 -18.746   2.532  1.00  0.00     0.017 A 
HETATM   22  C   UNL     1      43.381 -19.911   1.810  1.00  0.00     0.057 A 
HETATM   23  C   UNL     1      44.188 -20.895   2.372  1.00  0.00     0.117 A 
HETATM   24  F   UNL     1      44.451 -22.005   1.671  1.00  0.00    -0.206 F 
HETATM   25  C   UNL     1      44.720 -20.747   3.647  1.00  0.00     0.042 A 
HETATM   26  C   UNL     1      44.441 -19.593   4.375  1.00  0.00     0.004 A 
HETATM   27  C   UNL     1      43.628 -18.598   3.821  1.00  0.00     0.016 A 
ENDBRANCH  19  21
ENDBRANCH   2  16
TORSDOF 5
ENDMDL
MODEL 6
REMARK VINA RESULT:      -8.2      3.540      5.841
REMARK  5 active torsions:
REMARK  status: ('A' for Active; 'I' for Inactive)
REMARK    1  A    between atoms: C_2  and  N_3 
REMARK    2  A    between atoms: C_2  and  C_16 
REMARK    3  A    between atoms: N_3  and  C_6 
REMARK    4  A    between atoms: C_6  and  C_7 
REMARK    5  A    between atoms: C_19  and  C_20 
ROOT
HETATM    1  C   UNL     1      42.839 -13.710   3.434  1.00  0.00     0.049 C 
HETATM    2  C   UNL     1      42.106 -14.901   2.826  1.00  0.00     0.260 C 
ENDROOT
BRANCH   2   3
HETATM    3  N   UNL     1      42.069 -14.697   1.332  1.00  0.00    -0.060 N 
HETATM    4  H   UNL     1      43.033 -14.662   0.967  1.00  0.00     0.278 HD
HETATM    5  H   UNL     1      41.620 -15.500   0.872  1.00  0.00     0.278 HD
BRANCH   3   6
HETATM    6  C   UNL     1      41.395 -13.447   0.867  1.00  0.00     0.274 C 
BRANCH   6   7
HETATM    7  C   UNL     1      41.761 -13.128  -0.548  1.00  0.00     0.004 A 
HETATM    8  C   UNL     1      41.470 -14.007  -1.582  1.00  0.00     0.113 A 
HETATM    9  C   UNL     1      41.808 -13.747  -2.889  1.00  0.00     0.105 A 
HETATM   10  O   UNL     1      40.801 -15.189  -1.445  1.00  0.00    -0.322 OA
HETATM   11  O   UNL     1      41.420 -14.737  -3.732  1.00  0.00    -0.323 OA
HETATM   12  C   UNL     1      42.458 -12.589  -3.248  1.00  0.00     0.040 A 
HETATM   13  C   UNL     1      40.854 -15.686  -2.812  1.00  0.00     0.352 A 
HETATM   14  C   UNL     1      42.774 -11.679  -2.236  1.00  0.00     0.003 A 
HETATM   15  C   UNL     1      42.433 -11.946  -0.896  1.00  0.00     0.012 A 
ENDBRANCH   6   7
ENDBRANCH   3   6
ENDBRANCH   2   3
BRANCH   2  16
HETATM   16  C   UNL     1      42.730 -16.185   3.257  1.00  0.00     0.203 A 
HETATM   17  O   UNL     1      43.352 -16.188   4.469  1.00  0.00    -0.194 OA
HETATM   18  N   UNL     1      43.894 -17.454   4.629  1.00  0.00    -0.106 NA
HETATM   19  C   UNL     1      43.532 -18.114   3.515  1.00  0.00     0.189 A 
HETATM   20  N   UNL     1      42.831 -17.325   2.619  1.00  0.00    -0.202 NA
BRANCH  19  21
HETATM   21  C   UNL     1      43.838 -19.514   3.250  1.00  0.00     0.017 A 
HETATM   22  C   UNL     1      44.483 -20.288   4.224  1.00  0.00     0.057 A 
HETATM   23  C   UNL     1      44.788 -21.621   3.964  1.00  0.00     0.117 A 
HETATM   24  F   UNL     1      45.410 -22.345   4.903  1.00  0.00    -0.206 F 
HETATM   25  C   UNL     1      44.462 -22.209   2.749  1.00  0.00     0.042 A 
HETATM   26  C   UNL     1      43.819 -21.453   1.772  1.00  0.00     0.004 A 
HETATM   27  C   UNL     1      43.510 -20.111   2.021  1.00  0.00     0.016 A 
ENDBRANCH  19  21
ENDBRANCH   2  16
TORSDOF 5
ENDMDL
MODEL 7
REMARK VINA RESULT:      -8.0      2.632      5.531
REMARK  5 active torsions:
REMARK  status: ('A' for Active; 'I' for Inactive)
REMARK    1  A    between atoms: C_2  and  N_3 
REMARK    2  A    between atoms: C_2  and  C_16 
REMARK    3  A    between atoms: N_3  and  C_6 
REMARK    4  A    between atoms: C_6  and  C_7 
REMARK    5  A    between atoms: C_19  and  C_20 
ROOT
HETATM    1  C   UNL     1      43.653 -14.060   3.733  1.00  0.00     0.049 C 
HETATM    2  C   UNL     1      42.596 -15.160   3.697  1.00  0.00     0.260 C 
ENDROOT
BRANCH   2   3
HETATM    3  N   UNL     1      41.972 -15.143   2.324  1.00  0.00    -0.060 N 
HETATM    4  H   UNL     1      41.861 -14.167   2.010  1.00  0.00     0.278 HD
HETATM    5  H   UNL     1      42.597 -15.592   1.642  1.00  0.00     0.278 HD
BRANCH   3   6
HETATM    6  C   UNL     1      40.622 -15.777   2.220  1.00  0.00     0.274 C 
BRANCH   6   7
HETATM    7  C   UNL     1      39.745 -15.031   1.265  1.00  0.00     0.004 A 
HETATM    8  C   UNL     1      40.231 -14.579   0.046  1.00  0.00     0.113 A 
HETATM    9  C   UNL     1      39.452 -13.877  -0.844  1.00  0.00     0.105 A 
HETATM   10  O   UNL     1      41.493 -14.794  -0.427  1.00  0.00    -0.322 OA
HETATM   11  O   UNL     1      40.127 -13.544  -1.973  1.00  0.00    -0.323 OA
HETATM   12  C   UNL     1      38.135 -13.585  -0.574  1.00  0.00     0.040 A 
HETATM   13  C   UNL     1      41.439 -14.052  -1.678  1.00  0.00     0.352 A 
HETATM   14  C   UNL     1      37.609 -14.018   0.645  1.00  0.00     0.003 A 
HETATM   15  C   UNL     1      38.406 -14.732   1.561  1.00  0.00     0.012 A 
ENDBRANCH   6   7
ENDBRANCH   3   6
ENDBRANCH   2   3
BRANCH   2  16
HETATM   16  C   UNL     1      43.184 -16.472   4.091  1.00  0.00     0.203 A 
HETATM   17  O   UNL     1      43.793 -16.531   5.307  1.00  0.00    -0.194 OA
HETATM   18  N   UNL     1      44.302 -17.815   5.431  1.00  0.00    -0.106 NA
HETATM   19  C   UNL     1      43.934 -18.428   4.292  1.00  0.00     0.189 A 
HETATM   20  N   UNL     1      43.263 -17.592   3.416  1.00  0.00    -0.202 NA
BRANCH  19  21
HETATM   21  C   UNL     1      44.208 -19.826   3.983  1.00  0.00     0.017 A 
HETATM   22  C   UNL     1      44.077 -20.293   2.668  1.00  0.00     0.057 A 
HETATM   23  C   UNL     1      44.324 -21.631   2.377  1.00  0.00     0.117 A 
HETATM   24  F   UNL     1      44.188 -22.063   1.117  1.00  0.00    -0.206 F 
HETATM   25  C   UNL     1      44.705 -22.525   3.370  1.00  0.00     0.042 A 
HETATM   26  C   UNL     1      44.841 -22.074   4.681  1.00  0.00     0.004 A 
HETATM   27  C   UNL     1      44.593 -20.731   4.986  1.00  0.00     0.016 A 
ENDBRANCH  19  21
ENDBRANCH   2  16
TORSDOF 5
ENDMDL
MODEL 8
REMARK VINA RESULT:      -8.0      3.761      6.733
REMARK  5 active torsions:
REMARK  status: ('A' for Active; 'I' for Inactive)
REMARK    1  A    between atoms: C_2  and  N_3 
REMARK    2  A    between atoms: C_2  and  C_16 
REMARK    3  A    between atoms: N_3  and  C_6 
REMARK    4  A    between atoms: C_6  and  C_7 
REMARK    5  A    between atoms: C_19  and  C_20 
ROOT
HETATM    1  C   UNL     1      39.124 -15.144   1.819  1.00  0.00     0.049 C 
HETATM    2  C   UNL     1      40.395 -15.549   1.077  1.00  0.00     0.260 C 
ENDROOT
BRANCH   2   3
HETATM    3  N   UNL     1      41.091 -14.283   0.647  1.00  0.00    -0.060 N 
HETATM    4  H   UNL     1      40.422 -13.498   0.671  1.00  0.00     0.278 HD
HETATM    5  H   UNL     1      41.837 -14.041   1.312  1.00  0.00     0.278 HD
BRANCH   3   6
HETATM    6  C   UNL     1      41.672 -14.301  -0.731  1.00  0.00     0.274 C 
BRANCH   6   7
HETATM    7  C   UNL     1      40.634 -14.639  -1.753  1.00  0.00     0.004 A 
HETATM    8  C   UNL     1      39.488 -13.871  -1.894  1.00  0.00     0.113 A 
HETATM    9  C   UNL     1      38.510 -14.167  -2.814  1.00  0.00     0.105 A 
HETATM   10  O   UNL     1      39.206 -12.739  -1.186  1.00  0.00    -0.322 OA
HETATM   11  O   UNL     1      37.484 -13.279  -2.786  1.00  0.00    -0.323 OA
HETATM   12  C   UNL     1      38.616 -15.250  -3.656  1.00  0.00     0.040 A 
HETATM   13  C   UNL     1      37.883 -12.421  -1.704  1.00  0.00     0.352 A 
HETATM   14  C   UNL     1      39.754 -16.053  -3.542  1.00  0.00     0.003 A 
HETATM   15  C   UNL     1      40.754 -15.755  -2.597  1.00  0.00     0.012 A 
ENDBRANCH   6   7
ENDBRANCH   3   6
ENDBRANCH   2   3
BRANCH   2  16
HETATM   16  C   UNL     1      41.229 -16.458   1.914  1.00  0.00     0.203 A 
HETATM   17  O   UNL     1      41.428 -16.090   3.210  1.00  0.00    -0.194 OA
HETATM   18  N   UNL     1      42.265 -17.045   3.766  1.00  0.00    -0.106 NA
HETATM   19  C   UNL     1      42.479 -17.920   2.768  1.00  0.00     0.189 A 
HETATM   20  N   UNL     1      41.869 -17.552   1.582  1.00  0.00    -0.202 NA
BRANCH  19  21
HETATM   21  C   UNL     1      43.273 -19.136   2.894  1.00  0.00     0.017 A 
HETATM   22  C   UNL     1      43.249 -20.099   1.876  1.00  0.00     0.057 A 
HETATM   23  C   UNL     1      43.995 -21.266   2.004  1.00  0.00     0.117 A 
HETATM   24  F   UNL     1      43.956 -22.179   1.025  1.00  0.00    -0.206 F 
HETATM   25  C   UNL     1      44.775 -21.501   3.130  1.00  0.00     0.042 A 
HETATM   26  C   UNL     1      44.810 -20.552   4.148  1.00  0.00     0.004 A 
HETATM   27  C   UNL     1      44.061 -19.376   4.032  1.00  0.00     0.016 A 
ENDBRANCH  19  21
ENDBRANCH   2  16
TORSDOF 5
ENDMDL
MODEL 9
REMARK VINA RESULT:      -7.9      1.742      3.853
REMARK  5 active torsions:
REMARK  status: ('A' for Active; 'I' for Inactive)
REMARK    1  A    between atoms: C_2  and  N_3 
REMARK    2  A    between atoms: C_2  and  C_16 
REMARK    3  A    between atoms: N_3  and  C_6 
REMARK    4  A    between atoms: C_6  and  C_7 
REMARK    5  A    between atoms: C_19  and  C_20 
ROOT
HETATM    1  C   UNL     1      44.459 -14.715   6.668  1.00  0.00     0.049 C 
HETATM    2  C   UNL     1      43.321 -15.728   6.575  1.00  0.00     0.260 C 
ENDROOT
BRANCH   2   3
HETATM    3  N   UNL     1      42.029 -14.954   6.522  1.00  0.00    -0.060 N 
HETATM    4  H   UNL     1      41.678 -14.807   7.481  1.00  0.00     0.278 HD
HETATM    5  H   UNL     1      42.189 -14.015   6.132  1.00  0.00     0.278 HD
BRANCH   3   6
HETATM    6  C   UNL     1      40.918 -15.600   5.759  1.00  0.00     0.274 C 
BRANCH   6   7
HETATM    7  C   UNL     1      40.348 -14.668   4.737  1.00  0.00     0.004 A 
HETATM    8  C   UNL     1      40.231 -15.045   3.406  1.00  0.00     0.113 A 
HETATM    9  C   UNL     1      39.726 -14.204   2.443  1.00  0.00     0.105 A 
HETATM   10  O   UNL     1      40.559 -16.271   2.903  1.00  0.00    -0.322 OA
HETATM   11  O   UNL     1      39.694 -14.781   1.215  1.00  0.00    -0.323 OA
HETATM   12  C   UNL     1      39.301 -12.931   2.748  1.00  0.00     0.040 A 
HETATM   13  C   UNL     1      40.294 -16.059   1.488  1.00  0.00     0.352 A 
HETATM   14  C   UNL     1      39.407 -12.511   4.076  1.00  0.00     0.003 A 
HETATM   15  C   UNL     1      39.929 -13.368   5.063  1.00  0.00     0.012 A 
ENDBRANCH   6   7
ENDBRANCH   3   6
ENDBRANCH   2   3
BRANCH   2  16
HETATM   16  C   UNL     1      43.531 -16.656   5.427  1.00  0.00     0.203 A 
HETATM   17  O   UNL     1      43.575 -16.098   4.186  1.00  0.00    -0.194 OA
HETATM   18  N   UNL     1      43.722 -17.145   3.289  1.00  0.00    -0.106 NA
HETATM   19  C   UNL     1      43.781 -18.241   4.065  1.00  0.00     0.189 A 
HETATM   20  N   UNL     1      43.624 -17.963   5.412  1.00  0.00    -0.202 NA
BRANCH  19  21
HETATM   21  C   UNL     1      43.981 -19.596   3.564  1.00  0.00     0.017 A 
HETATM   22  C   UNL     1      44.590 -20.561   4.377  1.00  0.00     0.057 A 
HETATM   23  C   UNL     1      44.795 -21.850   3.893  1.00  0.00     0.117 A 
HETATM   24  F   UNL     1      45.384 -22.758   4.680  1.00  0.00    -0.206 F 
HETATM   25  C   UNL     1      44.402 -22.206   2.609  1.00  0.00     0.042 A 
HETATM   26  C   UNL     1      43.793 -21.258   1.792  1.00  0.00     0.004 A 
HETATM   27  C   UNL     1      43.585 -19.958   2.266  1.00  0.00     0.016 A 
ENDBRANCH  19  21
ENDBRANCH   2  16
TORSDOF 5
ENDMDL
MODEL 10
REMARK VINA RESULT:      -7.9      3.273      5.903
REMARK  5 active torsions:
REMARK  status: ('A' for Active; 'I' for Inactive)
REMARK    1  A    between atoms: C_2  and  N_3 
REMARK    2  A    between atoms: C_2  and  C_16 
REMARK    3  A    between atoms: N_3  and  C_6 
REMARK    4  A    between atoms: C_6  and  C_7 
REMARK    5  A    between atoms: C_19  and  C_20 
ROOT
HETATM    1  C   UNL     1      43.178 -14.007   3.930  1.00  0.00     0.049 C 
HETATM    2  C   UNL     1      42.460 -15.198   3.302  1.00  0.00     0.260 C 
ENDROOT
BRANCH   2   3
HETATM    3  N   UNL     1      42.492 -15.009   1.806  1.00  0.00    -0.060 N 
HETATM    4  H   UNL     1      42.756 -14.036   1.589  1.00  0.00     0.278 HD
HETATM    5  H   UNL     1      43.221 -15.601   1.387  1.00  0.00     0.278 HD
BRANCH   3   6
HETATM    6  C   UNL     1      41.204 -15.268   1.094  1.00  0.00     0.274 C 
BRANCH   6   7
HETATM    7  C   UNL     1      41.311 -14.930  -0.360  1.00  0.00     0.004 A 
HETATM    8  C   UNL     1      41.784 -13.694  -0.777  1.00  0.00     0.113 A 
HETATM    9  C   UNL     1      41.879 -13.350  -2.105  1.00  0.00     0.105 A 
HETATM   10  O   UNL     1      42.236 -12.704   0.047  1.00  0.00    -0.322 OA
HETATM   11  O   UNL     1      42.375 -12.100  -2.283  1.00  0.00    -0.323 OA
HETATM   12  C   UNL     1      41.509 -14.222  -3.103  1.00  0.00     0.040 A 
HETATM   13  C   UNL     1      42.527 -11.660  -0.923  1.00  0.00     0.352 A 
HETATM   14  C   UNL     1      41.021 -15.475  -2.724  1.00  0.00     0.003 A 
HETATM   15  C   UNL     1      40.919 -15.828  -1.365  1.00  0.00     0.012 A 
ENDBRANCH   6   7
ENDBRANCH   3   6
ENDBRANCH   2   3
BRANCH   2  16
HETATM   16  C   UNL     1      43.051 -16.483   3.774  1.00  0.00     0.203 A 
HETATM   17  O   UNL     1      43.622 -16.478   5.010  1.00  0.00    -0.194 OA
HETATM   18  N   UNL     1      44.143 -17.748   5.208  1.00  0.00    -0.106 NA
HETATM   19  C   UNL     1      43.820 -18.417   4.087  1.00  0.00     0.189 A 
HETATM   20  N   UNL     1      43.166 -17.631   3.154  1.00  0.00    -0.202 NA
BRANCH  19  21
HETATM   21  C   UNL     1      44.121 -19.823   3.852  1.00  0.00     0.017 A 
HETATM   22  C   UNL     1      43.914 -20.383   2.584  1.00  0.00     0.057 A 
HETATM   23  C   UNL     1      44.187 -21.729   2.363  1.00  0.00     0.117 A 
HETATM   24  F   UNL     1      43.977 -22.249   1.147  1.00  0.00    -0.206 F 
HETATM   25  C   UNL     1      44.670 -22.541   3.382  1.00  0.00     0.042 A 
HETATM   26  C   UNL     1      44.883 -21.998   4.647  1.00  0.00     0.004 A 
HETATM   27  C   UNL     1      44.609 -20.646   4.881  1.00  0.00     0.016 A 
ENDBRANCH  19  21
ENDBRANCH   2  16
TORSDOF 5
ENDMDL
