MODEL 1
REMARK VINA RESULT:      -9.7      0.000      0.000
REMARK  2 active torsions:
REMARK  status: ('A' for Active; 'I' for Inactive)
REMARK    1  A    between atoms: N_4  and  C_5 
REMARK    2  A    between atoms: C_15  and  C_16 
REMARK       I    between atoms: C_16  and  N_17 
ROOT
HETATM    1  C   UNL     1      42.466 -11.363   0.109  1.00  0.00     0.073 C 
HETATM    2  C   UNL     1      41.589 -12.546  -0.069  1.00  0.00     0.069 C 
HETATM    3  N   UNL     1      40.798 -12.650  -1.148  1.00  0.00    -0.170 NA
HETATM    4  N   UNL     1      40.190 -13.870  -1.029  1.00  0.00    -0.216 N 
HETATM    5  C   UNL     1      40.430 -14.395   0.229  1.00  0.00     0.145 C 
HETATM    6  C   UNL     1      41.405 -13.625   0.816  1.00  0.00     0.087 C 
HETATM    7  N   UNL     1      39.848 -15.442   0.862  1.00  0.00    -0.349 N 
HETATM    8  C   UNL     1      40.247 -15.712   2.160  1.00  0.00     0.111 C 
HETATM    9  C   UNL     1      41.224 -15.051   2.822  1.00  0.00     0.099 C 
HETATM   10  C   UNL     1      41.972 -13.965   2.106  1.00  0.00     0.205 C 
HETATM   11  O   UNL     1      42.972 -13.419   2.556  1.00  0.00    -0.286 OA
HETATM   12  H   UNL     1      39.001 -15.903   0.534  1.00  0.00     0.167 HD
ENDROOT
BRANCH   9  13
HETATM   13  C   UNL     1      41.528 -15.548   4.187  1.00  0.00     0.264 C 
HETATM   14  N   UNL     1      42.268 -16.710   4.338  1.00  0.00    -0.309 N 
HETATM   15  C   UNL     1      42.783 -17.645   3.295  1.00  0.00     0.093 C 
HETATM   16  C   UNL     1      42.748 -17.182   5.589  1.00  0.00     0.044 A 
HETATM   17  C   UNL     1      43.954 -17.040   2.516  1.00  0.00     0.033 C 
HETATM   18  C   UNL     1      43.221 -18.927   4.038  1.00  0.00     0.066 C 
HETATM   19  C   UNL     1      43.347 -18.434   5.441  1.00  0.00    -0.029 A 
HETATM   20  C   UNL     1      43.906 -19.107   6.518  1.00  0.00     0.009 A 
HETATM   21  C   UNL     1      43.879 -18.493   7.769  1.00  0.00     0.001 A 
HETATM   22  C   UNL     1      43.287 -17.232   7.925  1.00  0.00     0.002 A 
HETATM   23  C   UNL     1      42.711 -16.573   6.833  1.00  0.00     0.030 A 
HETATM   24  O   UNL     1      41.158 -14.838   5.127  1.00  0.00    -0.267 OA
ENDBRANCH   9  13
BRANCH   4  25
HETATM   25  C   UNL     1      39.483 -14.429  -2.131  1.00  0.00     0.060 A 
HETATM   26  C   UNL     1      38.152 -14.083  -2.397  1.00  0.00     0.031 A 
HETATM   27  C   UNL     1      37.471 -14.679  -3.463  1.00  0.00     0.002 A 
HETATM   28  C   UNL     1      38.110 -15.624  -4.263  1.00  0.00     0.000 A 
HETATM   29  C   UNL     1      39.428 -15.985  -3.995  1.00  0.00     0.002 A 
HETATM   30  C   UNL     1      40.111 -15.399  -2.928  1.00  0.00     0.031 A 
ENDBRANCH   4  25
TORSDOF 2
ENDMDL
MODEL 2
REMARK VINA RESULT:      -9.6      4.796      8.837
REMARK  2 active torsions:
REMARK  status: ('A' for Active; 'I' for Inactive)
REMARK    1  A    between atoms: N_4  and  C_5 
REMARK    2  A    between atoms: C_15  and  C_16 
REMARK       I    between atoms: C_16  and  N_17 
ROOT
HETATM    1  C   UNL     1      39.828  -9.858   6.087  1.00  0.00     0.073 C 
HETATM    2  C   UNL     1      40.850 -10.485   6.960  1.00  0.00     0.069 C 
HETATM    3  N   UNL     1      41.135  -9.958   8.161  1.00  0.00    -0.170 NA
HETATM    4  N   UNL     1      42.053 -10.807   8.716  1.00  0.00    -0.216 N 
HETATM    5  C   UNL     1      42.495 -11.709   7.764  1.00  0.00     0.145 C 
HETATM    6  C   UNL     1      41.667 -11.595   6.674  1.00  0.00     0.087 C 
HETATM    7  N   UNL     1      43.548 -12.561   7.793  1.00  0.00    -0.349 N 
HETATM    8  C   UNL     1      43.798 -13.316   6.661  1.00  0.00     0.111 C 
HETATM    9  C   UNL     1      43.027 -13.318   5.548  1.00  0.00     0.099 C 
HETATM   10  C   UNL     1      41.786 -12.477   5.529  1.00  0.00     0.205 C 
HETATM   11  O   UNL     1      40.942 -12.530   4.643  1.00  0.00    -0.286 OA
HETATM   12  H   UNL     1      44.283 -12.529   8.498  1.00  0.00     0.167 HD
ENDROOT
BRANCH   9  13
HETATM   13  C   UNL     1      43.450 -14.251   4.474  1.00  0.00     0.264 C 
HETATM   14  N   UNL     1      43.087 -15.586   4.552  1.00  0.00    -0.309 N 
HETATM   15  C   UNL     1      42.358 -16.307   5.637  1.00  0.00     0.093 C 
HETATM   16  C   UNL     1      43.299 -16.523   3.505  1.00  0.00     0.044 A 
HETATM   17  C   UNL     1      40.874 -15.935   5.669  1.00  0.00     0.033 C 
HETATM   18  C   UNL     1      42.542 -17.815   5.358  1.00  0.00     0.066 C 
HETATM   19  C   UNL     1      42.948 -17.808   3.922  1.00  0.00    -0.029 A 
HETATM   20  C   UNL     1      43.054 -18.904   3.078  1.00  0.00     0.009 A 
HETATM   21  C   UNL     1      43.505 -18.695   1.776  1.00  0.00     0.001 A 
HETATM   22  C   UNL     1      43.853 -17.407   1.346  1.00  0.00     0.002 A 
HETATM   23  C   UNL     1      43.758 -16.314   2.215  1.00  0.00     0.030 A 
HETATM   24  O   UNL     1      44.049 -13.753   3.516  1.00  0.00    -0.267 OA
ENDBRANCH   9  13
BRANCH   4  25
HETATM   25  C   UNL     1      42.381 -10.704  10.097  1.00  0.00     0.060 A 
HETATM   26  C   UNL     1      43.662 -10.324  10.518  1.00  0.00     0.031 A 
HETATM   27  C   UNL     1      43.967 -10.272  11.882  1.00  0.00     0.002 A 
HETATM   28  C   UNL     1      43.000 -10.601  12.830  1.00  0.00     0.000 A 
HETATM   29  C   UNL     1      41.729 -10.995  12.419  1.00  0.00     0.002 A 
HETATM   30  C   UNL     1      41.421 -11.057  11.059  1.00  0.00     0.031 A 
ENDBRANCH   4  25
TORSDOF 2
ENDMDL
MODEL 3
REMARK VINA RESULT:      -9.0      1.719      2.355
REMARK  2 active torsions:
REMARK  status: ('A' for Active; 'I' for Inactive)
REMARK    1  A    between atoms: N_4  and  C_5 
REMARK    2  A    between atoms: C_15  and  C_16 
REMARK       I    between atoms: C_16  and  N_17 
ROOT
HETATM    1  C   UNL     1      40.938 -11.247   2.921  1.00  0.00     0.073 C 
HETATM    2  C   UNL     1      40.434 -12.317   2.027  1.00  0.00     0.069 C 
HETATM    3  N   UNL     1      39.624 -12.019   0.999  1.00  0.00    -0.170 NA
HETATM    4  N   UNL     1      39.409 -13.208   0.356  1.00  0.00    -0.216 N 
HETATM    5  C   UNL     1      39.892 -14.252   1.125  1.00  0.00     0.145 C 
HETATM    6  C   UNL     1      40.644 -13.705   2.136  1.00  0.00     0.087 C 
HETATM    7  N   UNL     1      39.695 -15.587   1.004  1.00  0.00    -0.349 N 
HETATM    8  C   UNL     1      40.257 -16.411   1.963  1.00  0.00     0.111 C 
HETATM    9  C   UNL     1      41.049 -15.989   2.977  1.00  0.00     0.099 C 
HETATM   10  C   UNL     1      41.387 -14.531   3.068  1.00  0.00     0.205 C 
HETATM   11  O   UNL     1      42.216 -14.073   3.844  1.00  0.00    -0.286 OA
HETATM   12  H   UNL     1      38.995 -16.004   0.390  1.00  0.00     0.167 HD
ENDROOT
BRANCH   9  13
HETATM   13  C   UNL     1      41.592 -17.055   3.855  1.00  0.00     0.264 C 
HETATM   14  N   UNL     1      42.512 -17.955   3.342  1.00  0.00    -0.309 N 
HETATM   15  C   UNL     1      43.027 -18.090   1.948  1.00  0.00     0.093 C 
HETATM   16  C   UNL     1      43.211 -18.906   4.134  1.00  0.00     0.044 A 
HETATM   17  C   UNL     1      43.986 -16.954   1.583  1.00  0.00     0.033 C 
HETATM   18  C   UNL     1      43.742 -19.457   1.878  1.00  0.00     0.066 C 
HETATM   19  C   UNL     1      43.968 -19.753   3.323  1.00  0.00    -0.029 A 
HETATM   20  C   UNL     1      44.752 -20.766   3.858  1.00  0.00     0.009 A 
HETATM   21  C   UNL     1      44.791 -20.911   5.243  1.00  0.00     0.001 A 
HETATM   22  C   UNL     1      44.040 -20.059   6.065  1.00  0.00     0.002 A 
HETATM   23  C   UNL     1      43.239 -19.054   5.511  1.00  0.00     0.030 A 
HETATM   24  O   UNL     1      41.241 -17.026   5.039  1.00  0.00    -0.267 OA
ENDBRANCH   9  13
BRANCH   4  25
HETATM   25  C   UNL     1      38.811 -13.226  -0.936  1.00  0.00     0.060 A 
HETATM   26  C   UNL     1      39.340 -14.002  -1.975  1.00  0.00     0.031 A 
HETATM   27  C   UNL     1      38.755 -13.968  -3.245  1.00  0.00     0.002 A 
HETATM   28  C   UNL     1      37.646 -13.159  -3.485  1.00  0.00     0.000 A 
HETATM   29  C   UNL     1      37.124 -12.373  -2.461  1.00  0.00     0.002 A 
HETATM   30  C   UNL     1      37.708 -12.397  -1.193  1.00  0.00     0.031 A 
ENDBRANCH   4  25
TORSDOF 2
ENDMDL
MODEL 4
REMARK VINA RESULT:      -9.0      2.045      8.053
REMARK  2 active torsions:
REMARK  status: ('A' for Active; 'I' for Inactive)
REMARK    1  A    between atoms: N_4  and  C_5 
REMARK    2  A    between atoms: C_15  and  C_16 
REMARK       I    between atoms: C_16  and  N_17 
ROOT
HETATM    1  C   UNL     1      42.730 -16.937   7.405  1.00  0.00     0.073 C 
HETATM    2  C   UNL     1      43.115 -17.494   6.086  1.00  0.00     0.069 C 
HETATM    3  N   UNL     1      43.711 -18.693   6.000  1.00  0.00    -0.170 NA
HETATM    4  N   UNL     1      43.861 -18.923   4.659  1.00  0.00    -0.216 N 
HETATM    5  C   UNL     1      43.576 -17.769   3.950  1.00  0.00     0.145 C 
HETATM    6  C   UNL     1      42.995 -16.882   4.823  1.00  0.00     0.087 C 
HETATM    7  N   UNL     1      43.812 -17.465   2.651  1.00  0.00    -0.349 N 
HETATM    8  C   UNL     1      43.473 -16.196   2.214  1.00  0.00     0.111 C 
HETATM    9  C   UNL     1      42.858 -15.257   2.971  1.00  0.00     0.099 C 
HETATM   10  C   UNL     1      42.472 -15.605   4.378  1.00  0.00     0.205 C 
HETATM   11  O   UNL     1      41.776 -14.890   5.089  1.00  0.00    -0.286 OA
HETATM   12  H   UNL     1      44.408 -18.020   2.037  1.00  0.00     0.167 HD
ENDROOT
BRANCH   9  13
HETATM   13  C   UNL     1      42.534 -13.984   2.280  1.00  0.00     0.264 C 
HETATM   14  N   UNL     1      41.490 -13.953   1.369  1.00  0.00    -0.309 N 
HETATM   15  C   UNL     1      40.628 -15.068   0.879  1.00  0.00     0.093 C 
HETATM   16  C   UNL     1      40.996 -12.759   0.778  1.00  0.00     0.044 A 
HETATM   17  C   UNL     1      39.637 -15.533   1.948  1.00  0.00     0.033 C 
HETATM   18  C   UNL     1      39.885 -14.530  -0.364  1.00  0.00     0.066 C 
HETATM   19  C   UNL     1      40.034 -13.056  -0.189  1.00  0.00    -0.029 A 
HETATM   20  C   UNL     1      39.390 -12.059  -0.907  1.00  0.00     0.009 A 
HETATM   21  C   UNL     1      39.708 -10.731  -0.627  1.00  0.00     0.001 A 
HETATM   22  C   UNL     1      40.666 -10.423   0.348  1.00  0.00     0.002 A 
HETATM   23  C   UNL     1      41.322 -11.440   1.051  1.00  0.00     0.030 A 
HETATM   24  O   UNL     1      43.180 -12.990   2.625  1.00  0.00    -0.267 OA
ENDBRANCH   9  13
BRANCH   4  25
HETATM   25  C   UNL     1      44.216 -20.219   4.190  1.00  0.00     0.060 A 
HETATM   26  C   UNL     1      44.124 -20.555   2.833  1.00  0.00     0.031 A 
HETATM   27  C   UNL     1      44.441 -21.850   2.408  1.00  0.00     0.002 A 
HETATM   28  C   UNL     1      44.845 -22.812   3.330  1.00  0.00     0.000 A 
HETATM   29  C   UNL     1      44.924 -22.490   4.683  1.00  0.00     0.002 A 
HETATM   30  C   UNL     1      44.602 -21.202   5.115  1.00  0.00     0.031 A 
ENDBRANCH   4  25
TORSDOF 2
ENDMDL
MODEL 5
REMARK VINA RESULT:      -9.0      2.990      5.390
REMARK  2 active torsions:
REMARK  status: ('A' for Active; 'I' for Inactive)
REMARK    1  A    between atoms: N_4  and  C_5 
REMARK    2  A    between atoms: C_15  and  C_16 
REMARK       I    between atoms: C_16  and  N_17 
ROOT
HETATM    1  C   UNL     1      37.955 -14.307   1.103  1.00  0.00     0.073 C 
HETATM    2  C   UNL     1      39.169 -13.740   1.737  1.00  0.00     0.069 C 
HETATM    3  N   UNL     1      39.271 -12.420   1.952  1.00  0.00    -0.170 NA
HETATM    4  N   UNL     1      40.465 -12.253   2.600  1.00  0.00    -0.216 N 
HETATM    5  C   UNL     1      41.187 -13.434   2.565  1.00  0.00     0.145 C 
HETATM    6  C   UNL     1      40.341 -14.420   2.120  1.00  0.00     0.087 C 
HETATM    7  N   UNL     1      42.488 -13.668   2.863  1.00  0.00    -0.349 N 
HETATM    8  C   UNL     1      42.969 -14.953   2.679  1.00  0.00     0.111 C 
HETATM    9  C   UNL     1      42.221 -16.010   2.287  1.00  0.00     0.099 C 
HETATM   10  C   UNL     1      40.751 -15.810   2.067  1.00  0.00     0.205 C 
HETATM   11  O   UNL     1      39.962 -16.726   1.869  1.00  0.00    -0.286 OA
HETATM   12  H   UNL     1      43.178 -12.933   3.007  1.00  0.00     0.167 HD
ENDROOT
BRANCH   9  13
HETATM   13  C   UNL     1      42.933 -17.310   2.212  1.00  0.00     0.264 C 
HETATM   14  N   UNL     1      43.257 -17.976   3.382  1.00  0.00    -0.309 N 
HETATM   15  C   UNL     1      43.067 -17.547   4.799  1.00  0.00     0.093 C 
HETATM   16  C   UNL     1      43.790 -19.293   3.419  1.00  0.00     0.044 A 
HETATM   17  C   UNL     1      41.594 -17.601   5.216  1.00  0.00     0.033 C 
HETATM   18  C   UNL     1      43.918 -18.503   5.663  1.00  0.00     0.066 C 
HETATM   19  C   UNL     1      44.134 -19.645   4.725  1.00  0.00    -0.029 A 
HETATM   20  C   UNL     1      44.668 -20.888   5.029  1.00  0.00     0.009 A 
HETATM   21  C   UNL     1      44.839 -21.806   3.994  1.00  0.00     0.001 A 
HETATM   22  C   UNL     1      44.489 -21.464   2.681  1.00  0.00     0.002 A 
HETATM   23  C   UNL     1      43.969 -20.200   2.386  1.00  0.00     0.030 A 
HETATM   24  O   UNL     1      43.129 -17.766   1.081  1.00  0.00    -0.267 OA
ENDBRANCH   9  13
BRANCH   4  25
HETATM   25  C   UNL     1      40.777 -11.011   3.220  1.00  0.00     0.060 A 
HETATM   26  C   UNL     1      41.142 -10.940   4.571  1.00  0.00     0.031 A 
HETATM   27  C   UNL     1      41.403  -9.700   5.164  1.00  0.00     0.002 A 
HETATM   28  C   UNL     1      41.296  -8.529   4.416  1.00  0.00     0.000 A 
HETATM   29  C   UNL     1      40.918  -8.590   3.077  1.00  0.00     0.002 A 
HETATM   30  C   UNL     1      40.649  -9.824   2.482  1.00  0.00     0.031 A 
ENDBRANCH   4  25
TORSDOF 2
ENDMDL
MODEL 6
REMARK VINA RESULT:      -8.9      3.575      6.911
REMARK  2 active torsions:
REMARK  status: ('A' for Active; 'I' for Inactive)
REMARK    1  A    between atoms: N_4  and  C_5 
REMARK    2  A    between atoms: C_15  and  C_16 
REMARK       I    between atoms: C_16  and  N_17 
ROOT
HETATM    1  C   UNL     1      42.093 -15.809   0.296  1.00  0.00     0.073 C 
HETATM    2  C   UNL     1      42.553 -16.574   1.480  1.00  0.00     0.069 C 
HETATM    3  N   UNL     1      42.647 -17.912   1.431  1.00  0.00    -0.170 NA
HETATM    4  N   UNL     1      43.157 -18.279   2.646  1.00  0.00    -0.216 N 
HETATM    5  C   UNL     1      43.147 -17.196   3.507  1.00  0.00     0.145 C 
HETATM    6  C   UNL     1      42.872 -16.078   2.758  1.00  0.00     0.087 C 
HETATM    7  N   UNL     1      43.332 -17.147   4.848  1.00  0.00    -0.349 N 
HETATM    8  C   UNL     1      43.207 -15.918   5.472  1.00  0.00     0.111 C 
HETATM    9  C   UNL     1      42.981 -14.746   4.833  1.00  0.00     0.099 C 
HETATM   10  C   UNL     1      42.893 -14.748   3.335  1.00  0.00     0.205 C 
HETATM   11  O   UNL     1      42.851 -13.730   2.656  1.00  0.00    -0.286 OA
HETATM   12  H   UNL     1      43.345 -17.970   5.450  1.00  0.00     0.167 HD
ENDROOT
BRANCH   9  13
HETATM   13  C   UNL     1      42.941 -13.539   5.695  1.00  0.00     0.264 C 
HETATM   14  N   UNL     1      41.784 -12.780   5.749  1.00  0.00    -0.309 N 
HETATM   15  C   UNL     1      40.513 -12.937   4.983  1.00  0.00     0.093 C 
HETATM   16  C   UNL     1      41.587 -11.706   6.659  1.00  0.00     0.044 A 
HETATM   17  C   UNL     1      39.704 -14.144   5.465  1.00  0.00     0.033 C 
HETATM   18  C   UNL     1      39.718 -11.627   5.183  1.00  0.00     0.066 C 
HETATM   19  C   UNL     1      40.382 -11.054   6.391  1.00  0.00    -0.029 A 
HETATM   20  C   UNL     1      39.954  -9.973   7.147  1.00  0.00     0.009 A 
HETATM   21  C   UNL     1      40.748  -9.555   8.213  1.00  0.00     0.001 A 
HETATM   22  C   UNL     1      41.955 -10.208   8.495  1.00  0.00     0.002 A 
HETATM   23  C   UNL     1      42.384 -11.286   7.711  1.00  0.00     0.030 A 
HETATM   24  O   UNL     1      43.942 -13.324   6.386  1.00  0.00    -0.267 OA
ENDBRANCH   9  13
BRANCH   4  25
HETATM   25  C   UNL     1      43.638 -19.603   2.851  1.00  0.00     0.060 A 
HETATM   26  C   UNL     1      44.361 -19.948   4.000  1.00  0.00     0.031 A 
HETATM   27  C   UNL     1      44.857 -21.247   4.154  1.00  0.00     0.002 A 
HETATM   28  C   UNL     1      44.640 -22.203   3.164  1.00  0.00     0.000 A 
HETATM   29  C   UNL     1      43.935 -21.863   2.012  1.00  0.00     0.002 A 
HETATM   30  C   UNL     1      43.444 -20.566   1.848  1.00  0.00     0.031 A 
ENDBRANCH   4  25
TORSDOF 2
ENDMDL
MODEL 7
REMARK VINA RESULT:      -8.9      2.815      7.810
REMARK  2 active torsions:
REMARK  status: ('A' for Active; 'I' for Inactive)
REMARK    1  A    between atoms: N_4  and  C_5 
REMARK    2  A    between atoms: C_15  and  C_16 
REMARK       I    between atoms: C_16  and  N_17 
ROOT
HETATM    1  C   UNL     1      43.393 -15.870   6.277  1.00  0.00     0.073 C 
HETATM    2  C   UNL     1      43.116 -16.725   5.097  1.00  0.00     0.069 C 
HETATM    3  N   UNL     1      43.913 -17.766   4.810  1.00  0.00    -0.170 NA
HETATM    4  N   UNL     1      43.340 -18.365   3.720  1.00  0.00    -0.216 N 
HETATM    5  C   UNL     1      42.341 -17.555   3.210  1.00  0.00     0.145 C 
HETATM    6  C   UNL     1      42.106 -16.562   4.130  1.00  0.00     0.087 C 
HETATM    7  N   UNL     1      41.680 -17.625   2.029  1.00  0.00    -0.349 N 
HETATM    8  C   UNL     1      40.757 -16.634   1.748  1.00  0.00     0.111 C 
HETATM    9  C   UNL     1      40.414 -15.634   2.593  1.00  0.00     0.099 C 
HETATM   10  C   UNL     1      41.038 -15.598   3.956  1.00  0.00     0.205 C 
HETATM   11  O   UNL     1      40.681 -14.836   4.847  1.00  0.00    -0.286 OA
HETATM   12  H   UNL     1      41.963 -18.226   1.256  1.00  0.00     0.167 HD
ENDROOT
BRANCH   9  13
HETATM   13  C   UNL     1      39.356 -14.714   2.107  1.00  0.00     0.264 C 
HETATM   14  N   UNL     1      39.652 -13.372   1.928  1.00  0.00    -0.309 N 
HETATM   15  C   UNL     1      40.913 -12.633   2.229  1.00  0.00     0.093 C 
HETATM   16  C   UNL     1      38.766 -12.444   1.317  1.00  0.00     0.044 A 
HETATM   17  C   UNL     1      42.025 -12.977   1.235  1.00  0.00     0.033 C 
HETATM   18  C   UNL     1      40.564 -11.130   2.164  1.00  0.00     0.066 C 
HETATM   19  C   UNL     1      39.286 -11.151   1.393  1.00  0.00    -0.029 A 
HETATM   20  C   UNL     1      38.613 -10.061   0.860  1.00  0.00     0.009 A 
HETATM   21  C   UNL     1      37.398 -10.285   0.215  1.00  0.00     0.001 A 
HETATM   22  C   UNL     1      36.872 -11.581   0.127  1.00  0.00     0.002 A 
HETATM   23  C   UNL     1      37.553 -12.668   0.686  1.00  0.00     0.030 A 
HETATM   24  O   UNL     1      38.272 -15.227   1.812  1.00  0.00    -0.267 OA
ENDBRANCH   9  13
BRANCH   4  25
HETATM   25  C   UNL     1      43.769 -19.657   3.305  1.00  0.00     0.060 A 
HETATM   26  C   UNL     1      43.456 -20.157   2.034  1.00  0.00     0.031 A 
HETATM   27  C   UNL     1      43.856 -21.447   1.669  1.00  0.00     0.002 A 
HETATM   28  C   UNL     1      44.565 -22.242   2.567  1.00  0.00     0.000 A 
HETATM   29  C   UNL     1      44.866 -21.757   3.837  1.00  0.00     0.002 A 
HETATM   30  C   UNL     1      44.463 -20.474   4.211  1.00  0.00     0.031 A 
ENDBRANCH   4  25
TORSDOF 2
ENDMDL
MODEL 8
REMARK VINA RESULT:      -8.6      1.210      2.178
REMARK  2 active torsions:
REMARK  status: ('A' for Active; 'I' for Inactive)
REMARK    1  A    between atoms: N_4  and  C_5 
REMARK    2  A    between atoms: C_15  and  C_16 
REMARK       I    between atoms: C_16  and  N_17 
ROOT
HETATM    1  C   UNL     1      42.095 -11.815   0.842  1.00  0.00     0.073 C 
HETATM    2  C   UNL     1      41.489 -13.077   0.354  1.00  0.00     0.069 C 
HETATM    3  N   UNL     1      40.557 -13.057  -0.611  1.00  0.00    -0.170 NA
HETATM    4  N   UNL     1      40.270 -14.371  -0.860  1.00  0.00    -0.216 N 
HETATM    5  C   UNL     1      40.849 -15.171   0.110  1.00  0.00     0.145 C 
HETATM    6  C   UNL     1      41.717 -14.384   0.827  1.00  0.00     0.087 C 
HETATM    7  N   UNL     1      40.643 -16.479   0.398  1.00  0.00    -0.349 N 
HETATM    8  C   UNL     1      41.323 -17.016   1.477  1.00  0.00     0.111 C 
HETATM    9  C   UNL     1      42.232 -16.350   2.227  1.00  0.00     0.099 C 
HETATM   10  C   UNL     1      42.573 -14.936   1.859  1.00  0.00     0.205 C 
HETATM   11  O   UNL     1      43.490 -14.303   2.368  1.00  0.00    -0.286 OA
HETATM   12  H   UNL     1      39.875 -17.030   0.016  1.00  0.00     0.167 HD
ENDROOT
BRANCH   9  13
HETATM   13  C   UNL     1      42.885 -17.140   3.300  1.00  0.00     0.264 C 
HETATM   14  N   UNL     1      42.775 -16.720   4.616  1.00  0.00    -0.309 N 
HETATM   15  C   UNL     1      42.134 -15.490   5.166  1.00  0.00     0.093 C 
HETATM   16  C   UNL     1      43.221 -17.485   5.727  1.00  0.00     0.044 A 
HETATM   17  C   UNL     1      40.606 -15.567   5.098  1.00  0.00     0.033 C 
HETATM   18  C   UNL     1      42.614 -15.365   6.629  1.00  0.00     0.066 C 
HETATM   19  C   UNL     1      43.094 -16.751   6.908  1.00  0.00    -0.029 A 
HETATM   20  C   UNL     1      43.454 -17.280   8.139  1.00  0.00     0.009 A 
HETATM   21  C   UNL     1      43.932 -18.588   8.182  1.00  0.00     0.001 A 
HETATM   22  C   UNL     1      44.056 -19.336   7.003  1.00  0.00     0.002 A 
HETATM   23  C   UNL     1      43.707 -18.782   5.766  1.00  0.00     0.030 A 
HETATM   24  O   UNL     1      43.435 -18.190   2.954  1.00  0.00    -0.267 OA
ENDBRANCH   9  13
BRANCH   4  25
HETATM   25  C   UNL     1      39.517 -14.734  -2.012  1.00  0.00     0.060 A 
HETATM   26  C   UNL     1      40.037 -15.603  -2.981  1.00  0.00     0.031 A 
HETATM   27  C   UNL     1      39.290 -15.909  -4.123  1.00  0.00     0.002 A 
HETATM   28  C   UNL     1      38.027 -15.349  -4.306  1.00  0.00     0.000 A 
HETATM   29  C   UNL     1      37.510 -14.473  -3.355  1.00  0.00     0.002 A 
HETATM   30  C   UNL     1      38.254 -14.157  -2.216  1.00  0.00     0.031 A 
ENDBRANCH   4  25
TORSDOF 2
ENDMDL
MODEL 9
REMARK VINA RESULT:      -8.6      1.976      3.022
REMARK  2 active torsions:
REMARK  status: ('A' for Active; 'I' for Inactive)
REMARK    1  A    between atoms: N_4  and  C_5 
REMARK    2  A    between atoms: C_15  and  C_16 
REMARK       I    between atoms: C_16  and  N_17 
ROOT
HETATM    1  C   UNL     1      41.708 -12.135   3.081  1.00  0.00     0.073 C 
HETATM    2  C   UNL     1      41.294 -12.930   1.900  1.00  0.00     0.069 C 
HETATM    3  N   UNL     1      40.357 -12.463   1.059  1.00  0.00    -0.170 NA
HETATM    4  N   UNL     1      40.270 -13.400   0.065  1.00  0.00    -0.216 N 
HETATM    5  C   UNL     1      40.975 -14.535   0.425  1.00  0.00     0.145 C 
HETATM    6  C   UNL     1      41.723 -14.220   1.534  1.00  0.00     0.087 C 
HETATM    7  N   UNL     1      40.974 -15.772  -0.126  1.00  0.00    -0.349 N 
HETATM    8  C   UNL     1      41.741 -16.750   0.484  1.00  0.00     0.111 C 
HETATM    9  C   UNL     1      42.548 -16.545   1.551  1.00  0.00     0.099 C 
HETATM   10  C   UNL     1      42.666 -15.159   2.110  1.00  0.00     0.205 C 
HETATM   11  O   UNL     1      43.483 -14.837   2.965  1.00  0.00    -0.286 OA
HETATM   12  H   UNL     1      40.294 -16.085  -0.818  1.00  0.00     0.167 HD
ENDROOT
BRANCH   9  13
HETATM   13  C   UNL     1      43.326 -17.725   2.005  1.00  0.00     0.264 C 
HETATM   14  N   UNL     1      43.268 -18.106   3.336  1.00  0.00    -0.309 N 
HETATM   15  C   UNL     1      42.570 -17.448   4.479  1.00  0.00     0.093 C 
HETATM   16  C   UNL     1      43.841 -19.305   3.838  1.00  0.00     0.044 A 
HETATM   17  C   UNL     1      41.051 -17.626   4.396  1.00  0.00     0.033 C 
HETATM   18  C   UNL     1      43.130 -18.097   5.764  1.00  0.00     0.066 C 
HETATM   19  C   UNL     1      43.733 -19.353   5.229  1.00  0.00    -0.029 A 
HETATM   20  C   UNL     1      44.210 -20.430   5.962  1.00  0.00     0.009 A 
HETATM   21  C   UNL     1      44.790 -21.494   5.273  1.00  0.00     0.001 A 
HETATM   22  C   UNL     1      44.896 -21.458   3.876  1.00  0.00     0.002 A 
HETATM   23  C   UNL     1      44.427 -20.357   3.151  1.00  0.00     0.030 A 
HETATM   24  O   UNL     1      43.932 -18.353   1.133  1.00  0.00    -0.267 OA
ENDBRANCH   9  13
BRANCH   4  25
HETATM   25  C   UNL     1      39.566 -13.105  -1.136  1.00  0.00     0.060 A 
HETATM   26  C   UNL     1      40.244 -12.787  -2.321  1.00  0.00     0.031 A 
HETATM   27  C   UNL     1      39.525 -12.462  -3.476  1.00  0.00     0.002 A 
HETATM   28  C   UNL     1      38.132 -12.448  -3.454  1.00  0.00     0.000 A 
HETATM   29  C   UNL     1      37.451 -12.747  -2.276  1.00  0.00     0.002 A 
HETATM   30  C   UNL     1      38.163 -13.066  -1.118  1.00  0.00     0.031 A 
ENDBRANCH   4  25
TORSDOF 2
ENDMDL
MODEL 10
REMARK VINA RESULT:      -8.5      2.917      4.241
REMARK  2 active torsions:
REMARK  status: ('A' for Active; 'I' for Inactive)
REMARK    1  A    between atoms: N_4  and  C_5 
REMARK    2  A    between atoms: C_15  and  C_16 
REMARK       I    between atoms: C_16  and  N_17 
ROOT
HETATM    1  C   UNL     1      42.093 -12.047   4.799  1.00  0.00     0.073 C 
HETATM    2  C   UNL     1      41.111 -12.546   3.807  1.00  0.00     0.069 C 
HETATM    3  N   UNL     1      39.952 -11.898   3.611  1.00  0.00    -0.170 NA
HETATM    4  N   UNL     1      39.328 -12.577   2.600  1.00  0.00    -0.216 N 
HETATM    5  C   UNL     1      39.994 -13.764   2.351  1.00  0.00     0.145 C 
HETATM    6  C   UNL     1      41.189 -13.715   3.027  1.00  0.00     0.087 C 
HETATM    7  N   UNL     1      39.614 -14.840   1.621  1.00  0.00    -0.349 N 
HETATM    8  C   UNL     1      40.464 -15.932   1.590  1.00  0.00     0.111 C 
HETATM    9  C   UNL     1      41.681 -15.980   2.181  1.00  0.00     0.099 C 
HETATM   10  C   UNL     1      42.184 -14.761   2.894  1.00  0.00     0.205 C 
HETATM   11  O   UNL     1      43.327 -14.647   3.321  1.00  0.00    -0.286 OA
HETATM   12  H   UNL     1      38.666 -14.983   1.273  1.00  0.00     0.167 HD
ENDROOT
BRANCH   9  13
HETATM   13  C   UNL     1      42.449 -17.232   1.969  1.00  0.00     0.264 C 
HETATM   14  N   UNL     1      42.887 -17.955   3.067  1.00  0.00    -0.309 N 
HETATM   15  C   UNL     1      42.773 -17.631   4.520  1.00  0.00     0.093 C 
HETATM   16  C   UNL     1      43.485 -19.240   2.978  1.00  0.00     0.044 A 
HETATM   17  C   UNL     1      41.337 -17.791   5.027  1.00  0.00     0.033 C 
HETATM   18  C   UNL     1      43.728 -18.594   5.258  1.00  0.00     0.066 C 
HETATM   19  C   UNL     1      43.935 -19.658   4.232  1.00  0.00    -0.029 A 
HETATM   20  C   UNL     1      44.550 -20.888   4.414  1.00  0.00     0.009 A 
HETATM   21  C   UNL     1      44.695 -21.725   3.309  1.00  0.00     0.001 A 
HETATM   22  C   UNL     1      44.239 -21.318   2.048  1.00  0.00     0.002 A 
HETATM   23  C   UNL     1      43.637 -20.066   1.876  1.00  0.00     0.030 A 
HETATM   24  O   UNL     1      42.590 -17.601   0.799  1.00  0.00    -0.267 OA
ENDBRANCH   9  13
BRANCH   4  25
HETATM   25  C   UNL     1      38.195 -12.012   1.950  1.00  0.00     0.060 A 
HETATM   26  C   UNL     1      37.686 -10.762   2.324  1.00  0.00     0.031 A 
HETATM   27  C   UNL     1      36.547 -10.250   1.694  1.00  0.00     0.002 A 
HETATM   28  C   UNL     1      35.909 -10.982   0.695  1.00  0.00     0.000 A 
HETATM   29  C   UNL     1      36.400 -12.233   0.328  1.00  0.00     0.002 A 
HETATM   30  C   UNL     1      37.533 -12.753   0.958  1.00  0.00     0.031 A 
ENDBRANCH   4  25
TORSDOF 2
ENDMDL
