MODEL 1
REMARK VINA RESULT:      -9.0      0.000      0.000
REMARK  7 active torsions:
REMARK  status: ('A' for Active; 'I' for Inactive)
REMARK    1  A    between atoms: C_2  and  C_3 
REMARK    2  A    between atoms: N_21  and  N_23 
REMARK       I    between atoms: N_23  and  C_24 
REMARK    3  A    between atoms: C_24  and  C_25 
REMARK    4  A    between atoms: C_25  and  N_26 
REMARK    5  A    between atoms: C_25  and  C_34 
REMARK       I    between atoms: N_26  and  C_27 
REMARK    6  A    between atoms: C_27  and  O_28 
REMARK    7  A    between atoms: O_28  and  C_29 
ROOT
HETATM    1  C   UNL     1      43.506 -15.885   6.098  1.00  0.00    -0.041 C 
HETATM    2  C   UNL     1      42.485 -15.001   5.511  1.00  0.00     0.005 C 
HETATM    3  C   UNL     1      42.751 -13.630   5.466  1.00  0.00     0.091 C 
HETATM    4  C   UNL     1      42.129 -12.812   4.528  1.00  0.00     0.075 C 
HETATM    5  C   UNL     1      41.174 -13.378   3.685  1.00  0.00     0.079 C 
HETATM    6  C   UNL     1      40.666 -14.654   3.944  1.00  0.00    -0.024 C 
HETATM    7  C   UNL     1      39.488 -15.188   3.172  1.00  0.00     0.044 C 
HETATM    8  C   UNL     1      39.065 -14.232   2.058  1.00  0.00     0.043 C 
HETATM    9  C   UNL     1      40.293 -13.502   1.487  1.00  0.00     0.068 C 
HETATM   10  C   UNL     1      41.335 -14.498   0.898  1.00  0.00     0.038 C 
HETATM   11  C   UNL     1      42.522 -13.797   0.246  1.00  0.00     0.003 C 
HETATM   12  C   UNL     1      42.055 -12.865  -0.860  1.00  0.00     0.000 C 
HETATM   13  C   UNL     1      41.033 -11.860  -0.339  1.00  0.00     0.003 C 
HETATM   14  C   UNL     1      39.851 -12.543   0.358  1.00  0.00     0.038 C 
HETATM   15  O   UNL     1      40.845 -12.679   2.551  1.00  0.00    -0.340 OA
HETATM   16  C   UNL     1      41.353 -15.478   4.842  1.00  0.00     0.024 C 
HETATM   17  O   UNL     1      43.686 -13.043   6.345  1.00  0.00    -0.292 OA
HETATM   18  C   UNL     1      44.519 -13.887   7.037  1.00  0.00     0.163 C 
HETATM   19  N   UNL     1      45.299 -13.327   7.885  1.00  0.00    -0.277 N 
HETATM   20  H   UNL     1      46.057 -13.895   8.299  1.00  0.00     0.189 HD
HETATM   21  C   UNL     1      44.516 -15.323   6.778  1.00  0.00     0.065 C 
ENDROOT
BRANCH  19  22
HETATM   22  N   UNL     1      45.105 -12.053   8.452  1.00  0.00    -0.266 N 
HETATM   23  C   UNL     1      44.396 -12.086   9.644  1.00  0.00     0.263 C 
HETATM   24  O   UNL     1      44.442 -13.103  10.346  1.00  0.00    -0.269 OA
HETATM   25  H   UNL     1      45.102 -11.261   7.814  1.00  0.00     0.190 HD
BRANCH  23  26
HETATM   26  C   UNL     1      43.389 -10.929   9.858  1.00  0.00     0.214 C 
BRANCH  26  27
HETATM   27  N   UNL     1      42.235 -11.215   9.023  1.00  0.00    -0.319 N 
HETATM   28  C   UNL     1      41.709 -10.292   8.175  1.00  0.00     0.362 C 
HETATM   29  O   UNL     1      42.165  -9.163   8.051  1.00  0.00    -0.238 OA
HETATM   30  H   UNL     1      41.821 -12.140   9.010  1.00  0.00     0.166 HD
BRANCH  28  31
HETATM   31  O   UNL     1      40.710 -10.856   7.471  1.00  0.00    -0.294 OA
BRANCH  31  32
HETATM   32  C   UNL     1      40.003 -10.132   6.431  1.00  0.00     0.061 C 
HETATM   33  C   UNL     1      40.974  -9.514   5.416  1.00  0.00     0.046 C 
HETATM   34  C   UNL     1      39.159 -11.196   5.711  1.00  0.00     0.046 C 
HETATM   35  C   UNL     1      39.071  -9.083   7.041  1.00  0.00     0.046 C 
ENDBRANCH  31  32
ENDBRANCH  28  31
ENDBRANCH  26  27
BRANCH  26  36
HETATM   36  C   UNL     1      42.957 -10.759  11.297  1.00  0.00    -0.026 A 
HETATM   37  C   UNL     1      43.732  -9.978  12.169  1.00  0.00     0.010 A 
HETATM   38  C   UNL     1      43.316  -9.750  13.482  1.00  0.00     0.001 A 
HETATM   39  C   UNL     1      42.118 -10.293  13.940  1.00  0.00     0.000 A 
HETATM   40  C   UNL     1      41.331 -11.058  13.084  1.00  0.00     0.001 A 
HETATM   41  C   UNL     1      41.742 -11.285  11.770  1.00  0.00     0.010 A 
ENDBRANCH  26  36
ENDBRANCH  23  26
ENDBRANCH  19  22
BRANCH   1  42
HETATM   42  C   UNL     1      43.533 -17.356   5.746  1.00  0.00     0.035 C 
HETATM   43  C   UNL     1      44.808 -18.047   6.196  1.00  0.00     0.010 C 
ENDBRANCH   1  42
TORSDOF 7
ENDMDL
MODEL 2
REMARK VINA RESULT:      -9.0      4.260      8.543
REMARK  7 active torsions:
REMARK  status: ('A' for Active; 'I' for Inactive)
REMARK    1  A    between atoms: C_2  and  C_3 
REMARK    2  A    between atoms: N_21  and  N_23 
REMARK       I    between atoms: N_23  and  C_24 
REMARK    3  A    between atoms: C_24  and  C_25 
REMARK    4  A    between atoms: C_25  and  N_26 
REMARK    5  A    between atoms: C_25  and  C_34 
REMARK       I    between atoms: N_26  and  C_27 
REMARK    6  A    between atoms: C_27  and  O_28 
REMARK    7  A    between atoms: O_28  and  C_29 
ROOT
HETATM    1  C   UNL     1      39.239 -12.802   1.714  1.00  0.00    -0.041 C 
HETATM    2  C   UNL     1      40.403 -12.403   0.906  1.00  0.00     0.005 C 
HETATM    3  C   UNL     1      41.023 -13.379   0.120  1.00  0.00     0.091 C 
HETATM    4  C   UNL     1      41.760 -13.027  -1.007  1.00  0.00     0.075 C 
HETATM    5  C   UNL     1      41.933 -11.674  -1.288  1.00  0.00     0.079 C 
HETATM    6  C   UNL     1      41.608 -10.703  -0.337  1.00  0.00    -0.024 C 
HETATM    7  C   UNL     1      41.987  -9.261  -0.544  1.00  0.00     0.044 C 
HETATM    8  C   UNL     1      42.614  -9.035  -1.918  1.00  0.00     0.043 C 
HETATM    9  C   UNL     1      41.988  -9.985  -2.953  1.00  0.00     0.068 C 
HETATM   10  C   UNL     1      40.451  -9.767  -3.082  1.00  0.00     0.038 C 
HETATM   11  C   UNL     1      39.818 -10.635  -4.164  1.00  0.00     0.003 C 
HETATM   12  C   UNL     1      40.467 -10.371  -5.513  1.00  0.00     0.000 C 
HETATM   13  C   UNL     1      41.977 -10.575  -5.449  1.00  0.00     0.003 C 
HETATM   14  C   UNL     1      42.628  -9.742  -4.338  1.00  0.00     0.038 C 
HETATM   15  O   UNL     1      42.329 -11.343  -2.560  1.00  0.00    -0.340 OA
HETATM   16  C   UNL     1      40.808 -11.073   0.750  1.00  0.00     0.024 C 
HETATM   17  O   UNL     1      40.885 -14.751   0.424  1.00  0.00    -0.292 OA
HETATM   18  C   UNL     1      39.913 -15.103   1.326  1.00  0.00     0.163 C 
HETATM   19  N   UNL     1      39.869 -16.344   1.641  1.00  0.00    -0.277 N 
HETATM   20  H   UNL     1      39.052 -16.684   2.176  1.00  0.00     0.189 HD
HETATM   21  C   UNL     1      38.981 -14.111   1.852  1.00  0.00     0.065 C 
ENDROOT
BRANCH  19  22
HETATM   22  N   UNL     1      40.927 -17.261   1.486  1.00  0.00    -0.266 N 
HETATM   23  C   UNL     1      41.542 -17.593   2.685  1.00  0.00     0.263 C 
HETATM   24  O   UNL     1      40.892 -17.531   3.735  1.00  0.00    -0.269 OA
HETATM   25  H   UNL     1      41.400 -17.271   0.587  1.00  0.00     0.190 HD
BRANCH  23  26
HETATM   26  C   UNL     1      43.080 -17.763   2.625  1.00  0.00     0.214 C 
BRANCH  26  27
HETATM   27  N   UNL     1      43.635 -16.943   3.689  1.00  0.00    -0.319 N 
HETATM   28  C   UNL     1      43.574 -15.586   3.662  1.00  0.00     0.362 C 
HETATM   29  O   UNL     1      43.052 -14.958   2.750  1.00  0.00    -0.238 OA
HETATM   30  H   UNL     1      44.036 -17.370   4.516  1.00  0.00     0.166 HD
BRANCH  28  31
HETATM   31  O   UNL     1      44.084 -15.097   4.809  1.00  0.00    -0.294 OA
BRANCH  31  32
HETATM   32  C   UNL     1      43.235 -14.711   5.921  1.00  0.00     0.061 C 
HETATM   33  C   UNL     1      42.327 -15.865   6.363  1.00  0.00     0.046 C 
HETATM   34  C   UNL     1      44.206 -14.388   7.067  1.00  0.00     0.046 C 
HETATM   35  C   UNL     1      42.433 -13.454   5.576  1.00  0.00     0.046 C 
ENDBRANCH  31  32
ENDBRANCH  28  31
ENDBRANCH  26  27
BRANCH  26  36
HETATM   36  C   UNL     1      43.540 -19.194   2.782  1.00  0.00    -0.026 A 
HETATM   37  C   UNL     1      43.277 -20.126   1.764  1.00  0.00     0.010 A 
HETATM   38  C   UNL     1      43.753 -21.435   1.857  1.00  0.00     0.001 A 
HETATM   39  C   UNL     1      44.502 -21.831   2.962  1.00  0.00     0.000 A 
HETATM   40  C   UNL     1      44.783 -20.916   3.973  1.00  0.00     0.001 A 
HETATM   41  C   UNL     1      44.312 -19.605   3.883  1.00  0.00     0.010 A 
ENDBRANCH  26  36
ENDBRANCH  23  26
ENDBRANCH  19  22
BRANCH   1  42
HETATM   42  C   UNL     1      38.241 -11.763   2.175  1.00  0.00     0.035 C 
HETATM   43  C   UNL     1      38.501 -11.282   3.592  1.00  0.00     0.010 C 
ENDBRANCH   1  42
TORSDOF 7
ENDMDL
MODEL 3
REMARK VINA RESULT:      -8.8      3.123      9.096
REMARK  7 active torsions:
REMARK  status: ('A' for Active; 'I' for Inactive)
REMARK    1  A    between atoms: C_2  and  C_3 
REMARK    2  A    between atoms: N_21  and  N_23 
REMARK       I    between atoms: N_23  and  C_24 
REMARK    3  A    between atoms: C_24  and  C_25 
REMARK    4  A    between atoms: C_25  and  N_26 
REMARK    5  A    between atoms: C_25  and  C_34 
REMARK       I    between atoms: N_26  and  C_27 
REMARK    6  A    between atoms: C_27  and  O_28 
REMARK    7  A    between atoms: O_28  and  C_29 
ROOT
HETATM    1  C   UNL     1      43.589 -16.170   6.389  1.00  0.00    -0.041 C 
HETATM    2  C   UNL     1      43.883 -14.742   6.591  1.00  0.00     0.005 C 
HETATM    3  C   UNL     1      42.831 -13.830   6.466  1.00  0.00     0.091 C 
HETATM    4  C   UNL     1      42.878 -12.593   7.102  1.00  0.00     0.075 C 
HETATM    5  C   UNL     1      44.034 -12.252   7.801  1.00  0.00     0.079 C 
HETATM    6  C   UNL     1      45.202 -13.004   7.651  1.00  0.00    -0.024 C 
HETATM    7  C   UNL     1      46.509 -12.526   8.228  1.00  0.00     0.044 C 
HETATM    8  C   UNL     1      46.328 -11.253   9.053  1.00  0.00     0.043 C 
HETATM    9  C   UNL     1      44.955 -11.259   9.748  1.00  0.00     0.068 C 
HETATM   10  C   UNL     1      44.796 -12.479  10.702  1.00  0.00     0.038 C 
HETATM   11  C   UNL     1      43.479 -12.463  11.471  1.00  0.00     0.003 C 
HETATM   12  C   UNL     1      43.346 -11.184  12.282  1.00  0.00     0.000 C 
HETATM   13  C   UNL     1      43.489  -9.951  11.396  1.00  0.00     0.003 C 
HETATM   14  C   UNL     1      44.787  -9.969  10.582  1.00  0.00     0.038 C 
HETATM   15  O   UNL     1      43.940 -11.226   8.707  1.00  0.00    -0.340 OA
HETATM   16  C   UNL     1      45.111 -14.273   7.069  1.00  0.00     0.024 C 
HETATM   17  O   UNL     1      41.674 -14.155   5.726  1.00  0.00    -0.292 OA
HETATM   18  C   UNL     1      41.495 -15.470   5.377  1.00  0.00     0.163 C 
HETATM   19  N   UNL     1      40.479 -15.715   4.636  1.00  0.00    -0.277 N 
HETATM   20  H   UNL     1      40.207 -16.703   4.493  1.00  0.00     0.189 HD
HETATM   21  C   UNL     1      42.403 -16.505   5.860  1.00  0.00     0.065 C 
ENDROOT
BRANCH  19  22
HETATM   22  N   UNL     1      39.804 -14.771   3.841  1.00  0.00    -0.266 N 
HETATM   23  C   UNL     1      39.655 -15.173   2.521  1.00  0.00     0.263 C 
HETATM   24  O   UNL     1      39.617 -16.380   2.259  1.00  0.00    -0.269 OA
HETATM   25  H   UNL     1      39.861 -13.799   4.132  1.00  0.00     0.190 HD
BRANCH  23  26
HETATM   26  C   UNL     1      39.815 -14.058   1.458  1.00  0.00     0.214 C 
BRANCH  26  27
HETATM   27  N   UNL     1      39.857 -14.715   0.163  1.00  0.00    -0.319 N 
HETATM   28  C   UNL     1      40.817 -14.438  -0.758  1.00  0.00     0.362 C 
HETATM   29  O   UNL     1      41.712 -13.623  -0.567  1.00  0.00    -0.238 OA
HETATM   30  H   UNL     1      39.196 -15.447  -0.069  1.00  0.00     0.166 HD
BRANCH  28  31
HETATM   31  O   UNL     1      40.662 -15.252  -1.819  1.00  0.00    -0.294 OA
BRANCH  31  32
HETATM   32  C   UNL     1      39.962 -14.823  -3.017  1.00  0.00     0.061 C 
HETATM   33  C   UNL     1      38.771 -13.918  -2.679  1.00  0.00     0.046 C 
HETATM   34  C   UNL     1      40.993 -13.997  -3.803  1.00  0.00     0.046 C 
HETATM   35  C   UNL     1      39.542 -16.030  -3.859  1.00  0.00     0.046 C 
ENDBRANCH  31  32
ENDBRANCH  28  31
ENDBRANCH  26  27
BRANCH  26  36
HETATM   36  C   UNL     1      38.705 -13.033   1.481  1.00  0.00    -0.026 A 
HETATM   37  C   UNL     1      38.850 -11.868   2.253  1.00  0.00     0.010 A 
HETATM   38  C   UNL     1      37.868 -10.875   2.235  1.00  0.00     0.001 A 
HETATM   39  C   UNL     1      36.733 -11.028   1.442  1.00  0.00     0.000 A 
HETATM   40  C   UNL     1      36.582 -12.170   0.661  1.00  0.00     0.001 A 
HETATM   41  C   UNL     1      37.562 -13.163   0.674  1.00  0.00     0.010 A 
ENDBRANCH  26  36
ENDBRANCH  23  26
ENDBRANCH  19  22
BRANCH   1  42
HETATM   42  C   UNL     1      44.501 -17.225   6.974  1.00  0.00     0.035 C 
HETATM   43  C   UNL     1      44.986 -18.226   5.940  1.00  0.00     0.010 C 
ENDBRANCH   1  42
TORSDOF 7
ENDMDL
MODEL 4
REMARK VINA RESULT:      -8.7      2.636      9.455
REMARK  7 active torsions:
REMARK  status: ('A' for Active; 'I' for Inactive)
REMARK    1  A    between atoms: C_2  and  C_3 
REMARK    2  A    between atoms: N_21  and  N_23 
REMARK       I    between atoms: N_23  and  C_24 
REMARK    3  A    between atoms: C_24  and  C_25 
REMARK    4  A    between atoms: C_25  and  N_26 
REMARK    5  A    between atoms: C_25  and  C_34 
REMARK       I    between atoms: N_26  and  C_27 
REMARK    6  A    between atoms: C_27  and  O_28 
REMARK    7  A    between atoms: O_28  and  C_29 
ROOT
HETATM    1  C   UNL     1      39.228  -9.334   6.962  1.00  0.00    -0.041 C 
HETATM    2  C   UNL     1      39.072  -9.718   8.375  1.00  0.00     0.005 C 
HETATM    3  C   UNL     1      39.802 -10.815   8.841  1.00  0.00     0.091 C 
HETATM    4  C   UNL     1      40.112 -10.944  10.192  1.00  0.00     0.075 C 
HETATM    5  C   UNL     1      39.609  -9.996  11.081  1.00  0.00     0.079 C 
HETATM    6  C   UNL     1      38.615  -9.101  10.676  1.00  0.00    -0.024 C 
HETATM    7  C   UNL     1      37.915  -8.220  11.676  1.00  0.00     0.044 C 
HETATM    8  C   UNL     1      38.520  -8.361  13.071  1.00  0.00     0.043 C 
HETATM    9  C   UNL     1      40.032  -8.630  12.973  1.00  0.00     0.068 C 
HETATM   10  C   UNL     1      40.777  -7.477  12.238  1.00  0.00     0.038 C 
HETATM   11  C   UNL     1      42.288  -7.676  12.203  1.00  0.00     0.003 C 
HETATM   12  C   UNL     1      42.847  -7.803  13.610  1.00  0.00     0.000 C 
HETATM   13  C   UNL     1      42.156  -8.924  14.379  1.00  0.00     0.003 C 
HETATM   14  C   UNL     1      40.632  -8.766  14.390  1.00  0.00     0.038 C 
HETATM   15  O   UNL     1      40.203  -9.915  12.315  1.00  0.00    -0.340 OA
HETATM   16  C   UNL     1      38.374  -8.943   9.307  1.00  0.00     0.024 C 
HETATM   17  O   UNL     1      40.279 -11.801   7.951  1.00  0.00    -0.292 OA
HETATM   18  C   UNL     1      40.251 -11.508   6.610  1.00  0.00     0.163 C 
HETATM   19  N   UNL     1      40.614 -12.454   5.827  1.00  0.00    -0.277 N 
HETATM   20  H   UNL     1      40.774 -12.229   4.831  1.00  0.00     0.189 HD
HETATM   21  C   UNL     1      39.857 -10.185   6.139  1.00  0.00     0.065 C 
ENDROOT
BRANCH  19  22
HETATM   22  N   UNL     1      40.636 -13.823   6.158  1.00  0.00    -0.266 N 
HETATM   23  C   UNL     1      41.846 -14.436   5.870  1.00  0.00     0.263 C 
HETATM   24  O   UNL     1      42.880 -13.759   5.865  1.00  0.00    -0.269 OA
HETATM   25  H   UNL     1      39.743 -14.309   6.164  1.00  0.00     0.190 HD
BRANCH  23  26
HETATM   26  C   UNL     1      41.752 -15.880   5.319  1.00  0.00     0.214 C 
BRANCH  26  27
HETATM   27  N   UNL     1      42.004 -15.802   3.890  1.00  0.00    -0.319 N 
HETATM   28  C   UNL     1      41.105 -15.262   3.025  1.00  0.00     0.362 C 
HETATM   29  O   UNL     1      40.027 -14.804   3.382  1.00  0.00    -0.238 OA
HETATM   30  H   UNL     1      42.892 -16.100   3.503  1.00  0.00     0.166 HD
BRANCH  28  31
HETATM   31  O   UNL     1      41.637 -15.242   1.789  1.00  0.00    -0.294 OA
BRANCH  31  32
HETATM   32  C   UNL     1      41.671 -16.426   0.951  1.00  0.00     0.061 C 
HETATM   33  C   UNL     1      40.595 -17.439   1.364  1.00  0.00     0.046 C 
HETATM   34  C   UNL     1      41.346 -15.921  -0.464  1.00  0.00     0.046 C 
HETATM   35  C   UNL     1      43.070 -17.048   0.951  1.00  0.00     0.046 C 
ENDBRANCH  31  32
ENDBRANCH  28  31
ENDBRANCH  26  27
BRANCH  26  36
HETATM   36  C   UNL     1      42.725 -16.841   5.963  1.00  0.00    -0.026 A 
HETATM   37  C   UNL     1      43.686 -17.493   5.172  1.00  0.00     0.010 A 
HETATM   38  C   UNL     1      44.638 -18.331   5.755  1.00  0.00     0.001 A 
HETATM   39  C   UNL     1      44.650 -18.524   7.135  1.00  0.00     0.000 A 
HETATM   40  C   UNL     1      43.714 -17.873   7.933  1.00  0.00     0.001 A 
HETATM   41  C   UNL     1      42.762 -17.033   7.354  1.00  0.00     0.010 A 
ENDBRANCH  26  36
ENDBRANCH  23  26
ENDBRANCH  19  22
BRANCH   1  42
HETATM   42  C   UNL     1      38.894  -7.928   6.515  1.00  0.00     0.035 C 
HETATM   43  C   UNL     1      37.759  -7.883   5.506  1.00  0.00     0.010 C 
ENDBRANCH   1  42
TORSDOF 7
ENDMDL
MODEL 5
REMARK VINA RESULT:      -8.7      4.818      8.939
REMARK  7 active torsions:
REMARK  status: ('A' for Active; 'I' for Inactive)
REMARK    1  A    between atoms: C_2  and  C_3 
REMARK    2  A    between atoms: N_21  and  N_23 
REMARK       I    between atoms: N_23  and  C_24 
REMARK    3  A    between atoms: C_24  and  C_25 
REMARK    4  A    between atoms: C_25  and  N_26 
REMARK    5  A    between atoms: C_25  and  C_34 
REMARK       I    between atoms: N_26  and  C_27 
REMARK    6  A    between atoms: C_27  and  O_28 
REMARK    7  A    between atoms: O_28  and  C_29 
ROOT
HETATM    1  C   UNL     1      38.708 -12.685  -0.717  1.00  0.00    -0.041 C 
HETATM    2  C   UNL     1      39.835 -11.789  -1.022  1.00  0.00     0.005 C 
HETATM    3  C   UNL     1      41.041 -12.365  -1.431  1.00  0.00     0.091 C 
HETATM    4  C   UNL     1      41.955 -11.645  -2.194  1.00  0.00     0.075 C 
HETATM    5  C   UNL     1      41.676 -10.308  -2.474  1.00  0.00     0.079 C 
HETATM    6  C   UNL     1      40.653  -9.640  -1.796  1.00  0.00    -0.024 C 
HETATM    7  C   UNL     1      40.482  -8.150  -1.932  1.00  0.00     0.044 C 
HETATM    8  C   UNL     1      41.450  -7.563  -2.956  1.00  0.00     0.043 C 
HETATM    9  C   UNL     1      41.705  -8.572  -4.089  1.00  0.00     0.068 C 
HETATM   10  C   UNL     1      40.389  -8.953  -4.831  1.00  0.00     0.038 C 
HETATM   11  C   UNL     1      40.625  -9.885  -6.014  1.00  0.00     0.003 C 
HETATM   12  C   UNL     1      41.586  -9.257  -7.010  1.00  0.00     0.000 C 
HETATM   13  C   UNL     1      42.899  -8.867  -6.339  1.00  0.00     0.003 C 
HETATM   14  C   UNL     1      42.681  -7.964  -5.120  1.00  0.00     0.038 C 
HETATM   15  O   UNL     1      42.370  -9.725  -3.503  1.00  0.00    -0.340 OA
HETATM   16  C   UNL     1      39.710 -10.397  -1.094  1.00  0.00     0.024 C 
HETATM   17  O   UNL     1      41.348 -13.706  -1.115  1.00  0.00    -0.292 OA
HETATM   18  C   UNL     1      40.326 -14.496  -0.651  1.00  0.00     0.163 C 
HETATM   19  N   UNL     1      40.656 -15.682  -0.298  1.00  0.00    -0.277 N 
HETATM   20  H   UNL     1      39.900 -16.363  -0.108  1.00  0.00     0.189 HD
HETATM   21  C   UNL     1      38.954 -13.998  -0.605  1.00  0.00     0.065 C 
ENDROOT
BRANCH  19  22
HETATM   22  N   UNL     1      41.957 -16.098   0.041  1.00  0.00    -0.266 N 
HETATM   23  C   UNL     1      41.995 -16.918   1.160  1.00  0.00     0.263 C 
HETATM   24  O   UNL     1      41.006 -17.606   1.439  1.00  0.00    -0.269 OA
HETATM   25  H   UNL     1      42.722 -15.493  -0.242  1.00  0.00     0.190 HD
BRANCH  23  26
HETATM   26  C   UNL     1      43.194 -16.695   2.115  1.00  0.00     0.214 C 
BRANCH  26  27
HETATM   27  N   UNL     1      42.728 -15.822   3.179  1.00  0.00    -0.319 N 
HETATM   28  C   UNL     1      42.594 -14.481   3.007  1.00  0.00     0.362 C 
HETATM   29  O   UNL     1      42.852 -13.913   1.953  1.00  0.00    -0.238 OA
HETATM   30  H   UNL     1      42.433 -16.204   4.070  1.00  0.00     0.166 HD
BRANCH  28  31
HETATM   31  O   UNL     1      42.065 -13.942   4.121  1.00  0.00    -0.294 OA
BRANCH  31  32
HETATM   32  C   UNL     1      40.631 -13.903   4.345  1.00  0.00     0.061 C 
HETATM   33  C   UNL     1      40.227 -14.759   5.552  1.00  0.00     0.046 C 
HETATM   34  C   UNL     1      40.321 -12.432   4.667  1.00  0.00     0.046 C 
HETATM   35  C   UNL     1      39.874 -14.308   3.079  1.00  0.00     0.046 C 
ENDBRANCH  31  32
ENDBRANCH  28  31
ENDBRANCH  26  27
BRANCH  26  36
HETATM   36  C   UNL     1      43.749 -17.973   2.701  1.00  0.00    -0.026 A 
HETATM   37  C   UNL     1      43.965 -18.067   4.086  1.00  0.00     0.010 A 
HETATM   38  C   UNL     1      44.412 -19.260   4.657  1.00  0.00     0.001 A 
HETATM   39  C   UNL     1      44.642 -20.376   3.857  1.00  0.00     0.000 A 
HETATM   40  C   UNL     1      44.419 -20.303   2.485  1.00  0.00     0.001 A 
HETATM   41  C   UNL     1      43.971 -19.114   1.910  1.00  0.00     0.010 A 
ENDBRANCH  26  36
ENDBRANCH  23  26
ENDBRANCH  19  22
BRANCH   1  42
HETATM   42  C   UNL     1      37.289 -12.165  -0.759  1.00  0.00     0.035 C 
HETATM   43  C   UNL     1      36.711 -11.910   0.622  1.00  0.00     0.010 C 
ENDBRANCH   1  42
TORSDOF 7
ENDMDL
MODEL 6
REMARK VINA RESULT:      -8.4      3.611      7.971
REMARK  7 active torsions:
REMARK  status: ('A' for Active; 'I' for Inactive)
REMARK    1  A    between atoms: C_2  and  C_3 
REMARK    2  A    between atoms: N_21  and  N_23 
REMARK       I    between atoms: N_23  and  C_24 
REMARK    3  A    between atoms: C_24  and  C_25 
REMARK    4  A    between atoms: C_25  and  N_26 
REMARK    5  A    between atoms: C_25  and  C_34 
REMARK       I    between atoms: N_26  and  C_27 
REMARK    6  A    between atoms: C_27  and  O_28 
REMARK    7  A    between atoms: O_28  and  C_29 
ROOT
HETATM    1  C   UNL     1      40.308 -11.231   5.527  1.00  0.00    -0.041 C 
HETATM    2  C   UNL     1      40.023 -11.329   4.087  1.00  0.00     0.005 C 
HETATM    3  C   UNL     1      39.443 -12.509   3.610  1.00  0.00     0.091 C 
HETATM    4  C   UNL     1      38.701 -12.515   2.433  1.00  0.00     0.075 C 
HETATM    5  C   UNL     1      38.616 -11.334   1.697  1.00  0.00     0.079 C 
HETATM    6  C   UNL     1      39.458 -10.257   1.985  1.00  0.00    -0.024 C 
HETATM    7  C   UNL     1      39.527  -9.063   1.069  1.00  0.00     0.044 C 
HETATM    8  C   UNL     1      38.505  -9.162  -0.061  1.00  0.00     0.043 C 
HETATM    9  C   UNL     1      37.236  -9.883   0.427  1.00  0.00     0.068 C 
HETATM   10  C   UNL     1      36.568  -9.133   1.617  1.00  0.00     0.038 C 
HETATM   11  C   UNL     1      35.261  -9.777   2.065  1.00  0.00     0.003 C 
HETATM   12  C   UNL     1      34.273  -9.847   0.912  1.00  0.00     0.000 C 
HETATM   13  C   UNL     1      34.873 -10.578  -0.285  1.00  0.00     0.003 C 
HETATM   14  C   UNL     1      36.210  -9.971  -0.725  1.00  0.00     0.038 C 
HETATM   15  O   UNL     1      37.613 -11.246   0.766  1.00  0.00    -0.340 OA
HETATM   16  C   UNL     1      40.138 -10.247   3.208  1.00  0.00     0.024 C 
HETATM   17  O   UNL     1      39.559 -13.717   4.331  1.00  0.00    -0.292 OA
HETATM   18  C   UNL     1      40.006 -13.640   5.626  1.00  0.00     0.163 C 
HETATM   19  N   UNL     1      40.178 -14.760   6.222  1.00  0.00    -0.277 N 
HETATM   20  H   UNL     1      40.344 -14.749   7.243  1.00  0.00     0.189 HD
HETATM   21  C   UNL     1      40.232 -12.348   6.266  1.00  0.00     0.065 C 
ENDROOT
BRANCH  19  22
HETATM   22  N   UNL     1      40.348 -16.004   5.586  1.00  0.00    -0.266 N 
HETATM   23  C   UNL     1      41.568 -16.122   4.935  1.00  0.00     0.263 C 
HETATM   24  O   UNL     1      42.536 -15.469   5.341  1.00  0.00    -0.269 OA
HETATM   25  H   UNL     1      39.506 -16.494   5.300  1.00  0.00     0.190 HD
BRANCH  23  26
HETATM   26  C   UNL     1      41.535 -16.874   3.581  1.00  0.00     0.214 C 
BRANCH  26  27
HETATM   27  N   UNL     1      41.739 -15.878   2.542  1.00  0.00    -0.319 N 
HETATM   28  C   UNL     1      40.736 -15.478   1.717  1.00  0.00     0.362 C 
HETATM   29  O   UNL     1      39.596 -15.921   1.787  1.00  0.00    -0.238 OA
HETATM   30  H   UNL     1      42.632 -15.409   2.442  1.00  0.00     0.166 HD
BRANCH  28  31
HETATM   31  O   UNL     1      41.185 -14.492   0.919  1.00  0.00    -0.294 OA
BRANCH  31  32
HETATM   32  C   UNL     1      40.931 -14.487  -0.510  1.00  0.00     0.061 C 
HETATM   33  C   UNL     1      39.505 -14.017  -0.826  1.00  0.00     0.046 C 
HETATM   34  C   UNL     1      41.921 -13.462  -1.085  1.00  0.00     0.046 C 
HETATM   35  C   UNL     1      41.226 -15.861  -1.116  1.00  0.00     0.046 C 
ENDBRANCH  31  32
ENDBRANCH  28  31
ENDBRANCH  26  27
BRANCH  26  36
HETATM   36  C   UNL     1      42.578 -17.962   3.465  1.00  0.00    -0.026 A 
HETATM   37  C   UNL     1      43.212 -18.444   4.621  1.00  0.00     0.010 A 
HETATM   38  C   UNL     1      44.127 -19.496   4.546  1.00  0.00     0.001 A 
HETATM   39  C   UNL     1      44.417 -20.085   3.317  1.00  0.00     0.000 A 
HETATM   40  C   UNL     1      43.786 -19.627   2.164  1.00  0.00     0.001 A 
HETATM   41  C   UNL     1      42.869 -18.578   2.236  1.00  0.00     0.010 A 
ENDBRANCH  26  36
ENDBRANCH  23  26
ENDBRANCH  19  22
BRANCH   1  42
HETATM   42  C   UNL     1      40.453  -9.877   6.184  1.00  0.00     0.035 C 
HETATM   43  C   UNL     1      41.491  -9.866   7.294  1.00  0.00     0.010 C 
ENDBRANCH   1  42
TORSDOF 7
ENDMDL
MODEL 7
REMARK VINA RESULT:      -8.2      4.755      8.403
REMARK  7 active torsions:
REMARK  status: ('A' for Active; 'I' for Inactive)
REMARK    1  A    between atoms: C_2  and  C_3 
REMARK    2  A    between atoms: N_21  and  N_23 
REMARK       I    between atoms: N_23  and  C_24 
REMARK    3  A    between atoms: C_24  and  C_25 
REMARK    4  A    between atoms: C_25  and  N_26 
REMARK    5  A    between atoms: C_25  and  C_34 
REMARK       I    between atoms: N_26  and  C_27 
REMARK    6  A    between atoms: C_27  and  O_28 
REMARK    7  A    between atoms: O_28  and  C_29 
ROOT
HETATM    1  C   UNL     1      39.237 -13.466   0.374  1.00  0.00    -0.041 C 
HETATM    2  C   UNL     1      40.298 -12.492   0.675  1.00  0.00     0.005 C 
HETATM    3  C   UNL     1      41.613 -12.825   0.335  1.00  0.00     0.091 C 
HETATM    4  C   UNL     1      42.566 -11.836   0.112  1.00  0.00     0.075 C 
HETATM    5  C   UNL     1      42.200 -10.506   0.314  1.00  0.00     0.079 C 
HETATM    6  C   UNL     1      41.007 -10.190   0.969  1.00  0.00    -0.024 C 
HETATM    7  C   UNL     1      40.704  -8.774   1.382  1.00  0.00     0.044 C 
HETATM    8  C   UNL     1      41.772  -7.802   0.884  1.00  0.00     0.043 C 
HETATM    9  C   UNL     1      42.331  -8.272  -0.470  1.00  0.00     0.068 C 
HETATM   10  C   UNL     1      41.218  -8.364  -1.555  1.00  0.00     0.038 C 
HETATM   11  C   UNL     1      41.759  -8.743  -2.929  1.00  0.00     0.003 C 
HETATM   12  C   UNL     1      42.810  -7.745  -3.387  1.00  0.00     0.000 C 
HETATM   13  C   UNL     1      43.933  -7.617  -2.363  1.00  0.00     0.003 C 
HETATM   14  C   UNL     1      43.406  -7.278  -0.964  1.00  0.00     0.038 C 
HETATM   15  O   UNL     1      43.001  -9.544  -0.247  1.00  0.00    -0.340 OA
HETATM   16  C   UNL     1      40.040 -11.190   1.117  1.00  0.00     0.024 C 
HETATM   17  O   UNL     1      41.999 -14.172   0.169  1.00  0.00    -0.292 OA
HETATM   18  C   UNL     1      41.001 -15.109   0.073  1.00  0.00     0.163 C 
HETATM   19  N   UNL     1      41.387 -16.329   0.006  1.00  0.00    -0.277 N 
HETATM   20  H   UNL     1      40.687 -17.049  -0.240  1.00  0.00     0.189 HD
HETATM   21  C   UNL     1      39.598 -14.709   0.023  1.00  0.00     0.065 C 
ENDROOT
BRANCH  19  22
HETATM   22  N   UNL     1      42.644 -16.809   0.420  1.00  0.00    -0.266 N 
HETATM   23  C   UNL     1      42.563 -17.733   1.452  1.00  0.00     0.263 C 
HETATM   24  O   UNL     1      41.541 -18.418   1.570  1.00  0.00    -0.269 OA
HETATM   25  H   UNL     1      43.442 -16.199   0.269  1.00  0.00     0.190 HD
BRANCH  23  26
HETATM   26  C   UNL     1      43.671 -17.633   2.529  1.00  0.00     0.214 C 
BRANCH  26  27
HETATM   27  N   UNL     1      43.142 -16.808   3.602  1.00  0.00    -0.319 N 
HETATM   28  C   UNL     1      43.284 -15.456   3.611  1.00  0.00     0.362 C 
HETATM   29  O   UNL     1      43.861 -14.839   2.724  1.00  0.00    -0.238 OA
HETATM   30  H   UNL     1      42.598 -17.218   4.351  1.00  0.00     0.166 HD
BRANCH  28  31
HETATM   31  O   UNL     1      42.625 -14.949   4.669  1.00  0.00    -0.294 OA
BRANCH  31  32
HETATM   32  C   UNL     1      41.267 -14.449   4.558  1.00  0.00     0.061 C 
HETATM   33  C   UNL     1      40.456 -15.248   3.529  1.00  0.00     0.046 C 
HETATM   34  C   UNL     1      40.648 -14.673   5.946  1.00  0.00     0.046 C 
HETATM   35  C   UNL     1      41.266 -12.951   4.245  1.00  0.00     0.046 C 
ENDBRANCH  31  32
ENDBRANCH  28  31
ENDBRANCH  26  27
BRANCH  26  36
HETATM   36  C   UNL     1      44.108 -18.973   3.077  1.00  0.00    -0.026 A 
HETATM   37  C   UNL     1      44.165 -19.172   4.466  1.00  0.00     0.010 A 
HETATM   38  C   UNL     1      44.498 -20.421   4.993  1.00  0.00     0.001 A 
HETATM   39  C   UNL     1      44.773 -21.489   4.142  1.00  0.00     0.000 A 
HETATM   40  C   UNL     1      44.708 -21.311   2.763  1.00  0.00     0.001 A 
HETATM   41  C   UNL     1      44.372 -20.065   2.233  1.00  0.00     0.010 A 
ENDBRANCH  26  36
ENDBRANCH  23  26
ENDBRANCH  19  22
BRANCH   1  42
HETATM   42  C   UNL     1      37.801 -13.011   0.242  1.00  0.00     0.035 C 
HETATM   43  C   UNL     1      36.802 -14.084   0.639  1.00  0.00     0.010 C 
ENDBRANCH   1  42
TORSDOF 7
ENDMDL
MODEL 8
REMARK VINA RESULT:      -8.1      3.773      8.485
REMARK  7 active torsions:
REMARK  status: ('A' for Active; 'I' for Inactive)
REMARK    1  A    between atoms: C_2  and  C_3 
REMARK    2  A    between atoms: N_21  and  N_23 
REMARK       I    between atoms: N_23  and  C_24 
REMARK    3  A    between atoms: C_24  and  C_25 
REMARK    4  A    between atoms: C_25  and  N_26 
REMARK    5  A    between atoms: C_25  and  C_34 
REMARK       I    between atoms: N_26  and  C_27 
REMARK    6  A    between atoms: C_27  and  O_28 
REMARK    7  A    between atoms: O_28  and  C_29 
ROOT
HETATM    1  C   UNL     1      37.620 -12.056   0.717  1.00  0.00    -0.041 C 
HETATM    2  C   UNL     1      38.900 -11.469   0.290  1.00  0.00     0.005 C 
HETATM    3  C   UNL     1      39.944 -12.338  -0.040  1.00  0.00     0.091 C 
HETATM    4  C   UNL     1      40.965 -11.936  -0.897  1.00  0.00     0.075 C 
HETATM    5  C   UNL     1      40.965 -10.620  -1.355  1.00  0.00     0.079 C 
HETATM    6  C   UNL     1      40.128  -9.665  -0.771  1.00  0.00    -0.024 C 
HETATM    7  C   UNL     1      40.270  -8.204  -1.107  1.00  0.00     0.044 C 
HETATM    8  C   UNL     1      41.308  -7.977  -2.204  1.00  0.00     0.043 C 
HETATM    9  C   UNL     1      41.308  -9.158  -3.190  1.00  0.00     0.068 C 
HETATM   10  C   UNL     1      39.919  -9.344  -3.870  1.00  0.00     0.038 C 
HETATM   11  C   UNL     1      39.915 -10.452  -4.917  1.00  0.00     0.003 C 
HETATM   12  C   UNL     1      40.955 -10.180  -5.992  1.00  0.00     0.000 C 
HETATM   13  C   UNL     1      42.341  -9.994  -5.383  1.00  0.00     0.003 C 
HETATM   14  C   UNL     1      42.358  -8.913  -4.297  1.00  0.00     0.038 C 
HETATM   15  O   UNL     1      41.734 -10.338  -2.456  1.00  0.00    -0.340 OA
HETATM   16  C   UNL     1      39.069 -10.104   0.031  1.00  0.00     0.024 C 
HETATM   17  O   UNL     1      39.971 -13.660   0.453  1.00  0.00    -0.292 OA
HETATM   18  C   UNL     1      38.820 -14.145   1.023  1.00  0.00     0.163 C 
HETATM   19  N   UNL     1      38.904 -15.317   1.533  1.00  0.00    -0.277 N 
HETATM   20  H   UNL     1      38.028 -15.790   1.815  1.00  0.00     0.189 HD
HETATM   21  C   UNL     1      37.587 -13.365   1.005  1.00  0.00     0.065 C 
ENDROOT
BRANCH  19  22
HETATM   22  N   UNL     1      40.098 -15.953   1.921  1.00  0.00    -0.266 N 
HETATM   23  C   UNL     1      40.638 -15.436   3.091  1.00  0.00     0.263 C 
HETATM   24  O   UNL     1      39.888 -14.913   3.922  1.00  0.00    -0.269 OA
HETATM   25  H   UNL     1      40.652 -16.382   1.185  1.00  0.00     0.190 HD
BRANCH  23  26
HETATM   26  C   UNL     1      42.182 -15.330   3.127  1.00  0.00     0.214 C 
BRANCH  26  27
HETATM   27  N   UNL     1      42.537 -14.795   4.431  1.00  0.00    -0.319 N 
HETATM   28  C   UNL     1      43.580 -13.942   4.603  1.00  0.00     0.362 C 
HETATM   29  O   UNL     1      44.292 -13.562   3.682  1.00  0.00    -0.238 OA
HETATM   30  H   UNL     1      41.973 -15.003   5.247  1.00  0.00     0.166 HD
BRANCH  28  31
HETATM   31  O   UNL     1      43.620 -13.544   5.889  1.00  0.00    -0.294 OA
BRANCH  31  32
HETATM   32  C   UNL     1      44.620 -14.043   6.814  1.00  0.00     0.061 C 
HETATM   33  C   UNL     1      46.038 -13.658   6.371  1.00  0.00     0.046 C 
HETATM   34  C   UNL     1      44.317 -13.334   8.144  1.00  0.00     0.046 C 
HETATM   35  C   UNL     1      44.473 -15.554   7.007  1.00  0.00     0.046 C 
ENDBRANCH  31  32
ENDBRANCH  28  31
ENDBRANCH  26  27
BRANCH  26  36
HETATM   36  C   UNL     1      42.888 -16.647   2.900  1.00  0.00    -0.026 A 
HETATM   37  C   UNL     1      42.834 -17.645   3.887  1.00  0.00     0.010 A 
HETATM   38  C   UNL     1      43.419 -18.893   3.670  1.00  0.00     0.001 A 
HETATM   39  C   UNL     1      44.059 -19.166   2.463  1.00  0.00     0.000 A 
HETATM   40  C   UNL     1      44.109 -18.193   1.470  1.00  0.00     0.001 A 
HETATM   41  C   UNL     1      43.523 -16.944   1.682  1.00  0.00     0.010 A 
ENDBRANCH  26  36
ENDBRANCH  23  26
ENDBRANCH  19  22
BRANCH   1  42
HETATM   42  C   UNL     1      36.342 -11.255   0.608  1.00  0.00     0.035 C 
HETATM   43  C   UNL     1      35.818 -11.167  -0.815  1.00  0.00     0.010 C 
ENDBRANCH   1  42
TORSDOF 7
ENDMDL
MODEL 9
REMARK VINA RESULT:      -8.1      5.588      8.885
REMARK  7 active torsions:
REMARK  status: ('A' for Active; 'I' for Inactive)
REMARK    1  A    between atoms: C_2  and  C_3 
REMARK    2  A    between atoms: N_21  and  N_23 
REMARK       I    between atoms: N_23  and  C_24 
REMARK    3  A    between atoms: C_24  and  C_25 
REMARK    4  A    between atoms: C_25  and  N_26 
REMARK    5  A    between atoms: C_25  and  C_34 
REMARK       I    between atoms: N_26  and  C_27 
REMARK    6  A    between atoms: C_27  and  O_28 
REMARK    7  A    between atoms: O_28  and  C_29 
ROOT
HETATM    1  C   UNL     1      40.852 -10.452   1.083  1.00  0.00    -0.041 C 
HETATM    2  C   UNL     1      39.582 -11.049   0.639  1.00  0.00     0.005 C 
HETATM    3  C   UNL     1      39.004 -12.037   1.443  1.00  0.00     0.091 C 
HETATM    4  C   UNL     1      37.636 -12.288   1.394  1.00  0.00     0.075 C 
HETATM    5  C   UNL     1      36.867 -11.586   0.467  1.00  0.00     0.079 C 
HETATM    6  C   UNL     1      37.479 -10.855  -0.554  1.00  0.00    -0.024 C 
HETATM    7  C   UNL     1      36.666 -10.272  -1.680  1.00  0.00     0.044 C 
HETATM    8  C   UNL     1      35.169 -10.483  -1.462  1.00  0.00     0.043 C 
HETATM    9  C   UNL     1      34.837 -10.438   0.039  1.00  0.00     0.068 C 
HETATM   10  C   UNL     1      35.229  -9.072   0.676  1.00  0.00     0.038 C 
HETATM   11  C   UNL     1      34.831  -8.966   2.144  1.00  0.00     0.003 C 
HETATM   12  C   UNL     1      33.335  -9.174   2.312  1.00  0.00     0.000 C 
HETATM   13  C   UNL     1      32.892 -10.503   1.709  1.00  0.00     0.003 C 
HETATM   14  C   UNL     1      33.320 -10.647   0.244  1.00  0.00     0.038 C 
HETATM   15  O   UNL     1      35.510 -11.562   0.669  1.00  0.00    -0.340 OA
HETATM   16  C   UNL     1      38.842 -10.560  -0.442  1.00  0.00     0.024 C 
HETATM   17  O   UNL     1      39.786 -12.779   2.354  1.00  0.00    -0.292 OA
HETATM   18  C   UNL     1      41.048 -12.317   2.627  1.00  0.00     0.163 C 
HETATM   19  N   UNL     1      41.758 -13.058   3.393  1.00  0.00    -0.277 N 
HETATM   20  H   UNL     1      42.643 -12.670   3.763  1.00  0.00     0.189 HD
HETATM   21  C   UNL     1      41.514 -11.043   2.088  1.00  0.00     0.065 C 
ENDROOT
BRANCH  19  22
HETATM   22  N   UNL     1      41.540 -14.428   3.632  1.00  0.00    -0.266 N 
HETATM   23  C   UNL     1      42.532 -15.240   3.102  1.00  0.00     0.263 C 
HETATM   24  O   UNL     1      43.672 -14.786   2.958  1.00  0.00    -0.269 OA
HETATM   25  H   UNL     1      40.577 -14.724   3.764  1.00  0.00     0.190 HD
BRANCH  23  26
HETATM   26  C   UNL     1      42.047 -16.577   2.488  1.00  0.00     0.214 C 
BRANCH  26  27
HETATM   27  N   UNL     1      42.003 -16.388   1.048  1.00  0.00    -0.319 N 
HETATM   28  C   UNL     1      40.921 -15.856   0.422  1.00  0.00     0.362 C 
HETATM   29  O   UNL     1      39.912 -15.498   1.017  1.00  0.00    -0.238 OA
HETATM   30  H   UNL     1      42.810 -16.599   0.473  1.00  0.00     0.166 HD
BRANCH  28  31
HETATM   31  O   UNL     1      41.192 -15.718  -0.890  1.00  0.00    -0.294 OA
BRANCH  31  32
HETATM   32  C   UNL     1      40.992 -14.459  -1.584  1.00  0.00     0.061 C 
HETATM   33  C   UNL     1      41.861 -13.344  -0.988  1.00  0.00     0.046 C 
HETATM   34  C   UNL     1      41.461 -14.724  -3.025  1.00  0.00     0.046 C 
HETATM   35  C   UNL     1      39.510 -14.080  -1.602  1.00  0.00     0.046 C 
ENDBRANCH  31  32
ENDBRANCH  28  31
ENDBRANCH  26  27
BRANCH  26  36
HETATM   36  C   UNL     1      42.929 -17.757   2.828  1.00  0.00    -0.026 A 
HETATM   37  C   UNL     1      43.336 -17.962   4.156  1.00  0.00     0.010 A 
HETATM   38  C   UNL     1      44.093 -19.082   4.504  1.00  0.00     0.001 A 
HETATM   39  C   UNL     1      44.448 -20.016   3.533  1.00  0.00     0.000 A 
HETATM   40  C   UNL     1      44.040 -19.834   2.215  1.00  0.00     0.001 A 
HETATM   41  C   UNL     1      43.281 -18.717   1.864  1.00  0.00     0.010 A 
ENDBRANCH  26  36
ENDBRANCH  23  26
ENDBRANCH  19  22
BRANCH   1  42
HETATM   42  C   UNL     1      41.270  -9.090   0.575  1.00  0.00     0.035 C 
HETATM   43  C   UNL     1      42.494  -9.145  -0.324  1.00  0.00     0.010 C 
ENDBRANCH   1  42
TORSDOF 7
ENDMDL
MODEL 10
REMARK VINA RESULT:      -8.0      2.357      8.180
REMARK  7 active torsions:
REMARK  status: ('A' for Active; 'I' for Inactive)
REMARK    1  A    between atoms: C_2  and  C_3 
REMARK    2  A    between atoms: N_21  and  N_23 
REMARK       I    between atoms: N_23  and  C_24 
REMARK    3  A    between atoms: C_24  and  C_25 
REMARK    4  A    between atoms: C_25  and  N_26 
REMARK    5  A    between atoms: C_25  and  C_34 
REMARK       I    between atoms: N_26  and  C_27 
REMARK    6  A    between atoms: C_27  and  O_28 
REMARK    7  A    between atoms: O_28  and  C_29 
ROOT
HETATM    1  C   UNL     1      43.768 -16.234   6.293  1.00  0.00    -0.041 C 
HETATM    2  C   UNL     1      43.990 -14.795   6.506  1.00  0.00     0.005 C 
HETATM    3  C   UNL     1      42.883 -13.943   6.444  1.00  0.00     0.091 C 
HETATM    4  C   UNL     1      42.889 -12.715   7.098  1.00  0.00     0.075 C 
HETATM    5  C   UNL     1      44.055 -12.318   7.750  1.00  0.00     0.079 C 
HETATM    6  C   UNL     1      45.255 -13.000   7.535  1.00  0.00    -0.024 C 
HETATM    7  C   UNL     1      46.557 -12.456   8.062  1.00  0.00     0.044 C 
HETATM    8  C   UNL     1      46.342 -11.208   8.915  1.00  0.00     0.043 C 
HETATM    9  C   UNL     1      45.005 -11.302   9.671  1.00  0.00     0.068 C 
HETATM   10  C   UNL     1      44.959 -12.544  10.610  1.00  0.00     0.038 C 
HETATM   11  C   UNL     1      43.680 -12.614  11.437  1.00  0.00     0.003 C 
HETATM   12  C   UNL     1      43.512 -11.357  12.275  1.00  0.00     0.000 C 
HETATM   13  C   UNL     1      43.544 -10.105  11.405  1.00  0.00     0.003 C 
HETATM   14  C   UNL     1      44.803 -10.037  10.534  1.00  0.00     0.038 C 
HETATM   15  O   UNL     1      43.944 -11.313   8.677  1.00  0.00    -0.340 OA
HETATM   16  C   UNL     1      45.210 -14.263   6.937  1.00  0.00     0.024 C 
HETATM   17  O   UNL     1      41.714 -14.323   5.750  1.00  0.00    -0.292 OA
HETATM   18  C   UNL     1      41.594 -15.640   5.387  1.00  0.00     0.163 C 
HETATM   19  N   UNL     1      40.561 -15.933   4.689  1.00  0.00    -0.277 N 
HETATM   20  H   UNL     1      40.339 -16.932   4.541  1.00  0.00     0.189 HD
HETATM   21  C   UNL     1      42.580 -16.629   5.812  1.00  0.00     0.065 C 
ENDROOT
BRANCH  19  22
HETATM   22  N   UNL     1      39.798 -15.017   3.940  1.00  0.00    -0.266 N 
HETATM   23  C   UNL     1      40.332 -14.755   2.687  1.00  0.00     0.263 C 
HETATM   24  O   UNL     1      41.027 -15.616   2.135  1.00  0.00    -0.269 OA
HETATM   25  H   UNL     1      39.231 -14.354   4.463  1.00  0.00     0.190 HD
BRANCH  23  26
HETATM   26  C   UNL     1      40.220 -13.289   2.203  1.00  0.00     0.214 C 
BRANCH  26  27
HETATM   27  N   UNL     1      40.710 -12.450   3.284  1.00  0.00    -0.319 N 
HETATM   28  C   UNL     1      39.871 -11.753   4.095  1.00  0.00     0.362 C 
HETATM   29  O   UNL     1      38.653 -11.780   3.978  1.00  0.00    -0.238 OA
HETATM   30  H   UNL     1      41.699 -12.408   3.500  1.00  0.00     0.166 HD
BRANCH  28  31
HETATM   31  O   UNL     1      40.590 -11.140   5.054  1.00  0.00    -0.294 OA
BRANCH  31  32
HETATM   32  C   UNL     1      40.474  -9.716   5.306  1.00  0.00     0.061 C 
HETATM   33  C   UNL     1      41.555  -9.226   6.278  1.00  0.00     0.046 C 
HETATM   34  C   UNL     1      40.711  -9.052   3.940  1.00  0.00     0.046 C 
HETATM   35  C   UNL     1      39.066  -9.366   5.794  1.00  0.00     0.046 C 
ENDBRANCH  31  32
ENDBRANCH  28  31
ENDBRANCH  26  27
BRANCH  26  36
HETATM   36  C   UNL     1      40.998 -13.006   0.938  1.00  0.00    -0.026 A 
HETATM   37  C   UNL     1      40.752 -13.769  -0.216  1.00  0.00     0.010 A 
HETATM   38  C   UNL     1      41.408 -13.480  -1.414  1.00  0.00     0.001 A 
HETATM   39  C   UNL     1      42.311 -12.422  -1.480  1.00  0.00     0.000 A 
HETATM   40  C   UNL     1      42.555 -11.648  -0.349  1.00  0.00     0.001 A 
HETATM   41  C   UNL     1      41.900 -11.931   0.850  1.00  0.00     0.010 A 
ENDBRANCH  26  36
ENDBRANCH  23  26
ENDBRANCH  19  22
BRANCH   1  42
HETATM   42  C   UNL     1      44.764 -17.244   6.819  1.00  0.00     0.035 C 
HETATM   43  C   UNL     1      44.845 -18.496   5.962  1.00  0.00     0.010 C 
ENDBRANCH   1  42
TORSDOF 7
ENDMDL
