MODEL 1
REMARK VINA RESULT:      -9.4      0.000      0.000
REMARK  6 active torsions:
REMARK  status: ('A' for Active; 'I' for Inactive)
REMARK    1  A    between atoms: C_7  and  C_8 
REMARK    2  A    between atoms: C_12  and  S_13 
REMARK    3  A    between atoms: S_13  and  C_14 
REMARK    4  A    between atoms: C_14  and  C_15 
REMARK       I    between atoms: C_15  and  N_16 
REMARK    5  A    between atoms: N_16  and  C_17 
REMARK    6  A    between atoms: C_25  and  C_26 
REMARK       I    between atoms: C_26  and  N_27 
ROOT
HETATM    1  C   UNL     1      41.324 -10.912   7.369  1.00  0.00     0.232 C 
HETATM    2  N   UNL     1      41.078 -11.301   8.671  1.00  0.00    -0.320 N 
HETATM    3  O   UNL     1      42.063  -9.993   7.015  1.00  0.00    -0.272 OA
HETATM    4  H   UNL     1      40.469 -12.105   8.790  1.00  0.00     0.169 HD
ENDROOT
BRANCH   1   5
HETATM    5  C   UNL     1      40.663 -11.766   6.287  1.00  0.00     0.185 C 
BRANCH   5   6
HETATM    6  S   UNL     1      41.689 -12.193   4.846  1.00  0.00    -0.081 SA
BRANCH   6   7
HETATM    7  C   UNL     1      41.977 -13.862   5.138  1.00  0.00     0.185 A 
HETATM    8  N   UNL     1      41.439 -14.519   6.195  1.00  0.00    -0.253 N 
HETATM    9  N   UNL     1      41.726 -15.828   6.137  1.00  0.00    -0.152 NA
HETATM   10  H   UNL     1      40.868 -14.157   6.949  1.00  0.00     0.191 HD
HETATM   11  C   UNL     1      42.479 -15.911   5.029  1.00  0.00     0.183 A 
HETATM   12  N   UNL     1      42.640 -14.697   4.384  1.00  0.00    -0.201 NA
BRANCH  11  13
HETATM   13  C   UNL     1      43.015 -17.146   4.457  1.00  0.00     0.035 A 
HETATM   14  C   UNL     1      44.004 -17.940   5.062  1.00  0.00     0.049 A 
HETATM   15  C   UNL     1      44.437 -19.126   4.449  1.00  0.00     0.048 A 
HETATM   16 CL   UNL     1      44.800 -17.527   6.544  1.00  0.00    -0.083 Cl
HETATM   17  C   UNL     1      43.899 -19.522   3.229  1.00  0.00     0.035 A 
HETATM   18  C   UNL     1      42.932 -18.745   2.604  1.00  0.00     0.025 A 
HETATM   19 CL   UNL     1      44.439 -20.976   2.486  1.00  0.00    -0.084 Cl
HETATM   20  C   UNL     1      42.495 -17.566   3.213  1.00  0.00     0.019 A 
ENDBRANCH  11  13
ENDBRANCH   6   7
ENDBRANCH   5   6
ENDBRANCH   1   5
BRANCH   2  21
HETATM   21  C   UNL     1      41.400 -10.625   9.840  1.00  0.00     0.093 A 
HETATM   22  S   UNL     1      40.250  -9.674  10.651  1.00  0.00    -0.075 SA
HETATM   23  C   UNL     1      41.304  -9.365  11.939  1.00  0.00    -0.008 A 
HETATM   24  C   UNL     1      42.534  -9.971  11.775  1.00  0.00    -0.026 A 
HETATM   25  C   UNL     1      40.889  -8.545  13.122  1.00  0.00     0.047 C 
HETATM   26  C   UNL     1      43.625  -9.826  12.801  1.00  0.00     0.041 C 
HETATM   27  C   UNL     1      42.620 -10.666  10.508  1.00  0.00     0.072 A 
HETATM   28  C   UNL     1      43.093  -9.284  14.138  1.00  0.00     0.005 C 
HETATM   29  C   UNL     1      42.120  -8.116  13.934  1.00  0.00     0.005 C 
BRANCH  27  30
HETATM   30  C   UNL     1      43.817 -11.346  10.013  1.00  0.00     0.252 C 
HETATM   31  N   UNL     1      43.955 -12.654  10.398  1.00  0.00    -0.366 N 
HETATM   32  H   UNL     1      43.120 -13.171  10.647  1.00  0.00     0.159 HD
HETATM   33  H   UNL     1      44.661 -13.163   9.878  1.00  0.00     0.159 HD
HETATM   34  O   UNL     1      44.634 -10.840   9.253  1.00  0.00    -0.268 OA
ENDBRANCH  27  30
ENDBRANCH   2  21
TORSDOF 6
ENDMDL
MODEL 2
REMARK VINA RESULT:      -9.2      4.113     10.870
REMARK  6 active torsions:
REMARK  status: ('A' for Active; 'I' for Inactive)
REMARK    1  A    between atoms: C_7  and  C_8 
REMARK    2  A    between atoms: C_12  and  S_13 
REMARK    3  A    between atoms: S_13  and  C_14 
REMARK    4  A    between atoms: C_14  and  C_15 
REMARK       I    between atoms: C_15  and  N_16 
REMARK    5  A    between atoms: N_16  and  C_17 
REMARK    6  A    between atoms: C_25  and  C_26 
REMARK       I    between atoms: C_26  and  N_27 
ROOT
HETATM    1  C   UNL     1      43.340 -16.442   6.737  1.00  0.00     0.232 C 
HETATM    2  N   UNL     1      44.392 -17.005   6.041  1.00  0.00    -0.320 N 
HETATM    3  O   UNL     1      42.199 -16.897   6.818  1.00  0.00    -0.272 OA
HETATM    4  H   UNL     1      45.282 -16.520   6.106  1.00  0.00     0.169 HD
ENDROOT
BRANCH   1   5
HETATM    5  C   UNL     1      43.672 -15.176   7.528  1.00  0.00     0.185 C 
BRANCH   5   6
HETATM    6  S   UNL     1      45.017 -14.138   6.877  1.00  0.00    -0.081 SA
BRANCH   6   7
HETATM    7  C   UNL     1      45.048 -12.878   8.046  1.00  0.00     0.185 A 
HETATM    8  N   UNL     1      46.128 -12.079   8.225  1.00  0.00    -0.253 N 
HETATM    9  N   UNL     1      45.861 -11.112   9.115  1.00  0.00    -0.152 NA
HETATM   10  H   UNL     1      47.034 -12.117   7.774  1.00  0.00     0.191 HD
HETATM   11  C   UNL     1      44.599 -11.392   9.477  1.00  0.00     0.183 A 
HETATM   12  N   UNL     1      44.069 -12.485   8.814  1.00  0.00    -0.201 NA
BRANCH  11  13
HETATM   13  C   UNL     1      43.783 -10.598  10.395  1.00  0.00     0.035 A 
HETATM   14  C   UNL     1      42.594  -9.938  10.038  1.00  0.00     0.049 A 
HETATM   15  C   UNL     1      41.863  -9.220  10.996  1.00  0.00     0.048 A 
HETATM   16 CL   UNL     1      41.960  -9.900   8.426  1.00  0.00    -0.083 Cl
HETATM   17  C   UNL     1      42.315  -9.144  12.310  1.00  0.00     0.035 A 
HETATM   18  C   UNL     1      43.495  -9.773  12.684  1.00  0.00     0.025 A 
HETATM   19 CL   UNL     1      41.412  -8.259  13.476  1.00  0.00    -0.084 Cl
HETATM   20  C   UNL     1      44.223 -10.494  11.732  1.00  0.00     0.019 A 
ENDBRANCH  11  13
ENDBRANCH   6   7
ENDBRANCH   5   6
ENDBRANCH   1   5
BRANCH   2  21
HETATM   21  C   UNL     1      44.349 -18.040   5.117  1.00  0.00     0.093 A 
HETATM   22  S   UNL     1      44.992 -19.570   5.481  1.00  0.00    -0.075 SA
HETATM   23  C   UNL     1      44.440 -20.231   4.023  1.00  0.00    -0.008 A 
HETATM   24  C   UNL     1      43.767 -19.310   3.245  1.00  0.00    -0.026 A 
HETATM   25  C   UNL     1      44.653 -21.672   3.677  1.00  0.00     0.047 C 
HETATM   26  C   UNL     1      43.193 -19.683   1.905  1.00  0.00     0.041 C 
HETATM   27  C   UNL     1      43.763 -17.998   3.856  1.00  0.00     0.072 A 
HETATM   28  C   UNL     1      43.116 -21.207   1.713  1.00  0.00     0.005 C 
HETATM   29  C   UNL     1      44.398 -21.907   2.181  1.00  0.00     0.005 C 
BRANCH  27  30
HETATM   30  C   UNL     1      43.192 -16.798   3.245  1.00  0.00     0.252 C 
HETATM   31  N   UNL     1      41.887 -16.533   3.569  1.00  0.00    -0.366 N 
HETATM   32  H   UNL     1      41.525 -16.905   4.439  1.00  0.00     0.159 HD
HETATM   33  H   UNL     1      41.582 -15.600   3.317  1.00  0.00     0.159 HD
HETATM   34  O   UNL     1      43.818 -16.019   2.536  1.00  0.00    -0.268 OA
ENDBRANCH  27  30
ENDBRANCH   2  21
TORSDOF 6
ENDMDL
MODEL 3
REMARK VINA RESULT:      -9.0      3.394     10.134
REMARK  6 active torsions:
REMARK  status: ('A' for Active; 'I' for Inactive)
REMARK    1  A    between atoms: C_7  and  C_8 
REMARK    2  A    between atoms: C_12  and  S_13 
REMARK    3  A    between atoms: S_13  and  C_14 
REMARK    4  A    between atoms: C_14  and  C_15 
REMARK       I    between atoms: C_15  and  N_16 
REMARK    5  A    between atoms: N_16  and  C_17 
REMARK    6  A    between atoms: C_25  and  C_26 
REMARK       I    between atoms: C_26  and  N_27 
ROOT
HETATM    1  C   UNL     1      41.118 -14.462   5.080  1.00  0.00     0.232 C 
HETATM    2  N   UNL     1      40.893 -15.823   5.023  1.00  0.00    -0.320 N 
HETATM    3  O   UNL     1      42.020 -13.852   4.504  1.00  0.00    -0.272 OA
HETATM    4  H   UNL     1      40.081 -16.164   5.529  1.00  0.00     0.169 HD
ENDROOT
BRANCH   1   5
HETATM    5  C   UNL     1      40.096 -13.654   5.879  1.00  0.00     0.185 C 
BRANCH   5   6
HETATM    6  S   UNL     1      39.734 -11.975   5.278  1.00  0.00    -0.081 SA
BRANCH   6   7
HETATM    7  C   UNL     1      40.719 -11.037   6.329  1.00  0.00     0.185 A 
HETATM    8  N   UNL     1      41.197  -9.817   5.981  1.00  0.00    -0.253 N 
HETATM    9  N   UNL     1      41.843  -9.249   7.009  1.00  0.00    -0.152 NA
HETATM   10  H   UNL     1      41.103  -9.320   5.104  1.00  0.00     0.191 HD
HETATM   11  C   UNL     1      41.757 -10.191   7.962  1.00  0.00     0.183 A 
HETATM   12  N   UNL     1      41.050 -11.311   7.562  1.00  0.00    -0.201 NA
BRANCH  11  13
HETATM   13  C   UNL     1      42.250 -10.060   9.333  1.00  0.00     0.035 A 
HETATM   14  C   UNL     1      43.382 -10.721   9.839  1.00  0.00     0.049 A 
HETATM   15  C   UNL     1      43.796 -10.511  11.164  1.00  0.00     0.048 A 
HETATM   16 CL   UNL     1      44.320 -11.860   8.932  1.00  0.00    -0.083 Cl
HETATM   17  C   UNL     1      43.080  -9.655  11.994  1.00  0.00     0.035 A 
HETATM   18  C   UNL     1      41.948  -9.003  11.522  1.00  0.00     0.025 A 
HETATM   19 CL   UNL     1      43.594  -9.407  13.617  1.00  0.00    -0.084 Cl
HETATM   20  C   UNL     1      41.536  -9.206  10.202  1.00  0.00     0.019 A 
ENDBRANCH  11  13
ENDBRANCH   6   7
ENDBRANCH   5   6
ENDBRANCH   1   5
BRANCH   2  21
HETATM   21  C   UNL     1      41.733 -16.808   4.522  1.00  0.00     0.093 A 
HETATM   22  S   UNL     1      42.768 -17.685   5.545  1.00  0.00    -0.075 SA
HETATM   23  C   UNL     1      43.276 -18.697   4.287  1.00  0.00    -0.008 A 
HETATM   24  C   UNL     1      42.676 -18.388   3.083  1.00  0.00    -0.026 A 
HETATM   25  C   UNL     1      44.247 -19.815   4.515  1.00  0.00     0.047 C 
HETATM   26  C   UNL     1      42.985 -19.162   1.830  1.00  0.00     0.041 C 
HETATM   27  C   UNL     1      41.810 -17.234   3.200  1.00  0.00     0.072 A 
HETATM   28  C   UNL     1      43.701 -20.489   2.131  1.00  0.00     0.005 C 
HETATM   29  C   UNL     1      44.810 -20.315   3.177  1.00  0.00     0.005 C 
BRANCH  27  30
HETATM   30  C   UNL     1      41.090 -16.620   2.085  1.00  0.00     0.252 C 
HETATM   31  N   UNL     1      39.759 -16.936   1.996  1.00  0.00    -0.366 N 
HETATM   32  H   UNL     1      39.278 -17.226   2.839  1.00  0.00     0.159 HD
HETATM   33  H   UNL     1      39.238 -16.342   1.362  1.00  0.00     0.159 HD
HETATM   34  O   UNL     1      41.585 -15.822   1.298  1.00  0.00    -0.268 OA
ENDBRANCH  27  30
ENDBRANCH   2  21
TORSDOF 6
ENDMDL
MODEL 4
REMARK VINA RESULT:      -9.0      5.119      8.761
REMARK  6 active torsions:
REMARK  status: ('A' for Active; 'I' for Inactive)
REMARK    1  A    between atoms: C_7  and  C_8 
REMARK    2  A    between atoms: C_12  and  S_13 
REMARK    3  A    between atoms: S_13  and  C_14 
REMARK    4  A    between atoms: C_14  and  C_15 
REMARK       I    between atoms: C_15  and  N_16 
REMARK    5  A    between atoms: N_16  and  C_17 
REMARK    6  A    between atoms: C_25  and  C_26 
REMARK       I    between atoms: C_26  and  N_27 
ROOT
HETATM    1  C   UNL     1      42.437 -12.992   3.502  1.00  0.00     0.232 C 
HETATM    2  N   UNL     1      41.391 -12.777   2.626  1.00  0.00    -0.320 N 
HETATM    3  O   UNL     1      43.585 -13.309   3.194  1.00  0.00    -0.272 OA
HETATM    4  H   UNL     1      40.512 -12.484   3.042  1.00  0.00     0.169 HD
ENDROOT
BRANCH   1   5
HETATM    5  C   UNL     1      42.129 -12.734   4.977  1.00  0.00     0.185 C 
BRANCH   5   6
HETATM    6  S   UNL     1      43.071 -13.712   6.188  1.00  0.00    -0.081 SA
BRANCH   6   7
HETATM    7  C   UNL     1      42.709 -15.309   5.666  1.00  0.00     0.185 A 
HETATM    8  N   UNL     1      41.456 -15.824   5.716  1.00  0.00    -0.253 N 
HETATM    9  N   UNL     1      41.419 -17.040   5.153  1.00  0.00    -0.152 NA
HETATM   10  H   UNL     1      40.608 -15.408   6.082  1.00  0.00     0.191 HD
HETATM   11  C   UNL     1      42.701 -17.236   4.802  1.00  0.00     0.183 A 
HETATM   12  N   UNL     1      43.520 -16.163   5.103  1.00  0.00    -0.201 NA
BRANCH  11  13
HETATM   13  C   UNL     1      43.215 -18.399   4.079  1.00  0.00     0.035 A 
HETATM   14  C   UNL     1      44.050 -19.380   4.640  1.00  0.00     0.049 A 
HETATM   15  C   UNL     1      44.473 -20.478   3.874  1.00  0.00     0.048 A 
HETATM   16 CL   UNL     1      44.666 -19.312   6.258  1.00  0.00    -0.083 Cl
HETATM   17  C   UNL     1      44.077 -20.599   2.546  1.00  0.00     0.035 A 
HETATM   18  C   UNL     1      43.265 -19.634   1.964  1.00  0.00     0.025 A 
HETATM   19 CL   UNL     1      44.603 -21.947   1.616  1.00  0.00    -0.084 Cl
HETATM   20  C   UNL     1      42.839 -18.542   2.726  1.00  0.00     0.019 A 
ENDBRANCH  11  13
ENDBRANCH   6   7
ENDBRANCH   5   6
ENDBRANCH   1   5
BRANCH   2  21
HETATM   21  C   UNL     1      41.330 -13.088   1.274  1.00  0.00     0.093 A 
HETATM   22  S   UNL     1      42.064 -12.092   0.110  1.00  0.00    -0.075 SA
HETATM   23  C   UNL     1      41.697 -13.165  -1.147  1.00  0.00    -0.008 A 
HETATM   24  C   UNL     1      41.018 -14.283  -0.707  1.00  0.00    -0.026 A 
HETATM   25  C   UNL     1      42.117 -12.901  -2.560  1.00  0.00     0.047 C 
HETATM   26  C   UNL     1      40.590 -15.368  -1.659  1.00  0.00     0.041 C 
HETATM   27  C   UNL     1      40.742 -14.216   0.712  1.00  0.00     0.072 A 
HETATM   28  C   UNL     1      41.305 -15.260  -3.017  1.00  0.00     0.005 C 
HETATM   29  C   UNL     1      41.349 -13.814  -3.526  1.00  0.00     0.005 C 
BRANCH  27  30
HETATM   30  C   UNL     1      39.977 -15.214   1.458  1.00  0.00     0.252 C 
HETATM   31  N   UNL     1      38.615 -15.058   1.430  1.00  0.00    -0.366 N 
HETATM   32  H   UNL     1      38.207 -14.556   0.650  1.00  0.00     0.159 HD
HETATM   33  H   UNL     1      38.103 -15.867   1.762  1.00  0.00     0.159 HD
HETATM   34  O   UNL     1      40.472 -16.176   2.032  1.00  0.00    -0.268 OA
ENDBRANCH  27  30
ENDBRANCH   2  21
TORSDOF 6
ENDMDL
MODEL 5
REMARK VINA RESULT:      -8.9      3.429      9.858
REMARK  6 active torsions:
REMARK  status: ('A' for Active; 'I' for Inactive)
REMARK    1  A    between atoms: C_7  and  C_8 
REMARK    2  A    between atoms: C_12  and  S_13 
REMARK    3  A    between atoms: S_13  and  C_14 
REMARK    4  A    between atoms: C_14  and  C_15 
REMARK       I    between atoms: C_15  and  N_16 
REMARK    5  A    between atoms: N_16  and  C_17 
REMARK    6  A    between atoms: C_25  and  C_26 
REMARK       I    between atoms: C_26  and  N_27 
ROOT
HETATM    1  C   UNL     1      40.756 -15.296   5.719  1.00  0.00     0.232 C 
HETATM    2  N   UNL     1      41.775 -15.482   4.806  1.00  0.00    -0.320 N 
HETATM    3  O   UNL     1      40.244 -16.169   6.420  1.00  0.00    -0.272 OA
HETATM    4  H   UNL     1      42.110 -14.647   4.334  1.00  0.00     0.169 HD
ENDROOT
BRANCH   1   5
HETATM    5  C   UNL     1      40.291 -13.852   5.908  1.00  0.00     0.185 C 
BRANCH   5   6
HETATM    6  S   UNL     1      41.117 -12.591   4.889  1.00  0.00    -0.081 SA
BRANCH   6   7
HETATM    7  C   UNL     1      41.566 -11.447   6.091  1.00  0.00     0.185 A 
HETATM    8  N   UNL     1      41.426 -10.111   5.911  1.00  0.00    -0.253 N 
HETATM    9  N   UNL     1      41.744  -9.445   7.031  1.00  0.00    -0.152 NA
HETATM   10  H   UNL     1      41.106  -9.605   5.094  1.00  0.00     0.191 HD
HETATM   11  C   UNL     1      42.109 -10.435   7.863  1.00  0.00     0.183 A 
HETATM   12  N   UNL     1      41.995 -11.693   7.299  1.00  0.00    -0.201 NA
BRANCH  11  13
HETATM   13  C   UNL     1      42.495 -10.267   9.263  1.00  0.00     0.035 A 
HETATM   14  C   UNL     1      43.683 -10.764   9.827  1.00  0.00     0.049 A 
HETATM   15  C   UNL     1      43.982 -10.530  11.178  1.00  0.00     0.048 A 
HETATM   16 CL   UNL     1      44.833 -11.728   8.959  1.00  0.00    -0.083 Cl
HETATM   17  C   UNL     1      43.099  -9.812  11.977  1.00  0.00     0.035 A 
HETATM   18  C   UNL     1      41.911  -9.325  11.447  1.00  0.00     0.025 A 
HETATM   19 CL   UNL     1      43.475  -9.533  13.632  1.00  0.00    -0.084 Cl
HETATM   20  C   UNL     1      41.612  -9.552  10.101  1.00  0.00     0.019 A 
ENDBRANCH  11  13
ENDBRANCH   6   7
ENDBRANCH   5   6
ENDBRANCH   1   5
BRANCH   2  21
HETATM   21  C   UNL     1      42.274 -16.680   4.313  1.00  0.00     0.093 A 
HETATM   22  S   UNL     1      41.868 -17.226   2.756  1.00  0.00    -0.075 SA
HETATM   23  C   UNL     1      42.919 -18.549   2.865  1.00  0.00    -0.008 A 
HETATM   24  C   UNL     1      43.586 -18.597   4.073  1.00  0.00    -0.026 A 
HETATM   25  C   UNL     1      43.096 -19.514   1.733  1.00  0.00     0.047 C 
HETATM   26  C   UNL     1      44.569 -19.693   4.384  1.00  0.00     0.041 C 
HETATM   27  C   UNL     1      43.164 -17.533   4.958  1.00  0.00     0.072 A 
HETATM   28  C   UNL     1      44.993 -20.465   3.123  1.00  0.00     0.005 C 
HETATM   29  C   UNL     1      43.794 -20.791   2.223  1.00  0.00     0.005 C 
BRANCH  27  30
HETATM   30  C   UNL     1      43.635 -17.358   6.332  1.00  0.00     0.252 C 
HETATM   31  N   UNL     1      42.784 -17.805   7.309  1.00  0.00    -0.366 N 
HETATM   32  H   UNL     1      42.116 -18.527   7.069  1.00  0.00     0.159 HD
HETATM   33  H   UNL     1      43.212 -17.875   8.225  1.00  0.00     0.159 HD
HETATM   34  O   UNL     1      44.733 -16.906   6.633  1.00  0.00    -0.268 OA
ENDBRANCH  27  30
ENDBRANCH   2  21
TORSDOF 6
ENDMDL
MODEL 6
REMARK VINA RESULT:      -8.8      6.182      9.813
REMARK  6 active torsions:
REMARK  status: ('A' for Active; 'I' for Inactive)
REMARK    1  A    between atoms: C_7  and  C_8 
REMARK    2  A    between atoms: C_12  and  S_13 
REMARK    3  A    between atoms: S_13  and  C_14 
REMARK    4  A    between atoms: C_14  and  C_15 
REMARK       I    between atoms: C_15  and  N_16 
REMARK    5  A    between atoms: N_16  and  C_17 
REMARK    6  A    between atoms: C_25  and  C_26 
REMARK       I    between atoms: C_26  and  N_27 
ROOT
HETATM    1  C   UNL     1      43.192 -14.670   3.976  1.00  0.00     0.232 C 
HETATM    2  N   UNL     1      42.711 -15.904   4.366  1.00  0.00    -0.320 N 
HETATM    3  O   UNL     1      43.990 -14.460   3.062  1.00  0.00    -0.272 OA
HETATM    4  H   UNL     1      42.028 -15.901   5.118  1.00  0.00     0.169 HD
ENDROOT
BRANCH   1   5
HETATM    5  C   UNL     1      42.609 -13.467   4.717  1.00  0.00     0.185 C 
BRANCH   5   6
HETATM    6  S   UNL     1      40.895 -13.012   4.308  1.00  0.00    -0.081 SA
BRANCH   6   7
HETATM    7  C   UNL     1      40.966 -12.997   2.591  1.00  0.00     0.185 A 
HETATM    8  N   UNL     1      41.899 -12.289   1.908  1.00  0.00    -0.253 N 
HETATM    9  N   UNL     1      41.808 -12.530   0.592  1.00  0.00    -0.152 NA
HETATM   10  H   UNL     1      42.616 -11.668   2.261  1.00  0.00     0.191 HD
HETATM   11  C   UNL     1      40.768 -13.376   0.523  1.00  0.00     0.183 A 
HETATM   12  N   UNL     1      40.234 -13.689   1.760  1.00  0.00    -0.201 NA
BRANCH  11  13
HETATM   13  C   UNL     1      40.272 -14.015  -0.696  1.00  0.00     0.035 A 
HETATM   14  C   UNL     1      39.001 -13.790  -1.253  1.00  0.00     0.049 A 
HETATM   15  C   UNL     1      38.622 -14.430  -2.443  1.00  0.00     0.048 A 
HETATM   16 CL   UNL     1      37.794 -12.781  -0.526  1.00  0.00    -0.083 Cl
HETATM   17  C   UNL     1      39.499 -15.303  -3.079  1.00  0.00     0.035 A 
HETATM   18  C   UNL     1      40.754 -15.554  -2.540  1.00  0.00     0.025 A 
HETATM   19 CL   UNL     1      39.023 -16.083  -4.537  1.00  0.00    -0.084 Cl
HETATM   20  C   UNL     1      41.136 -14.915  -1.357  1.00  0.00     0.019 A 
ENDBRANCH  11  13
ENDBRANCH   6   7
ENDBRANCH   5   6
ENDBRANCH   1   5
BRANCH   2  21
HETATM   21  C   UNL     1      43.175 -17.159   3.995  1.00  0.00     0.093 A 
HETATM   22  S   UNL     1      44.067 -18.121   5.075  1.00  0.00    -0.075 SA
HETATM   23  C   UNL     1      44.102 -19.427   3.999  1.00  0.00    -0.008 A 
HETATM   24  C   UNL     1      43.444 -19.157   2.816  1.00  0.00    -0.026 A 
HETATM   25  C   UNL     1      44.757 -20.727   4.354  1.00  0.00     0.047 C 
HETATM   26  C   UNL     1      43.354 -20.179   1.715  1.00  0.00     0.041 C 
HETATM   27  C   UNL     1      42.948 -17.798   2.780  1.00  0.00     0.072 A 
HETATM   28  C   UNL     1      43.720 -21.590   2.206  1.00  0.00     0.005 C 
HETATM   29  C   UNL     1      44.969 -21.580   3.095  1.00  0.00     0.005 C 
BRANCH  27  30
HETATM   30  C   UNL     1      42.271 -17.190   1.635  1.00  0.00     0.252 C 
HETATM   31  N   UNL     1      43.063 -16.943   0.543  1.00  0.00    -0.366 N 
HETATM   32  H   UNL     1      43.902 -17.497   0.426  1.00  0.00     0.159 HD
HETATM   33  H   UNL     1      42.543 -16.729  -0.300  1.00  0.00     0.159 HD
HETATM   34  O   UNL     1      41.070 -16.957   1.587  1.00  0.00    -0.268 OA
ENDBRANCH  27  30
ENDBRANCH   2  21
TORSDOF 6
ENDMDL
MODEL 7
REMARK VINA RESULT:      -8.8      6.154      9.930
REMARK  6 active torsions:
REMARK  status: ('A' for Active; 'I' for Inactive)
REMARK    1  A    between atoms: C_7  and  C_8 
REMARK    2  A    between atoms: C_12  and  S_13 
REMARK    3  A    between atoms: S_13  and  C_14 
REMARK    4  A    between atoms: C_14  and  C_15 
REMARK       I    between atoms: C_15  and  N_16 
REMARK    5  A    between atoms: N_16  and  C_17 
REMARK    6  A    between atoms: C_25  and  C_26 
REMARK       I    between atoms: C_26  and  N_27 
ROOT
HETATM    1  C   UNL     1      41.871 -16.060   5.316  1.00  0.00     0.232 C 
HETATM    2  N   UNL     1      43.115 -16.435   4.849  1.00  0.00    -0.320 N 
HETATM    3  O   UNL     1      40.920 -16.813   5.529  1.00  0.00    -0.272 OA
HETATM    4  H   UNL     1      43.803 -15.693   4.762  1.00  0.00     0.169 HD
ENDROOT
BRANCH   1   5
HETATM    5  C   UNL     1      41.711 -14.579   5.659  1.00  0.00     0.185 C 
BRANCH   5   6
HETATM    6  S   UNL     1      40.152 -13.789   5.151  1.00  0.00    -0.081 SA
BRANCH   6   7
HETATM    7  C   UNL     1      40.124 -14.177   3.477  1.00  0.00     0.185 A 
HETATM    8  N   UNL     1      39.472 -15.263   2.994  1.00  0.00    -0.253 N 
HETATM    9  N   UNL     1      39.509 -15.282   1.653  1.00  0.00    -0.152 NA
HETATM   10  H   UNL     1      38.977 -15.989   3.497  1.00  0.00     0.191 HD
HETATM   11  C   UNL     1      40.235 -14.188   1.368  1.00  0.00     0.183 A 
HETATM   12  N   UNL     1      40.619 -13.479   2.492  1.00  0.00    -0.201 NA
BRANCH  11  13
HETATM   13  C   UNL     1      40.531 -13.693   0.024  1.00  0.00     0.035 A 
HETATM   14  C   UNL     1      39.567 -13.478  -0.976  1.00  0.00     0.049 A 
HETATM   15  C   UNL     1      39.943 -12.973  -2.230  1.00  0.00     0.048 A 
HETATM   16 CL   UNL     1      37.885 -13.850  -0.790  1.00  0.00    -0.083 Cl
HETATM   17  C   UNL     1      41.278 -12.691  -2.500  1.00  0.00     0.035 A 
HETATM   18  C   UNL     1      42.252 -12.910  -1.534  1.00  0.00     0.025 A 
HETATM   19 CL   UNL     1      41.728 -12.075  -4.042  1.00  0.00    -0.084 Cl
HETATM   20  C   UNL     1      41.879 -13.409  -0.282  1.00  0.00     0.019 A 
ENDBRANCH  11  13
ENDBRANCH   6   7
ENDBRANCH   5   6
ENDBRANCH   1   5
BRANCH   2  21
HETATM   21  C   UNL     1      43.493 -17.657   4.308  1.00  0.00     0.093 A 
HETATM   22  S   UNL     1      44.294 -18.824   5.248  1.00  0.00    -0.075 SA
HETATM   23  C   UNL     1      44.252 -19.966   3.999  1.00  0.00    -0.008 A 
HETATM   24  C   UNL     1      43.636 -19.484   2.861  1.00  0.00    -0.026 A 
HETATM   25  C   UNL     1      44.804 -21.347   4.172  1.00  0.00     0.047 C 
HETATM   26  C   UNL     1      43.491 -20.333   1.627  1.00  0.00     0.041 C 
HETATM   27  C   UNL     1      43.241 -18.100   3.014  1.00  0.00     0.072 A 
HETATM   28  C   UNL     1      43.744 -21.822   1.916  1.00  0.00     0.005 C 
HETATM   29  C   UNL     1      44.976 -22.029   2.807  1.00  0.00     0.005 C 
BRANCH  27  30
HETATM   30  C   UNL     1      42.630 -17.289   1.961  1.00  0.00     0.252 C 
HETATM   31  N   UNL     1      41.415 -17.730   1.504  1.00  0.00    -0.366 N 
HETATM   32  H   UNL     1      40.853 -18.306   2.120  1.00  0.00     0.159 HD
HETATM   33  H   UNL     1      40.916 -17.050   0.943  1.00  0.00     0.159 HD
HETATM   34  O   UNL     1      43.105 -16.245   1.531  1.00  0.00    -0.268 OA
ENDBRANCH  27  30
ENDBRANCH   2  21
TORSDOF 6
ENDMDL
MODEL 8
REMARK VINA RESULT:      -8.7      3.967     10.765
REMARK  6 active torsions:
REMARK  status: ('A' for Active; 'I' for Inactive)
REMARK    1  A    between atoms: C_7  and  C_8 
REMARK    2  A    between atoms: C_12  and  S_13 
REMARK    3  A    between atoms: S_13  and  C_14 
REMARK    4  A    between atoms: C_14  and  C_15 
REMARK       I    between atoms: C_15  and  N_16 
REMARK    5  A    between atoms: N_16  and  C_17 
REMARK    6  A    between atoms: C_25  and  C_26 
REMARK       I    between atoms: C_26  and  N_27 
ROOT
HETATM    1  C   UNL     1      44.256 -13.866   6.654  1.00  0.00     0.232 C 
HETATM    2  N   UNL     1      43.405 -14.928   6.420  1.00  0.00    -0.320 N 
HETATM    3  O   UNL     1      45.253 -13.577   5.992  1.00  0.00    -0.272 OA
HETATM    4  H   UNL     1      42.604 -15.005   7.040  1.00  0.00     0.169 HD
ENDROOT
BRANCH   1   5
HETATM    5  C   UNL     1      43.859 -12.940   7.804  1.00  0.00     0.185 C 
BRANCH   5   6
HETATM    6  S   UNL     1      45.188 -12.435   8.939  1.00  0.00    -0.081 SA
BRANCH   6   7
HETATM    7  C   UNL     1      44.295 -12.161  10.382  1.00  0.00     0.185 A 
HETATM    8  N   UNL     1      44.287 -13.044  11.410  1.00  0.00    -0.253 N 
HETATM    9  N   UNL     1      43.607 -12.551  12.455  1.00  0.00    -0.152 NA
HETATM   10  H   UNL     1      44.729 -13.953  11.476  1.00  0.00     0.191 HD
HETATM   11  C   UNL     1      43.186 -11.363  11.991  1.00  0.00     0.183 A 
HETATM   12  N   UNL     1      43.613 -11.096  10.703  1.00  0.00    -0.201 NA
BRANCH  11  13
HETATM   13  C   UNL     1      42.438 -10.368  12.760  1.00  0.00     0.035 A 
HETATM   14  C   UNL     1      41.075 -10.078  12.575  1.00  0.00     0.049 A 
HETATM   15  C   UNL     1      40.435  -9.124  13.381  1.00  0.00     0.048 A 
HETATM   16 CL   UNL     1      40.093 -10.802  11.345  1.00  0.00    -0.083 Cl
HETATM   17  C   UNL     1      41.147  -8.446  14.365  1.00  0.00     0.035 A 
HETATM   18  C   UNL     1      42.499  -8.703  14.555  1.00  0.00     0.025 A 
HETATM   19 CL   UNL     1      40.353  -7.277  15.345  1.00  0.00    -0.084 Cl
HETATM   20  C   UNL     1      43.139  -9.656  13.758  1.00  0.00     0.019 A 
ENDBRANCH  11  13
ENDBRANCH   6   7
ENDBRANCH   5   6
ENDBRANCH   1   5
BRANCH   2  21
HETATM   21  C   UNL     1      43.599 -16.007   5.568  1.00  0.00     0.093 A 
HETATM   22  S   UNL     1      44.130 -17.508   6.160  1.00  0.00    -0.075 SA
HETATM   23  C   UNL     1      43.967 -18.247   4.646  1.00  0.00    -0.008 A 
HETATM   24  C   UNL     1      43.513 -17.374   3.677  1.00  0.00    -0.026 A 
HETATM   25  C   UNL     1      44.262 -19.701   4.439  1.00  0.00     0.047 C 
HETATM   26  C   UNL     1      43.298 -17.820   2.256  1.00  0.00     0.041 C 
HETATM   27  C   UNL     1      43.353 -16.034   4.199  1.00  0.00     0.072 A 
HETATM   28  C   UNL     1      43.274 -19.353   2.128  1.00  0.00     0.005 C 
HETATM   29  C   UNL     1      44.396 -20.011   2.941  1.00  0.00     0.005 C 
BRANCH  27  30
HETATM   30  C   UNL     1      42.955 -14.874   3.403  1.00  0.00     0.252 C 
HETATM   31  N   UNL     1      41.607 -14.736   3.191  1.00  0.00    -0.366 N 
HETATM   32  H   UNL     1      40.973 -15.162   3.855  1.00  0.00     0.159 HD
HETATM   33  H   UNL     1      41.339 -13.827   2.832  1.00  0.00     0.159 HD
HETATM   34  O   UNL     1      43.731 -14.023   2.987  1.00  0.00    -0.268 OA
ENDBRANCH  27  30
ENDBRANCH   2  21
TORSDOF 6
ENDMDL
MODEL 9
REMARK VINA RESULT:      -8.5      5.518      9.387
REMARK  6 active torsions:
REMARK  status: ('A' for Active; 'I' for Inactive)
REMARK    1  A    between atoms: C_7  and  C_8 
REMARK    2  A    between atoms: C_12  and  S_13 
REMARK    3  A    between atoms: S_13  and  C_14 
REMARK    4  A    between atoms: C_14  and  C_15 
REMARK       I    between atoms: C_15  and  N_16 
REMARK    5  A    between atoms: N_16  and  C_17 
REMARK    6  A    between atoms: C_25  and  C_26 
REMARK       I    between atoms: C_26  and  N_27 
ROOT
HETATM    1  C   UNL     1      40.224 -13.723   3.090  1.00  0.00     0.232 C 
HETATM    2  N   UNL     1      40.672 -13.185   1.899  1.00  0.00    -0.320 N 
HETATM    3  O   UNL     1      39.652 -14.805   3.225  1.00  0.00    -0.272 OA
HETATM    4  H   UNL     1      41.158 -12.295   1.965  1.00  0.00     0.169 HD
ENDROOT
BRANCH   1   5
HETATM    5  C   UNL     1      40.544 -12.912   4.345  1.00  0.00     0.185 C 
BRANCH   5   6
HETATM    6  S   UNL     1      42.263 -12.976   4.939  1.00  0.00    -0.081 SA
BRANCH   6   7
HETATM    7  C   UNL     1      42.481 -14.672   5.117  1.00  0.00     0.185 A 
HETATM    8  N   UNL     1      41.941 -15.369   6.146  1.00  0.00    -0.253 N 
HETATM    9  N   UNL     1      42.165 -16.683   5.998  1.00  0.00    -0.152 NA
HETATM   10  H   UNL     1      41.408 -15.032   6.938  1.00  0.00     0.191 HD
HETATM   11  C   UNL     1      42.883 -16.729   4.865  1.00  0.00     0.183 A 
HETATM   12  N   UNL     1      43.083 -15.485   4.293  1.00  0.00    -0.201 NA
BRANCH  11  13
HETATM   13  C   UNL     1      43.345 -17.948   4.200  1.00  0.00     0.035 A 
HETATM   14  C   UNL     1      44.337 -18.804   4.707  1.00  0.00     0.049 A 
HETATM   15  C   UNL     1      44.697 -19.969   4.011  1.00  0.00     0.048 A 
HETATM   16 CL   UNL     1      45.226 -18.496   6.163  1.00  0.00    -0.083 Cl
HETATM   17  C   UNL     1      44.080 -20.281   2.804  1.00  0.00     0.035 A 
HETATM   18  C   UNL     1      43.108 -19.442   2.274  1.00  0.00     0.025 A 
HETATM   19 CL   UNL     1      44.529 -21.709   1.957  1.00  0.00    -0.084 Cl
HETATM   20  C   UNL     1      42.744 -18.284   2.968  1.00  0.00     0.019 A 
ENDBRANCH  11  13
ENDBRANCH   6   7
ENDBRANCH   5   6
ENDBRANCH   1   5
BRANCH   2  21
HETATM   21  C   UNL     1      40.384 -13.606   0.608  1.00  0.00     0.093 A 
HETATM   22  S   UNL     1      41.413 -14.677  -0.217  1.00  0.00    -0.075 SA
HETATM   23  C   UNL     1      40.356 -14.796  -1.533  1.00  0.00    -0.008 A 
HETATM   24  C   UNL     1      39.217 -14.032  -1.369  1.00  0.00    -0.026 A 
HETATM   25  C   UNL     1      40.652 -15.677  -2.708  1.00  0.00     0.047 C 
HETATM   26  C   UNL     1      38.142 -13.989  -2.421  1.00  0.00     0.041 C 
HETATM   27  C   UNL     1      39.255 -13.278  -0.135  1.00  0.00     0.072 A 
HETATM   28  C   UNL     1      38.286 -15.130  -3.443  1.00  0.00     0.005 C 
HETATM   29  C   UNL     1      39.742 -15.315  -3.891  1.00  0.00     0.005 C 
BRANCH  27  30
HETATM   30  C   UNL     1      38.230 -12.324   0.287  1.00  0.00     0.252 C 
HETATM   31  N   UNL     1      38.150 -11.174  -0.456  1.00  0.00    -0.366 N 
HETATM   32  H   UNL     1      38.487 -11.197  -1.411  1.00  0.00     0.159 HD
HETATM   33  H   UNL     1      37.308 -10.636  -0.289  1.00  0.00     0.159 HD
HETATM   34  O   UNL     1      37.434 -12.523   1.197  1.00  0.00    -0.268 OA
ENDBRANCH  27  30
ENDBRANCH   2  21
TORSDOF 6
ENDMDL
MODEL 10
REMARK VINA RESULT:      -8.4      5.141      8.824
REMARK  6 active torsions:
REMARK  status: ('A' for Active; 'I' for Inactive)
REMARK    1  A    between atoms: C_7  and  C_8 
REMARK    2  A    between atoms: C_12  and  S_13 
REMARK    3  A    between atoms: S_13  and  C_14 
REMARK    4  A    between atoms: C_14  and  C_15 
REMARK       I    between atoms: C_15  and  N_16 
REMARK    5  A    between atoms: N_16  and  C_17 
REMARK    6  A    between atoms: C_25  and  C_26 
REMARK       I    between atoms: C_26  and  N_27 
ROOT
HETATM    1  C   UNL     1      40.025 -12.313   3.397  1.00  0.00     0.232 C 
HETATM    2  N   UNL     1      41.074 -12.836   2.666  1.00  0.00    -0.320 N 
HETATM    3  O   UNL     1      38.865 -12.182   3.007  1.00  0.00    -0.272 OA
HETATM    4  H   UNL     1      41.964 -12.908   3.149  1.00  0.00     0.169 HD
ENDROOT
BRANCH   1   5
HETATM    5  C   UNL     1      40.348 -11.939   4.843  1.00  0.00     0.185 C 
BRANCH   5   6
HETATM    6  S   UNL     1      40.171 -13.258   6.085  1.00  0.00    -0.081 SA
BRANCH   6   7
HETATM    7  C   UNL     1      41.522 -14.249   5.699  1.00  0.00     0.185 A 
HETATM    8  N   UNL     1      42.743 -14.062   6.257  1.00  0.00    -0.253 N 
HETATM    9  N   UNL     1      43.592 -15.027   5.875  1.00  0.00    -0.152 NA
HETATM   10  H   UNL     1      43.049 -13.343   6.902  1.00  0.00     0.191 HD
HETATM   11  C   UNL     1      42.837 -15.766   5.046  1.00  0.00     0.183 A 
HETATM   12  N   UNL     1      41.538 -15.303   4.930  1.00  0.00    -0.201 NA
BRANCH  11  13
HETATM   13  C   UNL     1      43.260 -17.002   4.388  1.00  0.00     0.035 A 
HETATM   14  C   UNL     1      43.576 -17.109   3.022  1.00  0.00     0.049 A 
HETATM   15  C   UNL     1      43.999 -18.334   2.484  1.00  0.00     0.048 A 
HETATM   16 CL   UNL     1      43.432 -15.803   1.893  1.00  0.00    -0.083 Cl
HETATM   17  C   UNL     1      44.098 -19.460   3.296  1.00  0.00     0.035 A 
HETATM   18  C   UNL     1      43.775 -19.383   4.645  1.00  0.00     0.025 A 
HETATM   19 CL   UNL     1      44.616 -20.957   2.625  1.00  0.00    -0.084 Cl
HETATM   20  C   UNL     1      43.358 -18.163   5.185  1.00  0.00     0.019 A 
ENDBRANCH  11  13
ENDBRANCH   6   7
ENDBRANCH   5   6
ENDBRANCH   1   5
BRANCH   2  21
HETATM   21  C   UNL     1      41.118 -13.100   1.304  1.00  0.00     0.093 A 
HETATM   22  S   UNL     1      41.977 -12.092   0.240  1.00  0.00    -0.075 SA
HETATM   23  C   UNL     1      41.686 -13.111  -1.080  1.00  0.00    -0.008 A 
HETATM   24  C   UNL     1      40.939 -14.220  -0.738  1.00  0.00    -0.026 A 
HETATM   25  C   UNL     1      42.231 -12.814  -2.443  1.00  0.00     0.047 C 
HETATM   26  C   UNL     1      40.561 -15.259  -1.760  1.00  0.00     0.041 C 
HETATM   27  C   UNL     1      40.546 -14.190   0.654  1.00  0.00     0.072 A 
HETATM   28  C   UNL     1      41.391 -15.130  -3.048  1.00  0.00     0.005 C 
HETATM   29  C   UNL     1      41.520 -13.671  -3.501  1.00  0.00     0.005 C 
BRANCH  27  30
HETATM   30  C   UNL     1      39.692 -15.187   1.299  1.00  0.00     0.252 C 
HETATM   31  N   UNL     1      38.357 -14.877   1.351  1.00  0.00    -0.366 N 
HETATM   32  H   UNL     1      37.988 -14.234   0.661  1.00  0.00     0.159 HD
HETATM   33  H   UNL     1      37.764 -15.660   1.598  1.00  0.00     0.159 HD
HETATM   34  O   UNL     1      40.088 -16.266   1.722  1.00  0.00    -0.268 OA
ENDBRANCH  27  30
ENDBRANCH   2  21
TORSDOF 6
ENDMDL
