MODEL 1
REMARK VINA RESULT:      -8.4      0.000      0.000
REMARK  3 active torsions:
REMARK  status: ('A' for Active; 'I' for Inactive)
REMARK    1  A    between atoms: C_3  and  N_4 
REMARK       I    between atoms: N_4  and  C_5 
REMARK    2  A    between atoms: C_5  and  C_6 
REMARK    3  A    between atoms: C_6  and  C_7 
ROOT
HETATM    1  C   UNL     1      41.462 -17.479   5.024  1.00  0.00     0.286 C 
HETATM    2  N   UNL     1      42.203 -16.547   4.072  1.00  0.00    -0.056 N 
HETATM    3  H   UNL     1      42.952 -16.097   4.642  1.00  0.00     0.278 HD
HETATM    4  H   UNL     1      42.687 -17.085   3.344  1.00  0.00     0.278 HD
HETATM    5  C   UNL     1      41.296 -15.503   3.473  1.00  0.00     0.209 C 
HETATM    6  C   UNL     1      40.660 -14.668   4.616  1.00  0.00     0.115 C 
HETATM    7  N   UNL     1      40.069 -15.514   5.653  1.00  0.00    -0.353 N 
HETATM    8  C   UNL     1      40.584 -16.726   6.048  1.00  0.00     0.249 C 
HETATM    9  O   UNL     1      40.261 -17.208   7.127  1.00  0.00    -0.271 OA
HETATM   10  C   UNL     1      42.087 -14.650   2.482  1.00  0.00     0.035 C 
HETATM   11  C   UNL     1      43.067 -13.696   3.158  1.00  0.00     0.002 C 
HETATM   12  C   UNL     1      42.373 -12.837   4.208  1.00  0.00     0.002 C 
HETATM   13  C   UNL     1      41.660 -13.690   5.252  1.00  0.00     0.027 C 
HETATM   14  H   UNL     1      39.491 -15.070   6.363  1.00  0.00     0.163 HD
ENDROOT
BRANCH   1  15
HETATM   15  C   UNL     1      42.429 -18.446   5.718  1.00  0.00     0.146 C 
BRANCH  15  16
HETATM   16  C   UNL     1      43.853 -17.984   5.521  1.00  0.00     0.224 C 
HETATM   17  N   UNL     1      44.765 -18.736   4.850  1.00  0.00    -0.327 N 
HETATM   18  H   UNL     1      45.717 -18.410   4.989  1.00  0.00     0.169 HD
HETATM   19  O   UNL     1      44.189 -16.897   6.011  1.00  0.00    -0.273 OA
BRANCH  17  20
HETATM   20  C   UNL     1      44.626 -19.902   4.070  1.00  0.00     0.040 A 
HETATM   21  C   UNL     1      44.223 -19.769   2.724  1.00  0.00    -0.035 A 
HETATM   22  C   UNL     1      43.981 -18.431   2.078  1.00  0.00     0.050 C 
HETATM   23  C   UNL     1      44.048 -20.924   1.940  1.00  0.00     0.009 A 
HETATM   24  C   UNL     1      44.259 -22.191   2.477  1.00  0.00     0.001 A 
HETATM   25  C   UNL     1      44.632 -22.322   3.808  1.00  0.00     0.002 A 
HETATM   26  C   UNL     1      44.806 -21.185   4.602  1.00  0.00     0.030 A 
ENDBRANCH  17  20
ENDBRANCH  15  16
ENDBRANCH   1  15
TORSDOF 3
ENDMDL
MODEL 2
REMARK VINA RESULT:      -8.3      1.461      2.163
REMARK  3 active torsions:
REMARK  status: ('A' for Active; 'I' for Inactive)
REMARK    1  A    between atoms: C_3  and  N_4 
REMARK       I    between atoms: N_4  and  C_5 
REMARK    2  A    between atoms: C_5  and  C_6 
REMARK    3  A    between atoms: C_6  and  C_7 
ROOT
HETATM    1  C   UNL     1      42.533 -17.910   6.167  1.00  0.00     0.286 C 
HETATM    2  N   UNL     1      42.680 -17.365   4.751  1.00  0.00    -0.056 N 
HETATM    3  H   UNL     1      43.697 -17.174   4.625  1.00  0.00     0.278 HD
HETATM    4  H   UNL     1      42.439 -18.085   4.060  1.00  0.00     0.278 HD
HETATM    5  C   UNL     1      41.875 -16.108   4.536  1.00  0.00     0.209 C 
HETATM    6  C   UNL     1      42.340 -15.030   5.551  1.00  0.00     0.115 C 
HETATM    7  N   UNL     1      42.377 -15.542   6.921  1.00  0.00    -0.353 N 
HETATM    8  C   UNL     1      42.725 -16.829   7.255  1.00  0.00     0.249 C 
HETATM    9  O   UNL     1      43.071 -17.095   8.400  1.00  0.00    -0.271 OA
HETATM   10  C   UNL     1      42.015 -15.657   3.083  1.00  0.00     0.035 C 
HETATM   11  C   UNL     1      43.387 -15.070   2.764  1.00  0.00     0.002 C 
HETATM   12  C   UNL     1      43.755 -13.955   3.735  1.00  0.00     0.002 C 
HETATM   13  C   UNL     1      43.706 -14.430   5.183  1.00  0.00     0.027 C 
HETATM   14  H   UNL     1      42.515 -14.877   7.678  1.00  0.00     0.163 HD
ENDROOT
BRANCH   1  15
HETATM   15  C   UNL     1      43.459 -19.110   6.398  1.00  0.00     0.146 C 
BRANCH  15  16
HETATM   16  C   UNL     1      44.849 -18.793   5.899  1.00  0.00     0.224 C 
HETATM   17  N   UNL     1      45.362 -19.377   4.785  1.00  0.00    -0.327 N 
HETATM   18  H   UNL     1      46.365 -19.244   4.700  1.00  0.00     0.169 HD
HETATM   19  O   UNL     1      45.537 -17.993   6.550  1.00  0.00    -0.273 OA
BRANCH  17  20
HETATM   20  C   UNL     1      44.766 -20.176   3.787  1.00  0.00     0.040 A 
HETATM   21  C   UNL     1      44.772 -21.577   3.950  1.00  0.00    -0.035 A 
HETATM   22  C   UNL     1      45.348 -22.248   5.169  1.00  0.00     0.050 C 
HETATM   23  C   UNL     1      44.212 -22.391   2.949  1.00  0.00     0.009 A 
HETATM   24  C   UNL     1      43.660 -21.831   1.799  1.00  0.00     0.001 A 
HETATM   25  C   UNL     1      43.677 -20.454   1.628  1.00  0.00     0.002 A 
HETATM   26  C   UNL     1      44.233 -19.631   2.612  1.00  0.00     0.030 A 
ENDBRANCH  17  20
ENDBRANCH  15  16
ENDBRANCH   1  15
TORSDOF 3
ENDMDL
MODEL 3
REMARK VINA RESULT:      -7.8      1.607      2.291
REMARK  3 active torsions:
REMARK  status: ('A' for Active; 'I' for Inactive)
REMARK    1  A    between atoms: C_3  and  N_4 
REMARK       I    between atoms: N_4  and  C_5 
REMARK    2  A    between atoms: C_5  and  C_6 
REMARK    3  A    between atoms: C_6  and  C_7 
ROOT
HETATM    1  C   UNL     1      40.907 -16.951   3.163  1.00  0.00     0.286 C 
HETATM    2  N   UNL     1      40.900 -15.453   2.884  1.00  0.00    -0.056 N 
HETATM    3  H   UNL     1      41.896 -15.149   2.939  1.00  0.00     0.278 HD
HETATM    4  H   UNL     1      40.601 -15.267   1.920  1.00  0.00     0.278 HD
HETATM    5  C   UNL     1      40.058 -14.691   3.876  1.00  0.00     0.209 C 
HETATM    6  C   UNL     1      40.608 -14.943   5.304  1.00  0.00     0.115 C 
HETATM    7  N   UNL     1      40.793 -16.368   5.580  1.00  0.00    -0.353 N 
HETATM    8  C   UNL     1      41.193 -17.290   4.643  1.00  0.00     0.249 C 
HETATM    9  O   UNL     1      41.658 -18.367   5.000  1.00  0.00    -0.271 OA
HETATM   10  C   UNL     1      40.041 -13.211   3.497  1.00  0.00     0.035 C 
HETATM   11  C   UNL     1      41.364 -12.503   3.775  1.00  0.00     0.002 C 
HETATM   12  C   UNL     1      41.813 -12.708   5.217  1.00  0.00     0.002 C 
HETATM   13  C   UNL     1      41.920 -14.188   5.569  1.00  0.00     0.027 C 
HETATM   14  H   UNL     1      40.998 -16.649   6.537  1.00  0.00     0.163 HD
ENDROOT
BRANCH   1  15
HETATM   15  C   UNL     1      41.871 -17.686   2.223  1.00  0.00     0.146 C 
BRANCH  15  16
HETATM   16  C   UNL     1      43.290 -17.245   2.491  1.00  0.00     0.224 C 
HETATM   17  N   UNL     1      44.252 -18.122   2.881  1.00  0.00    -0.327 N 
HETATM   18  H   UNL     1      45.083 -17.658   3.236  1.00  0.00     0.169 HD
HETATM   19  O   UNL     1      43.563 -16.043   2.369  1.00  0.00    -0.273 OA
BRANCH  17  20
HETATM   20  C   UNL     1      44.267 -19.531   2.942  1.00  0.00     0.040 A 
HETATM   21  C   UNL     1      44.632 -20.151   4.156  1.00  0.00    -0.035 A 
HETATM   22  C   UNL     1      44.960 -19.367   5.399  1.00  0.00     0.050 C 
HETATM   23  C   UNL     1      44.685 -21.555   4.224  1.00  0.00     0.009 A 
HETATM   24  C   UNL     1      44.389 -22.336   3.111  1.00  0.00     0.001 A 
HETATM   25  C   UNL     1      44.054 -21.725   1.910  1.00  0.00     0.002 A 
HETATM   26  C   UNL     1      44.001 -20.331   1.824  1.00  0.00     0.030 A 
ENDBRANCH  17  20
ENDBRANCH  15  16
ENDBRANCH   1  15
TORSDOF 3
ENDMDL
MODEL 4
REMARK VINA RESULT:      -7.7      2.234      2.883
REMARK  3 active torsions:
REMARK  status: ('A' for Active; 'I' for Inactive)
REMARK    1  A    between atoms: C_3  and  N_4 
REMARK       I    between atoms: N_4  and  C_5 
REMARK    2  A    between atoms: C_5  and  C_6 
REMARK    3  A    between atoms: C_6  and  C_7 
ROOT
HETATM    1  C   UNL     1      42.026 -16.375   2.609  1.00  0.00     0.286 C 
HETATM    2  N   UNL     1      42.513 -15.345   3.621  1.00  0.00    -0.056 N 
HETATM    3  H   UNL     1      42.251 -15.721   4.558  1.00  0.00     0.278 HD
HETATM    4  H   UNL     1      43.538 -15.289   3.616  1.00  0.00     0.278 HD
HETATM    5  C   UNL     1      41.889 -13.990   3.403  1.00  0.00     0.209 C 
HETATM    6  C   UNL     1      40.346 -14.121   3.506  1.00  0.00     0.115 C 
HETATM    7  N   UNL     1      39.828 -15.208   2.676  1.00  0.00    -0.353 N 
HETATM    8  C   UNL     1      40.489 -16.393   2.455  1.00  0.00     0.249 C 
HETATM    9  O   UNL     1      39.873 -17.375   2.055  1.00  0.00    -0.271 OA
HETATM   10  C   UNL     1      42.470 -12.994   4.405  1.00  0.00     0.035 C 
HETATM   11  C   UNL     1      41.972 -13.214   5.830  1.00  0.00     0.002 C 
HETATM   12  C   UNL     1      40.449 -13.244   5.889  1.00  0.00     0.002 C 
HETATM   13  C   UNL     1      39.870 -14.303   4.956  1.00  0.00     0.027 C 
HETATM   14  H   UNL     1      38.821 -15.278   2.550  1.00  0.00     0.163 HD
ENDROOT
BRANCH   1  15
HETATM   15  C   UNL     1      42.574 -17.771   2.932  1.00  0.00     0.146 C 
BRANCH  15  16
HETATM   16  C   UNL     1      43.545 -18.205   1.861  1.00  0.00     0.224 C 
HETATM   17  N   UNL     1      44.424 -19.222   2.059  1.00  0.00    -0.327 N 
HETATM   18  H   UNL     1      45.152 -19.253   1.351  1.00  0.00     0.169 HD
HETATM   19  O   UNL     1      43.544 -17.591   0.785  1.00  0.00    -0.273 OA
BRANCH  17  20
HETATM   20  C   UNL     1      44.537 -20.176   3.092  1.00  0.00     0.040 A 
HETATM   21  C   UNL     1      44.401 -21.542   2.766  1.00  0.00    -0.035 A 
HETATM   22  C   UNL     1      44.187 -22.022   1.355  1.00  0.00     0.050 C 
HETATM   23  C   UNL     1      44.477 -22.505   3.789  1.00  0.00     0.009 A 
HETATM   24  C   UNL     1      44.677 -22.127   5.113  1.00  0.00     0.001 A 
HETATM   25  C   UNL     1      44.786 -20.781   5.436  1.00  0.00     0.002 A 
HETATM   26  C   UNL     1      44.709 -19.811   4.433  1.00  0.00     0.030 A 
ENDBRANCH  17  20
ENDBRANCH  15  16
ENDBRANCH   1  15
TORSDOF 3
ENDMDL
MODEL 5
REMARK VINA RESULT:      -7.6      2.223      3.672
REMARK  3 active torsions:
REMARK  status: ('A' for Active; 'I' for Inactive)
REMARK    1  A    between atoms: C_3  and  N_4 
REMARK       I    between atoms: N_4  and  C_5 
REMARK    2  A    between atoms: C_5  and  C_6 
REMARK    3  A    between atoms: C_6  and  C_7 
ROOT
HETATM    1  C   UNL     1      42.047 -14.090   4.451  1.00  0.00     0.286 C 
HETATM    2  N   UNL     1      40.710 -14.352   3.770  1.00  0.00    -0.056 N 
HETATM    3  H   UNL     1      40.856 -15.192   3.170  1.00  0.00     0.278 HD
HETATM    4  H   UNL     1      39.999 -14.619   4.461  1.00  0.00     0.278 HD
HETATM    5  C   UNL     1      40.253 -13.181   2.937  1.00  0.00     0.209 C 
HETATM    6  C   UNL     1      41.327 -12.878   1.859  1.00  0.00     0.115 C 
HETATM    7  N   UNL     1      42.669 -12.775   2.431  1.00  0.00    -0.353 N 
HETATM    8  C   UNL     1      43.118 -13.529   3.489  1.00  0.00     0.249 C 
HETATM    9  O   UNL     1      44.321 -13.650   3.691  1.00  0.00    -0.271 OA
HETATM   10  C   UNL     1      38.880 -13.485   2.341  1.00  0.00     0.035 C 
HETATM   11  C   UNL     1      38.926 -14.518   1.220  1.00  0.00     0.002 C 
HETATM   12  C   UNL     1      39.931 -14.127   0.143  1.00  0.00     0.002 C 
HETATM   13  C   UNL     1      41.324 -13.913   0.724  1.00  0.00     0.027 C 
HETATM   14  H   UNL     1      43.418 -12.424   1.838  1.00  0.00     0.163 HD
ENDROOT
BRANCH   1  15
HETATM   15  C   UNL     1      42.551 -15.339   5.184  1.00  0.00     0.146 C 
BRANCH  15  16
HETATM   16  C   UNL     1      41.420 -16.324   5.363  1.00  0.00     0.224 C 
HETATM   17  N   UNL     1      41.420 -17.536   4.748  1.00  0.00    -0.327 N 
HETATM   18  H   UNL     1      40.512 -17.989   4.778  1.00  0.00     0.169 HD
HETATM   19  O   UNL     1      40.462 -15.993   6.075  1.00  0.00    -0.273 OA
BRANCH  17  20
HETATM   20  C   UNL     1      42.422 -18.225   4.034  1.00  0.00     0.040 A 
HETATM   21  C   UNL     1      42.382 -18.203   2.623  1.00  0.00    -0.035 A 
HETATM   22  C   UNL     1      41.340 -17.436   1.854  1.00  0.00     0.050 C 
HETATM   23  C   UNL     1      43.355 -18.912   1.895  1.00  0.00     0.009 A 
HETATM   24  C   UNL     1      44.348 -19.637   2.547  1.00  0.00     0.001 A 
HETATM   25  C   UNL     1      44.372 -19.678   3.935  1.00  0.00     0.002 A 
HETATM   26  C   UNL     1      43.411 -18.983   4.674  1.00  0.00     0.030 A 
ENDBRANCH  17  20
ENDBRANCH  15  16
ENDBRANCH   1  15
TORSDOF 3
ENDMDL
MODEL 6
REMARK VINA RESULT:      -7.5      3.360      4.743
REMARK  3 active torsions:
REMARK  status: ('A' for Active; 'I' for Inactive)
REMARK    1  A    between atoms: C_3  and  N_4 
REMARK       I    between atoms: N_4  and  C_5 
REMARK    2  A    between atoms: C_5  and  C_6 
REMARK    3  A    between atoms: C_6  and  C_7 
ROOT
HETATM    1  C   UNL     1      41.566 -14.859   1.389  1.00  0.00     0.286 C 
HETATM    2  N   UNL     1      41.209 -15.281  -0.031  1.00  0.00    -0.056 N 
HETATM    3  H   UNL     1      42.117 -15.464  -0.510  1.00  0.00     0.278 HD
HETATM    4  H   UNL     1      40.707 -16.177  -0.027  1.00  0.00     0.278 HD
HETATM    5  C   UNL     1      40.429 -14.220  -0.765  1.00  0.00     0.209 C 
HETATM    6  C   UNL     1      41.270 -12.917  -0.813  1.00  0.00     0.115 C 
HETATM    7  N   UNL     1      41.784 -12.542   0.504  1.00  0.00    -0.353 N 
HETATM    8  C   UNL     1      42.180 -13.443   1.463  1.00  0.00     0.249 C 
HETATM    9  O   UNL     1      42.908 -13.083   2.382  1.00  0.00    -0.271 OA
HETATM   10  C   UNL     1      40.048 -14.735  -2.151  1.00  0.00     0.035 C 
HETATM   11  C   UNL     1      41.231 -14.809  -3.112  1.00  0.00     0.002 C 
HETATM   12  C   UNL     1      41.969 -13.478  -3.191  1.00  0.00     0.002 C 
HETATM   13  C   UNL     1      42.431 -13.007  -1.816  1.00  0.00     0.027 C 
HETATM   14  H   UNL     1      42.212 -11.625   0.609  1.00  0.00     0.163 HD
ENDROOT
BRANCH   1  15
HETATM   15  C   UNL     1      42.467 -15.898   2.066  1.00  0.00     0.146 C 
BRANCH  15  16
HETATM   16  C   UNL     1      41.846 -16.353   3.365  1.00  0.00     0.224 C 
HETATM   17  N   UNL     1      42.022 -17.613   3.842  1.00  0.00    -0.327 N 
HETATM   18  H   UNL     1      41.375 -17.841   4.592  1.00  0.00     0.169 HD
HETATM   19  O   UNL     1      41.139 -15.549   3.990  1.00  0.00    -0.273 OA
BRANCH  17  20
HETATM   20  C   UNL     1      42.881 -18.656   3.439  1.00  0.00     0.040 A 
HETATM   21  C   UNL     1      43.952 -19.014   4.285  1.00  0.00    -0.035 A 
HETATM   22  C   UNL     1      44.185 -18.356   5.620  1.00  0.00     0.050 C 
HETATM   23  C   UNL     1      44.838 -20.030   3.884  1.00  0.00     0.009 A 
HETATM   24  C   UNL     1      44.675 -20.679   2.663  1.00  0.00     0.001 A 
HETATM   25  C   UNL     1      43.635 -20.310   1.821  1.00  0.00     0.002 A 
HETATM   26  C   UNL     1      42.748 -19.300   2.203  1.00  0.00     0.030 A 
ENDBRANCH  17  20
ENDBRANCH  15  16
ENDBRANCH   1  15
TORSDOF 3
ENDMDL
MODEL 7
REMARK VINA RESULT:      -7.4      1.586      6.656
REMARK  3 active torsions:
REMARK  status: ('A' for Active; 'I' for Inactive)
REMARK    1  A    between atoms: C_3  and  N_4 
REMARK       I    between atoms: N_4  and  C_5 
REMARK    2  A    between atoms: C_5  and  C_6 
REMARK    3  A    between atoms: C_6  and  C_7 
ROOT
HETATM    1  C   UNL     1      43.060 -18.041   4.101  1.00  0.00     0.286 C 
HETATM    2  N   UNL     1      43.252 -19.313   3.283  1.00  0.00    -0.056 N 
HETATM    3  H   UNL     1      42.636 -20.030   3.723  1.00  0.00     0.278 HD
HETATM    4  H   UNL     1      42.898 -19.184   2.328  1.00  0.00     0.278 HD
HETATM    5  C   UNL     1      44.686 -19.778   3.278  1.00  0.00     0.209 C 
HETATM    6  C   UNL     1      45.139 -20.036   4.739  1.00  0.00     0.115 C 
HETATM    7  N   UNL     1      44.833 -18.908   5.619  1.00  0.00    -0.353 N 
HETATM    8  C   UNL     1      43.717 -18.115   5.498  1.00  0.00     0.249 C 
HETATM    9  O   UNL     1      43.344 -17.431   6.444  1.00  0.00    -0.271 OA
HETATM   10  C   UNL     1      44.817 -21.012   2.387  1.00  0.00     0.035 C 
HETATM   11  C   UNL     1      44.204 -22.267   3.002  1.00  0.00     0.002 C 
HETATM   12  C   UNL     1      44.751 -22.524   4.402  1.00  0.00     0.002 C 
HETATM   13  C   UNL     1      44.537 -21.325   5.319  1.00  0.00     0.027 C 
HETATM   14  H   UNL     1      45.228 -18.910   6.557  1.00  0.00     0.163 HD
ENDROOT
BRANCH   1  15
HETATM   15  C   UNL     1      41.577 -17.663   4.198  1.00  0.00     0.146 C 
BRANCH  15  16
HETATM   16  C   UNL     1      41.145 -16.939   2.945  1.00  0.00     0.224 C 
HETATM   17  N   UNL     1      40.808 -15.623   2.957  1.00  0.00    -0.327 N 
HETATM   18  H   UNL     1      40.332 -15.334   2.107  1.00  0.00     0.169 HD
HETATM   19  O   UNL     1      41.079 -17.585   1.889  1.00  0.00    -0.273 OA
BRANCH  17  20
HETATM   20  C   UNL     1      40.942 -14.630   3.949  1.00  0.00     0.040 A 
HETATM   21  C   UNL     1      42.174 -13.950   4.062  1.00  0.00    -0.035 A 
HETATM   22  C   UNL     1      43.332 -14.212   3.135  1.00  0.00     0.050 C 
HETATM   23  C   UNL     1      42.336 -12.980   5.067  1.00  0.00     0.009 A 
HETATM   24  C   UNL     1      41.302 -12.689   5.953  1.00  0.00     0.001 A 
HETATM   25  C   UNL     1      40.099 -13.376   5.857  1.00  0.00     0.002 A 
HETATM   26  C   UNL     1      39.923 -14.346   4.866  1.00  0.00     0.030 A 
ENDBRANCH  17  20
ENDBRANCH  15  16
ENDBRANCH   1  15
TORSDOF 3
ENDMDL
MODEL 8
REMARK VINA RESULT:      -7.4      3.278      4.472
REMARK  3 active torsions:
REMARK  status: ('A' for Active; 'I' for Inactive)
REMARK    1  A    between atoms: C_3  and  N_4 
REMARK       I    between atoms: N_4  and  C_5 
REMARK    2  A    between atoms: C_5  and  C_6 
REMARK    3  A    between atoms: C_6  and  C_7 
ROOT
HETATM    1  C   UNL     1      40.696 -14.623   2.655  1.00  0.00     0.286 C 
HETATM    2  N   UNL     1      39.961 -13.290   2.596  1.00  0.00    -0.056 N 
HETATM    3  H   UNL     1      39.025 -13.462   3.022  1.00  0.00     0.278 HD
HETATM    4  H   UNL     1      40.421 -12.596   3.196  1.00  0.00     0.278 HD
HETATM    5  C   UNL     1      39.812 -12.781   1.184  1.00  0.00     0.209 C 
HETATM    6  C   UNL     1      39.037 -13.832   0.347  1.00  0.00     0.115 C 
HETATM    7  N   UNL     1      39.599 -15.175   0.490  1.00  0.00    -0.353 N 
HETATM    8  C   UNL     1      40.148 -15.662   1.651  1.00  0.00     0.249 C 
HETATM    9  O   UNL     1      40.277 -16.871   1.811  1.00  0.00    -0.271 OA
HETATM   10  C   UNL     1      39.130 -11.415   1.205  1.00  0.00     0.035 C 
HETATM   11  C   UNL     1      37.644 -11.489   1.545  1.00  0.00     0.002 C 
HETATM   12  C   UNL     1      36.913 -12.468   0.633  1.00  0.00     0.002 C 
HETATM   13  C   UNL     1      37.538 -13.858   0.683  1.00  0.00     0.027 C 
HETATM   14  H   UNL     1      39.265 -15.904  -0.137  1.00  0.00     0.163 HD
ENDROOT
BRANCH   1  15
HETATM   15  C   UNL     1      40.719 -15.181   4.083  1.00  0.00     0.146 C 
BRANCH  15  16
HETATM   16  C   UNL     1      42.069 -14.936   4.712  1.00  0.00     0.224 C 
HETATM   17  N   UNL     1      43.132 -15.748   4.469  1.00  0.00    -0.327 N 
HETATM   18  H   UNL     1      43.896 -15.598   5.121  1.00  0.00     0.169 HD
HETATM   19  O   UNL     1      42.189 -13.978   5.489  1.00  0.00    -0.273 OA
BRANCH  17  20
HETATM   20  C   UNL     1      43.324 -16.784   3.531  1.00  0.00     0.040 A 
HETATM   21  C   UNL     1      43.112 -18.116   3.945  1.00  0.00    -0.035 A 
HETATM   22  C   UNL     1      42.645 -18.470   5.332  1.00  0.00     0.050 C 
HETATM   23  C   UNL     1      43.331 -19.164   3.032  1.00  0.00     0.009 A 
HETATM   24  C   UNL     1      43.760 -18.904   1.734  1.00  0.00     0.001 A 
HETATM   25  C   UNL     1      43.991 -17.594   1.335  1.00  0.00     0.002 A 
HETATM   26  C   UNL     1      43.783 -16.541   2.231  1.00  0.00     0.030 A 
ENDBRANCH  17  20
ENDBRANCH  15  16
ENDBRANCH   1  15
TORSDOF 3
ENDMDL
MODEL 9
REMARK VINA RESULT:      -7.3      1.994      3.301
REMARK  3 active torsions:
REMARK  status: ('A' for Active; 'I' for Inactive)
REMARK    1  A    between atoms: C_3  and  N_4 
REMARK       I    between atoms: N_4  and  C_5 
REMARK    2  A    between atoms: C_5  and  C_6 
REMARK    3  A    between atoms: C_6  and  C_7 
ROOT
HETATM    1  C   UNL     1      43.216 -14.540   5.498  1.00  0.00     0.286 C 
HETATM    2  N   UNL     1      42.118 -13.786   6.239  1.00  0.00    -0.056 N 
HETATM    3  H   UNL     1      41.241 -14.322   6.069  1.00  0.00     0.278 HD
HETATM    4  H   UNL     1      42.278 -13.819   7.252  1.00  0.00     0.278 HD
HETATM    5  C   UNL     1      41.972 -12.366   5.753  1.00  0.00     0.209 C 
HETATM    6  C   UNL     1      41.649 -12.381   4.236  1.00  0.00     0.115 C 
HETATM    7  N   UNL     1      42.576 -13.226   3.482  1.00  0.00    -0.353 N 
HETATM    8  C   UNL     1      43.122 -14.392   3.962  1.00  0.00     0.249 C 
HETATM    9  O   UNL     1      43.596 -15.214   3.186  1.00  0.00    -0.271 OA
HETATM   10  C   UNL     1      40.907 -11.652   6.582  1.00  0.00     0.035 C 
HETATM   11  C   UNL     1      39.487 -12.115   6.266  1.00  0.00     0.002 C 
HETATM   12  C   UNL     1      39.191 -12.025   4.774  1.00  0.00     0.002 C 
HETATM   13  C   UNL     1      40.203 -12.815   3.950  1.00  0.00     0.027 C 
HETATM   14  H   UNL     1      42.549 -13.180   2.466  1.00  0.00     0.163 HD
ENDROOT
BRANCH   1  15
HETATM   15  C   UNL     1      43.256 -16.014   5.918  1.00  0.00     0.146 C 
BRANCH  15  16
HETATM   16  C   UNL     1      41.937 -16.678   5.602  1.00  0.00     0.224 C 
HETATM   17  N   UNL     1      41.849 -17.725   4.740  1.00  0.00    -0.327 N 
HETATM   18  H   UNL     1      40.893 -17.919   4.457  1.00  0.00     0.169 HD
HETATM   19  O   UNL     1      40.913 -16.228   6.133  1.00  0.00    -0.273 OA
BRANCH  17  20
HETATM   20  C   UNL     1      42.839 -18.526   4.134  1.00  0.00     0.040 A 
HETATM   21  C   UNL     1      42.843 -18.646   2.728  1.00  0.00    -0.035 A 
HETATM   22  C   UNL     1      41.861 -17.917   1.850  1.00  0.00     0.050 C 
HETATM   23  C   UNL     1      43.803 -19.467   2.109  1.00  0.00     0.009 A 
HETATM   24  C   UNL     1      44.741 -20.165   2.865  1.00  0.00     0.001 A 
HETATM   25  C   UNL     1      44.721 -20.065   4.250  1.00  0.00     0.002 A 
HETATM   26  C   UNL     1      43.771 -19.257   4.881  1.00  0.00     0.030 A 
ENDBRANCH  17  20
ENDBRANCH  15  16
ENDBRANCH   1  15
TORSDOF 3
ENDMDL
MODEL 10
REMARK VINA RESULT:      -7.3      3.778      5.081
REMARK  3 active torsions:
REMARK  status: ('A' for Active; 'I' for Inactive)
REMARK    1  A    between atoms: C_3  and  N_4 
REMARK       I    between atoms: N_4  and  C_5 
REMARK    2  A    between atoms: C_5  and  C_6 
REMARK    3  A    between atoms: C_6  and  C_7 
ROOT
HETATM    1  C   UNL     1      40.846 -14.848   0.976  1.00  0.00     0.286 C 
HETATM    2  N   UNL     1      41.745 -13.985   0.098  1.00  0.00    -0.056 N 
HETATM    3  H   UNL     1      41.658 -13.015   0.469  1.00  0.00     0.278 HD
HETATM    4  H   UNL     1      42.729 -14.248   0.220  1.00  0.00     0.278 HD
HETATM    5  C   UNL     1      41.340 -14.033  -1.354  1.00  0.00     0.209 C 
HETATM    6  C   UNL     1      39.873 -13.546  -1.487  1.00  0.00     0.115 C 
HETATM    7  N   UNL     1      38.980 -14.224  -0.549  1.00  0.00    -0.353 N 
HETATM    8  C   UNL     1      39.341 -14.611   0.720  1.00  0.00     0.249 C 
HETATM    9  O   UNL     1      38.479 -14.848   1.559  1.00  0.00    -0.271 OA
HETATM   10  C   UNL     1      42.320 -13.204  -2.182  1.00  0.00     0.035 C 
HETATM   11  C   UNL     1      42.157 -11.700  -1.981  1.00  0.00     0.002 C 
HETATM   12  C   UNL     1      40.716 -11.261  -2.212  1.00  0.00     0.002 C 
HETATM   13  C   UNL     1      39.745 -12.024  -1.318  1.00  0.00     0.027 C 
HETATM   14  H   UNL     1      37.976 -14.094  -0.661  1.00  0.00     0.163 HD
ENDROOT
BRANCH   1  15
HETATM   15  C   UNL     1      41.195 -14.680   2.460  1.00  0.00     0.146 C 
BRANCH  15  16
HETATM   16  C   UNL     1      42.653 -14.313   2.609  1.00  0.00     0.224 C 
HETATM   17  N   UNL     1      43.613 -15.254   2.808  1.00  0.00    -0.327 N 
HETATM   18  H   UNL     1      44.496 -14.854   3.110  1.00  0.00     0.169 HD
HETATM   19  O   UNL     1      42.962 -13.114   2.571  1.00  0.00    -0.273 OA
BRANCH  17  20
HETATM   20  C   UNL     1      43.575 -16.662   2.734  1.00  0.00     0.040 A 
HETATM   21  C   UNL     1      43.501 -17.400   3.934  1.00  0.00    -0.035 A 
HETATM   22  C   UNL     1      43.415 -16.741   5.286  1.00  0.00     0.050 C 
HETATM   23  C   UNL     1      43.495 -18.805   3.881  1.00  0.00     0.009 A 
HETATM   24  C   UNL     1      43.568 -19.474   2.662  1.00  0.00     0.001 A 
HETATM   25  C   UNL     1      43.666 -18.748   1.483  1.00  0.00     0.002 A 
HETATM   26  C   UNL     1      43.677 -17.351   1.519  1.00  0.00     0.030 A 
ENDBRANCH  17  20
ENDBRANCH  15  16
ENDBRANCH   1  15
TORSDOF 3
ENDMDL
