MODEL 1
REMARK VINA RESULT:      -8.9      0.000      0.000
REMARK  5 active torsions:
REMARK  status: ('A' for Active; 'I' for Inactive)
REMARK    1  A    between atoms: C_2  and  C_3 
REMARK    2  A    between atoms: C_3  and  C_4 
REMARK    3  A    between atoms: C_8  and  N_9 
REMARK       I    between atoms: N_9  and  C_10 
REMARK    4  A    between atoms: C_10  and  C_11 
REMARK    5  A    between atoms: N_13  and  C_14 
ROOT
HETATM    1  C   UNL     1      43.666 -16.798   6.723  1.00  0.00     0.106 C 
HETATM    2  C   UNL     1      42.284 -16.784   6.084  1.00  0.00     0.148 C 
HETATM    3  N   UNL     1      42.238 -15.568   5.319  1.00  0.00    -0.299 N 
HETATM    4  C   UNL     1      43.185 -14.650   5.787  1.00  0.00     0.226 C 
HETATM    5  O   UNL     1      43.387 -13.487   5.470  1.00  0.00    -0.273 OA
HETATM    6  C   UNL     1      43.967 -15.317   6.893  1.00  0.00     0.119 C 
ENDROOT
BRANCH   1   7
HETATM    7  C   UNL     1      43.659 -17.548   8.042  1.00  0.00     0.242 C 
HETATM    8  N   UNL     1      43.973 -18.874   8.113  1.00  0.00    -0.156 N 
HETATM    9  H   UNL     1      44.004 -19.237   9.057  1.00  0.00     0.187 HD
HETATM   10  O   UNL     1      43.393 -16.979   9.106  1.00  0.00    -0.272 OA
BRANCH   8  11
HETATM   11  C   UNL     1      44.134 -19.730   7.058  1.00  0.00     0.725 A 
HETATM   12  N   UNL     1      43.721 -21.035   7.109  1.00  0.00    -0.106 N 
HETATM   13  N   UNL     1      43.988 -21.683   5.965  1.00  0.00    -0.144 NA
HETATM   14  H   UNL     1      43.278 -21.535   7.869  1.00  0.00     0.208 HD
HETATM   15  C   UNL     1      44.550 -20.713   5.236  1.00  0.00     0.166 A 
HETATM   16  N   UNL     1      44.652 -19.504   5.876  1.00  0.00    -0.046 NA
BRANCH  15  17
HETATM   17  C   UNL     1      45.046 -20.920   3.848  1.00  0.00     0.087 C 
BRANCH  17  18
HETATM   18  C   UNL     1      43.948 -20.772   2.779  1.00  0.00    -0.016 C 
HETATM   19  C   UNL     1      44.118 -21.779   1.638  1.00  0.00     0.010 C 
HETATM   20  C   UNL     1      43.961 -19.350   2.213  1.00  0.00     0.010 C 
ENDBRANCH  17  18
ENDBRANCH  15  17
ENDBRANCH   8  11
ENDBRANCH   1   7
BRANCH   3  21
HETATM   21  C   UNL     1      41.318 -15.270   4.314  1.00  0.00     0.165 A 
HETATM   22  N   UNL     1      40.111 -14.761   4.576  1.00  0.00    -0.155 NA
HETATM   23  N   UNL     1      39.536 -14.586   3.386  1.00  0.00    -0.275 N 
HETATM   24  H   UNL     1      38.597 -14.205   3.364  1.00  0.00     0.189 HD
HETATM   25  C   UNL     1      40.312 -14.955   2.327  1.00  0.00     0.065 A 
HETATM   26  C   UNL     1      41.498 -15.421   2.893  1.00  0.00     0.040 A 
HETATM   27  C   UNL     1      40.067 -14.921   0.949  1.00  0.00     0.051 A 
HETATM   28  C   UNL     1      42.496 -15.905   2.019  1.00  0.00     0.019 A 
HETATM   29  C   UNL     1      42.276 -15.884   0.632  1.00  0.00     0.020 A 
HETATM   30  C   UNL     1      41.081 -15.396   0.115  1.00  0.00     0.013 A 
HETATM   31 BR   UNL     1      40.815 -15.379  -1.759  1.00  0.00    -0.051 Br
ENDBRANCH   3  21
TORSDOF 5
ENDMDL
MODEL 2
REMARK VINA RESULT:      -8.6      4.174      7.943
REMARK  5 active torsions:
REMARK  status: ('A' for Active; 'I' for Inactive)
REMARK    1  A    between atoms: C_2  and  C_3 
REMARK    2  A    between atoms: C_3  and  C_4 
REMARK    3  A    between atoms: C_8  and  N_9 
REMARK       I    between atoms: N_9  and  C_10 
REMARK    4  A    between atoms: C_10  and  C_11 
REMARK    5  A    between atoms: N_13  and  C_14 
ROOT
HETATM    1  C   UNL     1      41.370 -12.874   5.773  1.00  0.00     0.106 C 
HETATM    2  C   UNL     1      41.406 -14.395   5.768  1.00  0.00     0.148 C 
HETATM    3  N   UNL     1      42.656 -14.739   5.147  1.00  0.00    -0.299 N 
HETATM    4  C   UNL     1      43.133 -13.677   4.370  1.00  0.00     0.226 C 
HETATM    5  O   UNL     1      44.095 -13.612   3.621  1.00  0.00    -0.273 OA
HETATM    6  C   UNL     1      42.177 -12.519   4.534  1.00  0.00     0.119 C 
ENDROOT
BRANCH   1   7
HETATM    7  C   UNL     1      39.946 -12.352   5.712  1.00  0.00     0.242 C 
HETATM    8  N   UNL     1      39.443 -11.529   6.678  1.00  0.00    -0.156 N 
HETATM    9  H   UNL     1      38.509 -11.193   6.483  1.00  0.00     0.187 HD
HETATM   10  O   UNL     1      39.196 -12.633   4.771  1.00  0.00    -0.272 OA
BRANCH   8  11
HETATM   11  C   UNL     1      40.030 -11.227   7.876  1.00  0.00     0.725 A 
HETATM   12  N   UNL     1      39.507 -11.649   9.070  1.00  0.00    -0.106 N 
HETATM   13  N   UNL     1      40.244 -11.228  10.108  1.00  0.00    -0.144 NA
HETATM   14  H   UNL     1      38.673 -12.194   9.244  1.00  0.00     0.208 HD
HETATM   15  C   UNL     1      41.226 -10.566   9.486  1.00  0.00     0.166 A 
HETATM   16  N   UNL     1      41.125 -10.550   8.118  1.00  0.00    -0.046 NA
BRANCH  15  17
HETATM   17  C   UNL     1      42.334  -9.884  10.208  1.00  0.00     0.087 C 
BRANCH  17  18
HETATM   18  C   UNL     1      43.279 -10.857  10.937  1.00  0.00    -0.016 C 
HETATM   19  C   UNL     1      43.244 -10.661  12.455  1.00  0.00     0.010 C 
HETATM   20  C   UNL     1      44.710 -10.674  10.429  1.00  0.00     0.010 C 
ENDBRANCH  17  18
ENDBRANCH  15  17
ENDBRANCH   8  11
ENDBRANCH   1   7
BRANCH   3  21
HETATM   21  C   UNL     1      43.282 -15.983   5.204  1.00  0.00     0.165 A 
HETATM   22  N   UNL     1      44.021 -16.366   6.250  1.00  0.00    -0.155 NA
HETATM   23  N   UNL     1      44.425 -17.604   5.962  1.00  0.00    -0.275 N 
HETATM   24  H   UNL     1      45.010 -18.081   6.639  1.00  0.00     0.189 HD
HETATM   25  C   UNL     1      43.984 -18.073   4.760  1.00  0.00     0.065 A 
HETATM   26  C   UNL     1      43.230 -17.032   4.219  1.00  0.00     0.040 A 
HETATM   27  C   UNL     1      44.188 -19.302   4.120  1.00  0.00     0.051 A 
HETATM   28  C   UNL     1      42.661 -17.230   2.941  1.00  0.00     0.019 A 
HETATM   29  C   UNL     1      42.853 -18.451   2.276  1.00  0.00     0.020 A 
HETATM   30  C   UNL     1      43.602 -19.465   2.864  1.00  0.00     0.013 A 
HETATM   31 BR   UNL     1      43.839 -21.101   1.941  1.00  0.00    -0.051 Br
ENDBRANCH   3  21
TORSDOF 5
ENDMDL
MODEL 3
REMARK VINA RESULT:      -8.5      2.759      6.866
REMARK  5 active torsions:
REMARK  status: ('A' for Active; 'I' for Inactive)
REMARK    1  A    between atoms: C_2  and  C_3 
REMARK    2  A    between atoms: C_3  and  C_4 
REMARK    3  A    between atoms: C_8  and  N_9 
REMARK       I    between atoms: N_9  and  C_10 
REMARK    4  A    between atoms: C_10  and  C_11 
REMARK    5  A    between atoms: N_13  and  C_14 
ROOT
HETATM    1  C   UNL     1      41.443 -13.861   4.316  1.00  0.00     0.106 C 
HETATM    2  C   UNL     1      42.765 -14.612   4.369  1.00  0.00     0.148 C 
HETATM    3  N   UNL     1      42.468 -15.849   5.039  1.00  0.00    -0.299 N 
HETATM    4  C   UNL     1      41.298 -15.733   5.798  1.00  0.00     0.226 C 
HETATM    5  O   UNL     1      40.776 -16.518   6.575  1.00  0.00    -0.273 OA
HETATM    6  C   UNL     1      40.733 -14.352   5.568  1.00  0.00     0.119 C 
ENDROOT
BRANCH   1   7
HETATM    7  C   UNL     1      41.657 -12.359   4.316  1.00  0.00     0.242 C 
HETATM    8  N   UNL     1      41.427 -11.603   3.203  1.00  0.00    -0.156 N 
HETATM    9  H   UNL     1      41.536 -10.609   3.355  1.00  0.00     0.187 HD
HETATM   10  O   UNL     1      42.024 -11.760   5.332  1.00  0.00    -0.272 OA
BRANCH   8  11
HETATM   11  C   UNL     1      41.182 -12.067   1.940  1.00  0.00     0.725 A 
HETATM   12  N   UNL     1      40.009 -11.806   1.283  1.00  0.00    -0.106 N 
HETATM   13  N   UNL     1      39.988 -12.369   0.066  1.00  0.00    -0.144 NA
HETATM   14  H   UNL     1      39.203 -11.283   1.600  1.00  0.00     0.208 HD
HETATM   15  C   UNL     1      41.193 -12.948   0.021  1.00  0.00     0.166 A 
HETATM   16  N   UNL     1      41.949 -12.780   1.153  1.00  0.00    -0.046 NA
BRANCH  15  17
HETATM   17  C   UNL     1      41.679 -13.729  -1.149  1.00  0.00     0.087 C 
BRANCH  17  18
HETATM   18  C   UNL     1      40.929 -15.060  -1.348  1.00  0.00    -0.016 C 
HETATM   19  C   UNL     1      41.394 -16.134  -0.359  1.00  0.00     0.010 C 
HETATM   20  C   UNL     1      41.127 -15.561  -2.780  1.00  0.00     0.010 C 
ENDBRANCH  17  18
ENDBRANCH  15  17
ENDBRANCH   8  11
ENDBRANCH   1   7
BRANCH   3  21
HETATM   21  C   UNL     1      43.269 -16.990   5.040  1.00  0.00     0.165 A 
HETATM   22  N   UNL     1      44.116 -17.270   6.035  1.00  0.00    -0.155 NA
HETATM   23  N   UNL     1      44.676 -18.433   5.705  1.00  0.00    -0.275 N 
HETATM   24  H   UNL     1      45.363 -18.826   6.340  1.00  0.00     0.189 HD
HETATM   25  C   UNL     1      44.237 -18.953   4.524  1.00  0.00     0.065 A 
HETATM   26  C   UNL     1      43.311 -18.028   4.044  1.00  0.00     0.040 A 
HETATM   27  C   UNL     1      44.579 -20.134   3.854  1.00  0.00     0.051 A 
HETATM   28  C   UNL     1      42.702 -18.296   2.797  1.00  0.00     0.019 A 
HETATM   29  C   UNL     1      43.027 -19.472   2.103  1.00  0.00     0.020 A 
HETATM   30  C   UNL     1      43.948 -20.371   2.631  1.00  0.00     0.013 A 
HETATM   31 BR   UNL     1      44.364 -21.949   1.671  1.00  0.00    -0.051 Br
ENDBRANCH   3  21
TORSDOF 5
ENDMDL
MODEL 4
REMARK VINA RESULT:      -8.4      4.459      7.747
REMARK  5 active torsions:
REMARK  status: ('A' for Active; 'I' for Inactive)
REMARK    1  A    between atoms: C_2  and  C_3 
REMARK    2  A    between atoms: C_3  and  C_4 
REMARK    3  A    between atoms: C_8  and  N_9 
REMARK       I    between atoms: N_9  and  C_10 
REMARK    4  A    between atoms: C_10  and  C_11 
REMARK    5  A    between atoms: N_13  and  C_14 
ROOT
HETATM    1  C   UNL     1      44.303 -13.926   6.973  1.00  0.00     0.106 C 
HETATM    2  C   UNL     1      44.356 -14.553   5.587  1.00  0.00     0.148 C 
HETATM    3  N   UNL     1      43.545 -15.737   5.680  1.00  0.00    -0.299 N 
HETATM    4  C   UNL     1      43.418 -16.148   7.011  1.00  0.00     0.226 C 
HETATM    5  O   UNL     1      42.900 -17.147   7.487  1.00  0.00    -0.273 OA
HETATM    6  C   UNL     1      44.130 -15.137   7.877  1.00  0.00     0.119 C 
ENDROOT
BRANCH   1   7
HETATM    7  C   UNL     1      45.568 -13.145   7.277  1.00  0.00     0.242 C 
HETATM    8  N   UNL     1      45.702 -12.417   8.423  1.00  0.00    -0.156 N 
HETATM    9  H   UNL     1      46.618 -12.005   8.540  1.00  0.00     0.187 HD
HETATM   10  O   UNL     1      46.535 -13.160   6.508  1.00  0.00    -0.272 OA
BRANCH   8  11
HETATM   11  C   UNL     1      44.714 -12.127   9.323  1.00  0.00     0.725 A 
HETATM   12  N   UNL     1      43.581 -11.444   8.967  1.00  0.00    -0.106 N 
HETATM   13  N   UNL     1      42.760 -11.269  10.012  1.00  0.00    -0.144 NA
HETATM   14  H   UNL     1      43.320 -11.069   8.064  1.00  0.00     0.208 HD
HETATM   15  C   UNL     1      43.435 -11.888  10.987  1.00  0.00     0.166 A 
HETATM   16  N   UNL     1      44.635 -12.427  10.596  1.00  0.00    -0.046 NA
BRANCH  15  17
HETATM   17  C   UNL     1      42.944 -11.978  12.389  1.00  0.00     0.087 C 
BRANCH  17  18
HETATM   18  C   UNL     1      42.978 -10.630  13.134  1.00  0.00    -0.016 C 
HETATM   19  C   UNL     1      41.577 -10.163  13.538  1.00  0.00     0.010 C 
HETATM   20  C   UNL     1      43.641  -9.566  12.258  1.00  0.00     0.010 C 
ENDBRANCH  17  18
ENDBRANCH  15  17
ENDBRANCH   8  11
ENDBRANCH   1   7
BRANCH   3  21
HETATM   21  C   UNL     1      43.030 -16.461   4.605  1.00  0.00     0.165 A 
HETATM   22  N   UNL     1      42.037 -15.998   3.840  1.00  0.00    -0.155 NA
HETATM   23  N   UNL     1      41.837 -16.936   2.915  1.00  0.00    -0.275 N 
HETATM   24  H   UNL     1      41.111 -16.776   2.226  1.00  0.00     0.189 HD
HETATM   25  C   UNL     1      42.662 -18.016   3.024  1.00  0.00     0.065 A 
HETATM   26  C   UNL     1      43.463 -17.750   4.133  1.00  0.00     0.040 A 
HETATM   27  C   UNL     1      42.760 -19.182   2.254  1.00  0.00     0.051 A 
HETATM   28  C   UNL     1      44.411 -18.728   4.507  1.00  0.00     0.019 A 
HETATM   29  C   UNL     1      44.529 -19.907   3.754  1.00  0.00     0.020 A 
HETATM   30  C   UNL     1      43.716 -20.120   2.646  1.00  0.00     0.013 A 
HETATM   31 BR   UNL     1      43.900 -21.720   1.650  1.00  0.00    -0.051 Br
ENDBRANCH   3  21
TORSDOF 5
ENDMDL
MODEL 5
REMARK VINA RESULT:      -8.3      4.188      7.419
REMARK  5 active torsions:
REMARK  status: ('A' for Active; 'I' for Inactive)
REMARK    1  A    between atoms: C_2  and  C_3 
REMARK    2  A    between atoms: C_3  and  C_4 
REMARK    3  A    between atoms: C_8  and  N_9 
REMARK       I    between atoms: N_9  and  C_10 
REMARK    4  A    between atoms: C_10  and  C_11 
REMARK    5  A    between atoms: N_13  and  C_14 
ROOT
HETATM    1  C   UNL     1      44.288 -13.879   6.931  1.00  0.00     0.106 C 
HETATM    2  C   UNL     1      44.370 -14.517   5.552  1.00  0.00     0.148 C 
HETATM    3  N   UNL     1      43.540 -15.688   5.630  1.00  0.00    -0.299 N 
HETATM    4  C   UNL     1      43.369 -16.088   6.960  1.00  0.00     0.226 C 
HETATM    5  O   UNL     1      42.823 -17.075   7.427  1.00  0.00    -0.273 OA
HETATM    6  C   UNL     1      44.072 -15.081   7.838  1.00  0.00     0.119 C 
ENDROOT
BRANCH   1   7
HETATM    7  C   UNL     1      45.556 -13.115   7.265  1.00  0.00     0.242 C 
HETATM    8  N   UNL     1      45.630 -12.289   8.349  1.00  0.00    -0.156 N 
HETATM    9  H   UNL     1      46.549 -11.897   8.502  1.00  0.00     0.187 HD
HETATM   10  O   UNL     1      46.578 -13.232   6.581  1.00  0.00    -0.272 OA
BRANCH   8  11
HETATM   11  C   UNL     1      44.586 -11.885   9.136  1.00  0.00     0.725 A 
HETATM   12  N   UNL     1      44.428 -12.333  10.421  1.00  0.00    -0.106 N 
HETATM   13  N   UNL     1      43.334 -11.810  10.995  1.00  0.00    -0.144 NA
HETATM   14  H   UNL     1      44.999 -12.983  10.945  1.00  0.00     0.208 HD
HETATM   15  C   UNL     1      42.869 -11.027  10.016  1.00  0.00     0.166 A 
HETATM   16  N   UNL     1      43.615 -11.049   8.865  1.00  0.00    -0.046 NA
BRANCH  15  17
HETATM   17  C   UNL     1      41.634 -10.207  10.145  1.00  0.00     0.087 C 
BRANCH  17  18
HETATM   18  C   UNL     1      40.906  -9.985   8.806  1.00  0.00    -0.016 C 
HETATM   19  C   UNL     1      40.721  -8.498   8.493  1.00  0.00     0.010 C 
HETATM   20  C   UNL     1      39.541 -10.676   8.834  1.00  0.00     0.010 C 
ENDBRANCH  17  18
ENDBRANCH  15  17
ENDBRANCH   8  11
ENDBRANCH   1   7
BRANCH   3  21
HETATM   21  C   UNL     1      43.044 -16.412   4.546  1.00  0.00     0.165 A 
HETATM   22  N   UNL     1      42.083 -15.938   3.747  1.00  0.00    -0.155 NA
HETATM   23  N   UNL     1      41.895 -16.881   2.824  1.00  0.00    -0.275 N 
HETATM   24  H   UNL     1      41.193 -16.714   2.112  1.00  0.00     0.189 HD
HETATM   25  C   UNL     1      42.696 -17.975   2.967  1.00  0.00     0.065 A 
HETATM   26  C   UNL     1      43.468 -17.713   4.098  1.00  0.00     0.040 A 
HETATM   27  C   UNL     1      42.795 -19.149   2.211  1.00  0.00     0.051 A 
HETATM   28  C   UNL     1      44.386 -18.705   4.510  1.00  0.00     0.019 A 
HETATM   29  C   UNL     1      44.504 -19.893   3.771  1.00  0.00     0.020 A 
HETATM   30  C   UNL     1      43.721 -20.102   2.640  1.00  0.00     0.013 A 
HETATM   31 BR   UNL     1      43.906 -21.713   1.664  1.00  0.00    -0.051 Br
ENDBRANCH   3  21
TORSDOF 5
ENDMDL
MODEL 6
REMARK VINA RESULT:      -8.1      4.521      8.129
REMARK  5 active torsions:
REMARK  status: ('A' for Active; 'I' for Inactive)
REMARK    1  A    between atoms: C_2  and  C_3 
REMARK    2  A    between atoms: C_3  and  C_4 
REMARK    3  A    between atoms: C_8  and  N_9 
REMARK       I    between atoms: N_9  and  C_10 
REMARK    4  A    between atoms: C_10  and  C_11 
REMARK    5  A    between atoms: N_13  and  C_14 
ROOT
HETATM    1  C   UNL     1      40.728 -12.686   5.639  1.00  0.00     0.106 C 
HETATM    2  C   UNL     1      40.302 -13.956   4.916  1.00  0.00     0.148 C 
HETATM    3  N   UNL     1      41.472 -14.394   4.205  1.00  0.00    -0.299 N 
HETATM    4  C   UNL     1      42.367 -13.334   4.021  1.00  0.00     0.226 C 
HETATM    5  O   UNL     1      43.411 -13.278   3.389  1.00  0.00    -0.273 OA
HETATM    6  C   UNL     1      41.793 -12.120   4.713  1.00  0.00     0.119 C 
ENDROOT
BRANCH   1   7
HETATM    7  C   UNL     1      39.559 -11.739   5.834  1.00  0.00     0.242 C 
HETATM    8  N   UNL     1      39.583 -10.756   6.779  1.00  0.00    -0.156 N 
HETATM    9  H   UNL     1      38.775 -10.148   6.758  1.00  0.00     0.187 HD
HETATM   10  O   UNL     1      38.549 -11.808   5.124  1.00  0.00    -0.272 OA
BRANCH   8  11
HETATM   11  C   UNL     1      40.512 -10.604   7.771  1.00  0.00     0.725 A 
HETATM   12  N   UNL     1      41.680  -9.914   7.577  1.00  0.00    -0.106 N 
HETATM   13  N   UNL     1      42.438  -9.904   8.683  1.00  0.00    -0.144 NA
HETATM   14  H   UNL     1      42.018  -9.455   6.741  1.00  0.00     0.208 HD
HETATM   15  C   UNL     1      41.670 -10.588   9.538  1.00  0.00     0.166 A 
HETATM   16  N   UNL     1      40.483 -11.029   9.010  1.00  0.00    -0.046 NA
BRANCH  15  17
HETATM   17  C   UNL     1      42.067 -10.872  10.944  1.00  0.00     0.087 C 
BRANCH  17  18
HETATM   18  C   UNL     1      43.516 -10.457  11.264  1.00  0.00    -0.016 C 
HETATM   19  C   UNL     1      44.493 -11.626  11.116  1.00  0.00     0.010 C 
HETATM   20  C   UNL     1      43.596  -9.900  12.687  1.00  0.00     0.010 C 
ENDBRANCH  17  18
ENDBRANCH  15  17
ENDBRANCH   8  11
ENDBRANCH   1   7
BRANCH   3  21
HETATM   21  C   UNL     1      41.674 -15.664   3.667  1.00  0.00     0.165 A 
HETATM   22  N   UNL     1      41.010 -16.100   2.592  1.00  0.00    -0.155 NA
HETATM   23  N   UNL     1      41.480 -17.326   2.360  1.00  0.00    -0.275 N 
HETATM   24  H   UNL     1      41.097 -17.840   1.575  1.00  0.00     0.189 HD
HETATM   25  C   UNL     1      42.440 -17.735   3.238  1.00  0.00     0.065 A 
HETATM   26  C   UNL     1      42.595 -16.671   4.126  1.00  0.00     0.040 A 
HETATM   27  C   UNL     1      43.163 -18.931   3.321  1.00  0.00     0.051 A 
HETATM   28  C   UNL     1      43.523 -16.827   5.180  1.00  0.00     0.019 A 
HETATM   29  C   UNL     1      44.260 -18.017   5.287  1.00  0.00     0.020 A 
HETATM   30  C   UNL     1      44.079 -19.044   4.368  1.00  0.00     0.013 A 
HETATM   31 BR   UNL     1      45.090 -20.636   4.540  1.00  0.00    -0.051 Br
ENDBRANCH   3  21
TORSDOF 5
ENDMDL
MODEL 7
REMARK VINA RESULT:      -8.1      4.239      7.319
REMARK  5 active torsions:
REMARK  status: ('A' for Active; 'I' for Inactive)
REMARK    1  A    between atoms: C_2  and  C_3 
REMARK    2  A    between atoms: C_3  and  C_4 
REMARK    3  A    between atoms: C_8  and  N_9 
REMARK       I    between atoms: N_9  and  C_10 
REMARK    4  A    between atoms: C_10  and  C_11 
REMARK    5  A    between atoms: N_13  and  C_14 
ROOT
HETATM    1  C   UNL     1      44.350 -14.104   7.184  1.00  0.00     0.106 C 
HETATM    2  C   UNL     1      43.460 -13.625   6.045  1.00  0.00     0.148 C 
HETATM    3  N   UNL     1      42.745 -14.794   5.611  1.00  0.00    -0.299 N 
HETATM    4  C   UNL     1      43.418 -15.959   5.995  1.00  0.00     0.226 C 
HETATM    5  O   UNL     1      43.188 -17.130   5.734  1.00  0.00    -0.273 OA
HETATM    6  C   UNL     1      44.628 -15.550   6.800  1.00  0.00     0.119 C 
ENDROOT
BRANCH   1   7
HETATM    7  C   UNL     1      45.615 -13.273   7.287  1.00  0.00     0.242 C 
HETATM    8  N   UNL     1      45.823 -12.410   8.323  1.00  0.00    -0.156 N 
HETATM    9  H   UNL     1      46.735 -11.973   8.314  1.00  0.00     0.187 HD
HETATM   10  O   UNL     1      46.518 -13.365   6.447  1.00  0.00    -0.272 OA
BRANCH   8  11
HETATM   11  C   UNL     1      44.903 -12.029   9.261  1.00  0.00     0.725 A 
HETATM   12  N   UNL     1      43.837 -11.226   8.952  1.00  0.00    -0.106 N 
HETATM   13  N   UNL     1      43.077 -10.978  10.029  1.00  0.00    -0.144 NA
HETATM   14  H   UNL     1      43.586 -10.814   8.063  1.00  0.00     0.208 HD
HETATM   15  C   UNL     1      43.716 -11.678  10.972  1.00  0.00     0.166 A 
HETATM   16  N   UNL     1      44.838 -12.335  10.533  1.00  0.00    -0.046 NA
BRANCH  15  17
HETATM   17  C   UNL     1      43.268 -11.733  12.390  1.00  0.00     0.087 C 
BRANCH  17  18
HETATM   18  C   UNL     1      42.402 -10.529  12.804  1.00  0.00    -0.016 C 
HETATM   19  C   UNL     1      43.069  -9.690  13.897  1.00  0.00     0.010 C 
HETATM   20  C   UNL     1      41.035 -11.013  13.293  1.00  0.00     0.010 C 
ENDBRANCH  17  18
ENDBRANCH  15  17
ENDBRANCH   8  11
ENDBRANCH   1   7
BRANCH   3  21
HETATM   21  C   UNL     1      41.594 -14.802   4.823  1.00  0.00     0.165 A 
HETATM   22  N   UNL     1      40.374 -14.970   5.341  1.00  0.00    -0.155 NA
HETATM   23  N   UNL     1      39.538 -14.893   4.305  1.00  0.00    -0.275 N 
HETATM   24  H   UNL     1      38.546 -14.999   4.487  1.00  0.00     0.189 HD
HETATM   25  C   UNL     1      40.149 -14.674   3.106  1.00  0.00     0.065 A 
HETATM   26  C   UNL     1      41.510 -14.615   3.398  1.00  0.00     0.040 A 
HETATM   27  C   UNL     1      39.621 -14.533   1.816  1.00  0.00     0.051 A 
HETATM   28  C   UNL     1      42.405 -14.422   2.322  1.00  0.00     0.019 A 
HETATM   29  C   UNL     1      41.903 -14.279   1.018  1.00  0.00     0.020 A 
HETATM   30  C   UNL     1      40.534 -14.332   0.779  1.00  0.00     0.013 A 
HETATM   31 BR   UNL     1      39.890 -14.134  -0.990  1.00  0.00    -0.051 Br
ENDBRANCH   3  21
TORSDOF 5
ENDMDL
MODEL 8
REMARK VINA RESULT:      -8.1      2.453      3.568
REMARK  5 active torsions:
REMARK  status: ('A' for Active; 'I' for Inactive)
REMARK    1  A    between atoms: C_2  and  C_3 
REMARK    2  A    between atoms: C_3  and  C_4 
REMARK    3  A    between atoms: C_8  and  N_9 
REMARK       I    between atoms: N_9  and  C_10 
REMARK    4  A    between atoms: C_10  and  C_11 
REMARK    5  A    between atoms: N_13  and  C_14 
ROOT
HETATM    1  C   UNL     1      42.363 -15.385   4.159  1.00  0.00     0.106 C 
HETATM    2  C   UNL     1      41.371 -15.749   3.063  1.00  0.00     0.148 C 
HETATM    3  N   UNL     1      41.677 -14.866   1.971  1.00  0.00    -0.299 N 
HETATM    4  C   UNL     1      42.369 -13.737   2.425  1.00  0.00     0.226 C 
HETATM    5  O   UNL     1      42.714 -12.727   1.831  1.00  0.00    -0.273 OA
HETATM    6  C   UNL     1      42.606 -13.905   3.906  1.00  0.00     0.119 C 
ENDROOT
BRANCH   1   7
HETATM    7  C   UNL     1      41.792 -15.658   5.538  1.00  0.00     0.242 C 
HETATM    8  N   UNL     1      42.296 -16.638   6.341  1.00  0.00    -0.156 N 
HETATM    9  H   UNL     1      41.877 -16.669   7.261  1.00  0.00     0.187 HD
HETATM   10  O   UNL     1      40.863 -14.983   5.995  1.00  0.00    -0.272 OA
BRANCH   8  11
HETATM   11  C   UNL     1      43.199 -17.601   5.981  1.00  0.00     0.725 A 
HETATM   12  N   UNL     1      44.536 -17.486   6.255  1.00  0.00    -0.106 N 
HETATM   13  N   UNL     1      45.227 -18.542   5.802  1.00  0.00    -0.144 NA
HETATM   14  H   UNL     1      45.030 -16.733   6.717  1.00  0.00     0.208 HD
HETATM   15  C   UNL     1      44.251 -19.290   5.274  1.00  0.00     0.166 A 
HETATM   16  N   UNL     1      42.997 -18.742   5.370  1.00  0.00    -0.046 NA
BRANCH  15  17
HETATM   17  C   UNL     1      44.495 -20.603   4.617  1.00  0.00     0.087 C 
BRANCH  17  18
HETATM   18  C   UNL     1      44.825 -20.483   3.117  1.00  0.00    -0.016 C 
HETATM   19  C   UNL     1      44.101 -19.303   2.464  1.00  0.00     0.010 C 
HETATM   20  C   UNL     1      44.448 -21.779   2.396  1.00  0.00     0.010 C 
ENDBRANCH  17  18
ENDBRANCH  15  17
ENDBRANCH   8  11
ENDBRANCH   1   7
BRANCH   3  21
HETATM   21  C   UNL     1      41.265 -15.028   0.649  1.00  0.00     0.165 A 
HETATM   22  N   UNL     1      41.732 -16.006  -0.132  1.00  0.00    -0.155 NA
HETATM   23  N   UNL     1      41.099 -15.861  -1.296  1.00  0.00    -0.275 N 
HETATM   24  H   UNL     1      41.318 -16.515  -2.040  1.00  0.00     0.189 HD
HETATM   25  C   UNL     1      40.218 -14.822  -1.330  1.00  0.00     0.065 A 
HETATM   26  C   UNL     1      40.299 -14.236  -0.068  1.00  0.00     0.040 A 
HETATM   27  C   UNL     1      39.379 -14.359  -2.351  1.00  0.00     0.051 A 
HETATM   28  C   UNL     1      39.501 -13.097   0.180  1.00  0.00     0.019 A 
HETATM   29  C   UNL     1      38.652 -12.611  -0.827  1.00  0.00     0.020 A 
HETATM   30  C   UNL     1      38.596 -13.238  -2.067  1.00  0.00     0.013 A 
HETATM   31 BR   UNL     1      37.439 -12.558  -3.403  1.00  0.00    -0.051 Br
ENDBRANCH   3  21
TORSDOF 5
ENDMDL
MODEL 9
REMARK VINA RESULT:      -7.8      3.659      5.702
REMARK  5 active torsions:
REMARK  status: ('A' for Active; 'I' for Inactive)
REMARK    1  A    between atoms: C_2  and  C_3 
REMARK    2  A    between atoms: C_3  and  C_4 
REMARK    3  A    between atoms: C_8  and  N_9 
REMARK       I    between atoms: N_9  and  C_10 
REMARK    4  A    between atoms: C_10  and  C_11 
REMARK    5  A    between atoms: N_13  and  C_14 
ROOT
HETATM    1  C   UNL     1      41.889 -13.652   1.905  1.00  0.00     0.106 C 
HETATM    2  C   UNL     1      40.766 -14.323   1.127  1.00  0.00     0.148 C 
HETATM    3  N   UNL     1      40.984 -13.950  -0.244  1.00  0.00    -0.299 N 
HETATM    4  C   UNL     1      41.768 -12.793  -0.325  1.00  0.00     0.226 C 
HETATM    5  O   UNL     1      42.085 -12.116  -1.291  1.00  0.00    -0.273 OA
HETATM    6  C   UNL     1      42.162 -12.403   1.080  1.00  0.00     0.119 C 
ENDROOT
BRANCH   1   7
HETATM    7  C   UNL     1      41.465 -13.332   3.326  1.00  0.00     0.242 C 
HETATM    8  N   UNL     1      41.597 -14.242   4.335  1.00  0.00    -0.156 N 
HETATM    9  H   UNL     1      41.347 -13.881   5.246  1.00  0.00     0.187 HD
HETATM   10  O   UNL     1      41.007 -12.225   3.629  1.00  0.00    -0.272 OA
BRANCH   8  11
HETATM   11  C   UNL     1      41.918 -15.565   4.200  1.00  0.00     0.725 A 
HETATM   12  N   UNL     1      40.964 -16.548   4.173  1.00  0.00    -0.106 N 
HETATM   13  N   UNL     1      41.512 -17.765   4.042  1.00  0.00    -0.144 NA
HETATM   14  H   UNL     1      39.959 -16.463   4.251  1.00  0.00     0.208 HD
HETATM   15  C   UNL     1      42.813 -17.464   3.970  1.00  0.00     0.166 A 
HETATM   16  N   UNL     1      43.095 -16.124   4.062  1.00  0.00    -0.046 NA
BRANCH  15  17
HETATM   17  C   UNL     1      43.880 -18.491   3.823  1.00  0.00     0.087 C 
BRANCH  17  18
HETATM   18  C   UNL     1      44.132 -18.904   2.360  1.00  0.00    -0.016 C 
HETATM   19  C   UNL     1      43.872 -17.752   1.386  1.00  0.00     0.010 C 
HETATM   20  C   UNL     1      43.243 -20.094   1.995  1.00  0.00     0.010 C 
ENDBRANCH  17  18
ENDBRANCH  15  17
ENDBRANCH   8  11
ENDBRANCH   1   7
BRANCH   3  21
HETATM   21  C   UNL     1      40.420 -14.568  -1.359  1.00  0.00     0.165 A 
HETATM   22  N   UNL     1      40.926 -15.685  -1.891  1.00  0.00    -0.155 NA
HETATM   23  N   UNL     1      40.118 -15.989  -2.907  1.00  0.00    -0.275 N 
HETATM   24  H   UNL     1      40.333 -16.816  -3.453  1.00  0.00     0.189 HD
HETATM   25  C   UNL     1      39.082 -15.120  -3.080  1.00  0.00     0.065 A 
HETATM   26  C   UNL     1      39.245 -14.159  -2.084  1.00  0.00     0.040 A 
HETATM   27  C   UNL     1      38.042 -15.102  -4.017  1.00  0.00     0.051 A 
HETATM   28  C   UNL     1      38.314 -13.097  -2.038  1.00  0.00     0.019 A 
HETATM   29  C   UNL     1      37.262 -13.054  -2.966  1.00  0.00     0.020 A 
HETATM   30  C   UNL     1      37.134 -14.045  -3.934  1.00  0.00     0.013 A 
HETATM   31 BR   UNL     1      35.703 -13.959  -5.170  1.00  0.00    -0.051 Br
ENDBRANCH   3  21
TORSDOF 5
ENDMDL
MODEL 10
REMARK VINA RESULT:      -7.7      2.797      4.578
REMARK  5 active torsions:
REMARK  status: ('A' for Active; 'I' for Inactive)
REMARK    1  A    between atoms: C_2  and  C_3 
REMARK    2  A    between atoms: C_3  and  C_4 
REMARK    3  A    between atoms: C_8  and  N_9 
REMARK       I    between atoms: N_9  and  C_10 
REMARK    4  A    between atoms: C_10  and  C_11 
REMARK    5  A    between atoms: N_13  and  C_14 
ROOT
HETATM    1  C   UNL     1      40.989 -13.648   4.280  1.00  0.00     0.106 C 
HETATM    2  C   UNL     1      40.456 -14.385   3.060  1.00  0.00     0.148 C 
HETATM    3  N   UNL     1      40.846 -13.580   1.935  1.00  0.00    -0.299 N 
HETATM    4  C   UNL     1      41.104 -12.263   2.333  1.00  0.00     0.226 C 
HETATM    5  O   UNL     1      41.360 -11.270   1.670  1.00  0.00    -0.273 OA
HETATM    6  C   UNL     1      40.946 -12.195   3.833  1.00  0.00     0.119 C 
ENDROOT
BRANCH   1   7
HETATM    7  C   UNL     1      40.131 -13.909   5.505  1.00  0.00     0.242 C 
HETATM    8  N   UNL     1      40.442 -14.889   6.401  1.00  0.00    -0.156 N 
HETATM    9  H   UNL     1      39.834 -14.912   7.209  1.00  0.00     0.187 HD
HETATM   10  O   UNL     1      39.130 -13.226   5.748  1.00  0.00    -0.272 OA
BRANCH   8  11
HETATM   11  C   UNL     1      41.393 -15.860   6.247  1.00  0.00     0.725 A 
HETATM   12  N   UNL     1      42.603 -15.803   6.886  1.00  0.00    -0.106 N 
HETATM   13  N   UNL     1      43.375 -16.856   6.579  1.00  0.00    -0.144 NA
HETATM   14  H   UNL     1      42.962 -15.092   7.510  1.00  0.00     0.208 HD
HETATM   15  C   UNL     1      42.572 -17.544   5.760  1.00  0.00     0.166 A 
HETATM   16  N   UNL     1      41.349 -16.961   5.539  1.00  0.00    -0.046 NA
BRANCH  15  17
HETATM   17  C   UNL     1      42.966 -18.828   5.120  1.00  0.00     0.087 C 
BRANCH  17  18
HETATM   18  C   UNL     1      44.066 -18.665   4.054  1.00  0.00    -0.016 C 
HETATM   19  C   UNL     1      43.600 -17.808   2.874  1.00  0.00     0.010 C 
HETATM   20  C   UNL     1      44.506 -20.040   3.546  1.00  0.00     0.010 C 
ENDBRANCH  17  18
ENDBRANCH  15  17
ENDBRANCH   8  11
ENDBRANCH   1   7
BRANCH   3  21
HETATM   21  C   UNL     1      40.870 -13.993   0.604  1.00  0.00     0.165 A 
HETATM   22  N   UNL     1      41.977 -14.463   0.020  1.00  0.00    -0.155 NA
HETATM   23  N   UNL     1      41.614 -14.777  -1.223  1.00  0.00    -0.275 N 
HETATM   24  H   UNL     1      42.322 -15.156  -1.843  1.00  0.00     0.189 HD
HETATM   25  C   UNL     1      40.301 -14.540  -1.502  1.00  0.00     0.065 A 
HETATM   26  C   UNL     1      39.770 -14.013  -0.325  1.00  0.00     0.040 A 
HETATM   27  C   UNL     1      39.557 -14.738  -2.672  1.00  0.00     0.051 A 
HETATM   28  C   UNL     1      38.408 -13.640  -0.329  1.00  0.00     0.019 A 
HETATM   29  C   UNL     1      37.639 -13.827  -1.489  1.00  0.00     0.020 A 
HETATM   30  C   UNL     1      38.211 -14.369  -2.635  1.00  0.00     0.013 A 
HETATM   31 BR   UNL     1      37.146 -14.609  -4.182  1.00  0.00    -0.051 Br
ENDBRANCH   3  21
TORSDOF 5
ENDMDL
