MODEL 1
REMARK VINA RESULT:      -8.6      0.000      0.000
REMARK  6 active torsions:
REMARK  status: ('A' for Active; 'I' for Inactive)
REMARK    1  A    between atoms: C_2  and  N_3 
REMARK    2  A    between atoms: C_2  and  C_12 
REMARK       I    between atoms: N_3  and  C_4 
REMARK    3  A    between atoms: C_4  and  C_5 
REMARK    4  A    between atoms: C_12  and  C_13 
REMARK       I    between atoms: C_13  and  N_14 
REMARK    5  A    between atoms: N_14  and  C_15 
REMARK    6  A    between atoms: C_17  and  C_18 
ROOT
HETATM    1  C   UNL     1      41.203 -14.964   4.307  1.00  0.00     0.224 C 
HETATM    2  N   UNL     1      40.526 -15.644   3.312  1.00  0.00    -0.327 N 
HETATM    3  O   UNL     1      41.388 -13.752   4.369  1.00  0.00    -0.273 OA
HETATM    4  H   UNL     1      40.378 -16.636   3.453  1.00  0.00     0.169 HD
ENDROOT
BRANCH   1   5
HETATM    5  C   UNL     1      41.694 -15.862   5.423  1.00  0.00     0.128 C 
BRANCH   5   6
HETATM    6  C   UNL     1      43.178 -16.193   5.232  1.00  0.00     0.089 C 
HETATM    7  C   UNL     1      44.003 -15.905   6.488  1.00  0.00     0.032 C 
BRANCH   6   8
HETATM    8  N   UNL     1      43.366 -17.569   4.773  1.00  0.00    -0.352 N 
HETATM    9  C   UNL     1      43.424 -17.928   3.442  1.00  0.00     0.252 C 
HETATM   10  O   UNL     1      43.259 -17.136   2.521  1.00  0.00    -0.268 OA
HETATM   11  H   UNL     1      43.724 -18.222   5.458  1.00  0.00     0.163 HD
BRANCH   9  12
HETATM   12  C   UNL     1      43.772 -19.351   3.161  1.00  0.00     0.032 A 
HETATM   13  C   UNL     1      43.410 -19.984   1.963  1.00  0.00     0.017 A 
HETATM   14  C   UNL     1      43.735 -21.327   1.757  1.00  0.00     0.001 A 
HETATM   15  C   UNL     1      44.430 -22.037   2.736  1.00  0.00     0.000 A 
HETATM   16  C   UNL     1      44.811 -21.406   3.919  1.00  0.00     0.001 A 
HETATM   17  C   UNL     1      44.486 -20.064   4.130  1.00  0.00     0.017 A 
ENDBRANCH   9  12
ENDBRANCH   6   8
ENDBRANCH   5   6
ENDBRANCH   1   5
BRANCH   2  18
HETATM   18  C   UNL     1      40.002 -15.106   2.116  1.00  0.00     0.035 A 
HETATM   19  C   UNL     1      40.692 -15.090   0.899  1.00  0.00     0.042 A 
HETATM   20  C   UNL     1      40.106 -14.566  -0.265  1.00  0.00    -0.021 A 
HETATM   21  C   UNL     1      38.810 -14.041  -0.190  1.00  0.00     0.012 A 
HETATM   22  C   UNL     1      38.114 -14.048   1.019  1.00  0.00     0.003 A 
HETATM   23  C   UNL     1      38.705 -14.583   2.164  1.00  0.00     0.029 A 
BRANCH  20  24
HETATM   24  C   UNL     1      40.837 -14.598  -1.525  1.00  0.00     0.010 A 
HETATM   25  C   UNL     1      40.755 -15.498  -2.616  1.00  0.00     0.152 A 
HETATM   26  N   UNL     1      41.599 -15.192  -3.606  1.00  0.00    -0.187 NA
HETATM   27  N   UNL     1      42.235 -14.103  -3.148  1.00  0.00    -0.289 N 
HETATM   28  H   UNL     1      42.946 -13.681  -3.735  1.00  0.00     0.188 HD
HETATM   29  C   UNL     1      41.815 -13.706  -1.911  1.00  0.00     0.123 A 
ENDBRANCH  20  24
ENDBRANCH   2  18
TORSDOF 6
ENDMDL
MODEL 2
REMARK VINA RESULT:      -8.4      3.908      8.204
REMARK  6 active torsions:
REMARK  status: ('A' for Active; 'I' for Inactive)
REMARK    1  A    between atoms: C_2  and  N_3 
REMARK    2  A    between atoms: C_2  and  C_12 
REMARK       I    between atoms: N_3  and  C_4 
REMARK    3  A    between atoms: C_4  and  C_5 
REMARK    4  A    between atoms: C_12  and  C_13 
REMARK       I    between atoms: C_13  and  N_14 
REMARK    5  A    between atoms: N_14  and  C_15 
REMARK    6  A    between atoms: C_17  and  C_18 
ROOT
HETATM    1  C   UNL     1      41.697 -15.727   4.735  1.00  0.00     0.224 C 
HETATM    2  N   UNL     1      42.973 -16.247   4.623  1.00  0.00    -0.327 N 
HETATM    3  O   UNL     1      40.712 -16.063   4.084  1.00  0.00    -0.273 OA
HETATM    4  H   UNL     1      43.658 -15.928   5.298  1.00  0.00     0.169 HD
ENDROOT
BRANCH   1   5
HETATM    5  C   UNL     1      41.565 -14.680   5.820  1.00  0.00     0.128 C 
BRANCH   5   6
HETATM    6  C   UNL     1      42.649 -13.607   5.666  1.00  0.00     0.089 C 
HETATM    7  C   UNL     1      42.321 -12.608   4.554  1.00  0.00     0.032 C 
BRANCH   6   8
HETATM    8  N   UNL     1      42.916 -12.928   6.933  1.00  0.00    -0.352 N 
HETATM    9  C   UNL     1      44.138 -12.962   7.573  1.00  0.00     0.252 C 
HETATM   10  O   UNL     1      45.093 -13.617   7.172  1.00  0.00    -0.268 OA
HETATM   11  H   UNL     1      42.259 -12.206   7.198  1.00  0.00     0.163 HD
BRANCH   9  12
HETATM   12  C   UNL     1      44.273 -12.090   8.776  1.00  0.00     0.032 A 
HETATM   13  C   UNL     1      43.273 -11.183   9.155  1.00  0.00     0.017 A 
HETATM   14  C   UNL     1      43.456 -10.368  10.275  1.00  0.00     0.001 A 
HETATM   15  C   UNL     1      44.629 -10.463  11.025  1.00  0.00     0.000 A 
HETATM   16  C   UNL     1      45.617 -11.378  10.664  1.00  0.00     0.001 A 
HETATM   17  C   UNL     1      45.438 -12.193   9.544  1.00  0.00     0.017 A 
ENDBRANCH   9  12
ENDBRANCH   6   8
ENDBRANCH   5   6
ENDBRANCH   1   5
BRANCH   2  18
HETATM   18  C   UNL     1      43.432 -17.188   3.676  1.00  0.00     0.035 A 
HETATM   19  C   UNL     1      43.734 -18.519   3.982  1.00  0.00     0.042 A 
HETATM   20  C   UNL     1      44.161 -19.417   2.989  1.00  0.00    -0.021 A 
HETATM   21  C   UNL     1      44.292 -18.955   1.674  1.00  0.00     0.012 A 
HETATM   22  C   UNL     1      43.997 -17.628   1.358  1.00  0.00     0.003 A 
HETATM   23  C   UNL     1      43.563 -16.752   2.353  1.00  0.00     0.029 A 
BRANCH  20  24
HETATM   24  C   UNL     1      44.432 -20.806   3.333  1.00  0.00     0.010 A 
HETATM   25  C   UNL     1      44.406 -21.977   2.535  1.00  0.00     0.152 A 
HETATM   26  N   UNL     1      44.719 -23.079   3.220  1.00  0.00    -0.187 NA
HETATM   27  N   UNL     1      44.934 -22.624   4.463  1.00  0.00    -0.289 N 
HETATM   28  H   UNL     1      45.185 -23.294   5.183  1.00  0.00     0.188 HD
HETATM   29  C   UNL     1      44.778 -21.273   4.583  1.00  0.00     0.123 A 
ENDBRANCH  20  24
ENDBRANCH   2  18
TORSDOF 6
ENDMDL
MODEL 3
REMARK VINA RESULT:      -8.1      1.494      1.862
REMARK  6 active torsions:
REMARK  status: ('A' for Active; 'I' for Inactive)
REMARK    1  A    between atoms: C_2  and  N_3 
REMARK    2  A    between atoms: C_2  and  C_12 
REMARK       I    between atoms: N_3  and  C_4 
REMARK    3  A    between atoms: C_4  and  C_5 
REMARK    4  A    between atoms: C_12  and  C_13 
REMARK       I    between atoms: C_13  and  N_14 
REMARK    5  A    between atoms: N_14  and  C_15 
REMARK    6  A    between atoms: C_17  and  C_18 
ROOT
HETATM    1  C   UNL     1      40.778 -15.246   3.377  1.00  0.00     0.224 C 
HETATM    2  N   UNL     1      41.634 -15.269   2.292  1.00  0.00    -0.327 N 
HETATM    3  O   UNL     1      39.715 -14.637   3.457  1.00  0.00    -0.273 OA
HETATM    4  H   UNL     1      42.428 -15.896   2.348  1.00  0.00     0.169 HD
ENDROOT
BRANCH   1   5
HETATM    5  C   UNL     1      41.236 -16.121   4.525  1.00  0.00     0.128 C 
BRANCH   5   6
HETATM    6  C   UNL     1      42.746 -16.370   4.441  1.00  0.00     0.089 C 
HETATM    7  C   UNL     1      43.490 -15.841   5.669  1.00  0.00     0.032 C 
BRANCH   6   8
HETATM    8  N   UNL     1      43.044 -17.782   4.202  1.00  0.00    -0.352 N 
HETATM    9  C   UNL     1      43.436 -18.282   2.977  1.00  0.00     0.252 C 
HETATM   10  O   UNL     1      43.507 -17.600   1.961  1.00  0.00    -0.268 OA
HETATM   11  H   UNL     1      43.219 -18.345   5.025  1.00  0.00     0.163 HD
BRANCH   9  12
HETATM   12  C   UNL     1      43.843 -19.716   2.954  1.00  0.00     0.032 A 
HETATM   13  C   UNL     1      43.630 -20.534   1.836  1.00  0.00     0.017 A 
HETATM   14  C   UNL     1      44.005 -21.880   1.872  1.00  0.00     0.001 A 
HETATM   15  C   UNL     1      44.604 -22.408   3.016  1.00  0.00     0.000 A 
HETATM   16  C   UNL     1      44.838 -21.594   4.123  1.00  0.00     0.001 A 
HETATM   17  C   UNL     1      44.462 -20.249   4.091  1.00  0.00     0.017 A 
ENDBRANCH   9  12
ENDBRANCH   6   8
ENDBRANCH   5   6
ENDBRANCH   1   5
BRANCH   2  18
HETATM   18  C   UNL     1      41.521 -14.521   1.101  1.00  0.00     0.035 A 
HETATM   19  C   UNL     1      40.920 -15.001  -0.068  1.00  0.00     0.042 A 
HETATM   20  C   UNL     1      40.812 -14.198  -1.216  1.00  0.00    -0.021 A 
HETATM   21  C   UNL     1      41.332 -12.898  -1.181  1.00  0.00     0.012 A 
HETATM   22  C   UNL     1      41.938 -12.410  -0.022  1.00  0.00     0.003 A 
HETATM   23  C   UNL     1      42.026 -13.216   1.114  1.00  0.00     0.029 A 
BRANCH  20  24
HETATM   24  C   UNL     1      40.146 -14.713  -2.404  1.00  0.00     0.010 A 
HETATM   25  C   UNL     1      40.361 -15.905  -3.139  1.00  0.00     0.152 A 
HETATM   26  N   UNL     1      39.537 -16.027  -4.183  1.00  0.00    -0.187 NA
HETATM   27  N   UNL     1      38.800 -14.909  -4.131  1.00  0.00    -0.289 N 
HETATM   28  H   UNL     1      38.092 -14.768  -4.844  1.00  0.00     0.188 HD
HETATM   29  C   UNL     1      39.122 -14.091  -3.087  1.00  0.00     0.123 A 
ENDBRANCH  20  24
ENDBRANCH   2  18
TORSDOF 6
ENDMDL
MODEL 4
REMARK VINA RESULT:      -8.1      4.657      8.262
REMARK  6 active torsions:
REMARK  status: ('A' for Active; 'I' for Inactive)
REMARK    1  A    between atoms: C_2  and  N_3 
REMARK    2  A    between atoms: C_2  and  C_12 
REMARK       I    between atoms: N_3  and  C_4 
REMARK    3  A    between atoms: C_4  and  C_5 
REMARK    4  A    between atoms: C_12  and  C_13 
REMARK       I    between atoms: C_13  and  N_14 
REMARK    5  A    between atoms: N_14  and  C_15 
REMARK    6  A    between atoms: C_17  and  C_18 
ROOT
HETATM    1  C   UNL     1      43.368 -14.139   5.735  1.00  0.00     0.224 C 
HETATM    2  N   UNL     1      44.503 -14.198   6.522  1.00  0.00    -0.327 N 
HETATM    3  O   UNL     1      42.571 -13.207   5.671  1.00  0.00    -0.273 OA
HETATM    4  H   UNL     1      45.109 -14.999   6.392  1.00  0.00     0.169 HD
ENDROOT
BRANCH   1   5
HETATM    5  C   UNL     1      43.179 -15.357   4.857  1.00  0.00     0.128 C 
BRANCH   5   6
HETATM    6  C   UNL     1      43.192 -16.636   5.701  1.00  0.00     0.089 C 
HETATM    7  C   UNL     1      41.936 -16.774   6.564  1.00  0.00     0.032 C 
BRANCH   6   8
HETATM    8  N   UNL     1      43.407 -17.823   4.875  1.00  0.00    -0.352 N 
HETATM    9  C   UNL     1      44.470 -18.687   5.043  1.00  0.00     0.252 C 
HETATM   10  O   UNL     1      45.367 -18.504   5.858  1.00  0.00    -0.268 OA
HETATM   11  H   UNL     1      42.608 -18.148   4.347  1.00  0.00     0.163 HD
BRANCH   9  12
HETATM   12  C   UNL     1      44.447 -19.924   4.210  1.00  0.00     0.032 A 
HETATM   13  C   UNL     1      44.079 -19.906   2.858  1.00  0.00     0.017 A 
HETATM   14  C   UNL     1      44.047 -21.096   2.126  1.00  0.00     0.001 A 
HETATM   15  C   UNL     1      44.394 -22.302   2.736  1.00  0.00     0.000 A 
HETATM   16  C   UNL     1      44.781 -22.322   4.075  1.00  0.00     0.001 A 
HETATM   17  C   UNL     1      44.812 -21.135   4.810  1.00  0.00     0.017 A 
ENDBRANCH   9  12
ENDBRANCH   6   8
ENDBRANCH   5   6
ENDBRANCH   1   5
BRANCH   2  18
HETATM   18  C   UNL     1      44.924 -13.255   7.484  1.00  0.00     0.035 A 
HETATM   19  C   UNL     1      44.114 -12.786   8.524  1.00  0.00     0.042 A 
HETATM   20  C   UNL     1      44.600 -11.867   9.470  1.00  0.00    -0.021 A 
HETATM   21  C   UNL     1      45.918 -11.411   9.351  1.00  0.00     0.012 A 
HETATM   22  C   UNL     1      46.734 -11.869   8.316  1.00  0.00     0.003 A 
HETATM   23  C   UNL     1      46.241 -12.790   7.392  1.00  0.00     0.029 A 
BRANCH  20  24
HETATM   24  C   UNL     1      43.743 -11.426  10.562  1.00  0.00     0.010 A 
HETATM   25  C   UNL     1      43.649 -11.878  11.902  1.00  0.00     0.152 A 
HETATM   26  N   UNL     1      42.732 -11.215  12.610  1.00  0.00    -0.187 NA
HETATM   27  N   UNL     1      42.223 -10.345  11.726  1.00  0.00    -0.289 N 
HETATM   28  H   UNL     1      41.485  -9.721  12.036  1.00  0.00     0.188 HD
HETATM   29  C   UNL     1      42.794 -10.429  10.488  1.00  0.00     0.123 A 
ENDBRANCH  20  24
ENDBRANCH   2  18
TORSDOF 6
ENDMDL
MODEL 5
REMARK VINA RESULT:      -7.8      2.237      6.999
REMARK  6 active torsions:
REMARK  status: ('A' for Active; 'I' for Inactive)
REMARK    1  A    between atoms: C_2  and  N_3 
REMARK    2  A    between atoms: C_2  and  C_12 
REMARK       I    between atoms: N_3  and  C_4 
REMARK    3  A    between atoms: C_4  and  C_5 
REMARK    4  A    between atoms: C_12  and  C_13 
REMARK       I    between atoms: C_13  and  N_14 
REMARK    5  A    between atoms: N_14  and  C_15 
REMARK    6  A    between atoms: C_17  and  C_18 
ROOT
HETATM    1  C   UNL     1      43.130 -13.830   3.939  1.00  0.00     0.224 C 
HETATM    2  N   UNL     1      42.552 -15.001   4.392  1.00  0.00    -0.327 N 
HETATM    3  O   UNL     1      44.318 -13.652   3.686  1.00  0.00    -0.273 OA
HETATM    4  H   UNL     1      41.542 -15.015   4.466  1.00  0.00     0.169 HD
ENDROOT
BRANCH   1   5
HETATM    5  C   UNL     1      42.132 -12.715   3.709  1.00  0.00     0.128 C 
BRANCH   5   6
HETATM    6  C   UNL     1      40.897 -13.244   2.972  1.00  0.00     0.089 C 
HETATM    7  C   UNL     1      39.642 -12.425   3.283  1.00  0.00     0.032 C 
BRANCH   6   8
HETATM    8  N   UNL     1      41.131 -13.337   1.531  1.00  0.00    -0.352 N 
HETATM    9  C   UNL     1      41.351 -14.529   0.870  1.00  0.00     0.252 C 
HETATM   10  O   UNL     1      41.435 -15.611   1.439  1.00  0.00    -0.268 OA
HETATM   11  H   UNL     1      40.859 -12.532   0.982  1.00  0.00     0.163 HD
BRANCH   9  12
HETATM   12  C   UNL     1      41.420 -14.450  -0.618  1.00  0.00     0.032 A 
HETATM   13  C   UNL     1      41.925 -13.324  -1.282  1.00  0.00     0.017 A 
HETATM   14  C   UNL     1      41.945 -13.287  -2.679  1.00  0.00     0.001 A 
HETATM   15  C   UNL     1      41.473 -14.374  -3.414  1.00  0.00     0.000 A 
HETATM   16  C   UNL     1      40.989 -15.505  -2.758  1.00  0.00     0.001 A 
HETATM   17  C   UNL     1      40.966 -15.545  -1.362  1.00  0.00     0.017 A 
ENDBRANCH   9  12
ENDBRANCH   6   8
ENDBRANCH   5   6
ENDBRANCH   1   5
BRANCH   2  18
HETATM   18  C   UNL     1      43.214 -16.194   4.756  1.00  0.00     0.035 A 
HETATM   19  C   UNL     1      43.269 -17.334   3.947  1.00  0.00     0.042 A 
HETATM   20  C   UNL     1      43.968 -18.484   4.352  1.00  0.00    -0.021 A 
HETATM   21  C   UNL     1      44.607 -18.480   5.597  1.00  0.00     0.012 A 
HETATM   22  C   UNL     1      44.555 -17.350   6.416  1.00  0.00     0.003 A 
HETATM   23  C   UNL     1      43.867 -16.212   5.993  1.00  0.00     0.029 A 
BRANCH  20  24
HETATM   24  C   UNL     1      44.039 -19.640   3.470  1.00  0.00     0.010 A 
HETATM   25  C   UNL     1      44.720 -20.873   3.617  1.00  0.00     0.152 A 
HETATM   26  N   UNL     1      44.539 -21.695   2.579  1.00  0.00    -0.187 NA
HETATM   27  N   UNL     1      43.752 -20.987   1.756  1.00  0.00    -0.289 N 
HETATM   28  H   UNL     1      43.478 -21.409   0.875  1.00  0.00     0.188 HD
HETATM   29  C   UNL     1      43.423 -19.755   2.242  1.00  0.00     0.123 A 
ENDBRANCH  20  24
ENDBRANCH   2  18
TORSDOF 6
ENDMDL
MODEL 6
REMARK VINA RESULT:      -7.8      2.330      7.791
REMARK  6 active torsions:
REMARK  status: ('A' for Active; 'I' for Inactive)
REMARK    1  A    between atoms: C_2  and  N_3 
REMARK    2  A    between atoms: C_2  and  C_12 
REMARK       I    between atoms: N_3  and  C_4 
REMARK    3  A    between atoms: C_4  and  C_5 
REMARK    4  A    between atoms: C_12  and  C_13 
REMARK       I    between atoms: C_13  and  N_14 
REMARK    5  A    between atoms: N_14  and  C_15 
REMARK    6  A    between atoms: C_17  and  C_18 
ROOT
HETATM    1  C   UNL     1      41.612 -16.811   0.818  1.00  0.00     0.224 C 
HETATM    2  N   UNL     1      42.912 -16.927   1.272  1.00  0.00    -0.327 N 
HETATM    3  O   UNL     1      40.605 -17.257   1.363  1.00  0.00    -0.273 OA
HETATM    4  H   UNL     1      43.623 -16.423   0.755  1.00  0.00     0.169 HD
ENDROOT
BRANCH   1   5
HETATM    5  C   UNL     1      41.486 -16.002  -0.455  1.00  0.00     0.128 C 
BRANCH   5   6
HETATM    6  C   UNL     1      41.329 -14.512  -0.131  1.00  0.00     0.089 C 
HETATM    7  C   UNL     1      40.475 -13.780  -1.168  1.00  0.00     0.032 C 
BRANCH   6   8
HETATM    8  N   UNL     1      40.816 -14.309   1.224  1.00  0.00    -0.352 N 
HETATM    9  C   UNL     1      41.497 -13.610   2.200  1.00  0.00     0.252 C 
HETATM   10  O   UNL     1      42.623 -13.152   2.042  1.00  0.00    -0.268 OA
HETATM   11  H   UNL     1      39.824 -14.461   1.352  1.00  0.00     0.163 HD
BRANCH   9  12
HETATM   12  C   UNL     1      40.758 -13.373   3.473  1.00  0.00     0.032 A 
HETATM   13  C   UNL     1      39.937 -12.253   3.661  1.00  0.00     0.017 A 
HETATM   14  C   UNL     1      39.284 -12.060   4.882  1.00  0.00     0.001 A 
HETATM   15  C   UNL     1      39.440 -12.988   5.912  1.00  0.00     0.000 A 
HETATM   16  C   UNL     1      40.239 -14.115   5.723  1.00  0.00     0.001 A 
HETATM   17  C   UNL     1      40.894 -14.309   4.505  1.00  0.00     0.017 A 
ENDBRANCH   9  12
ENDBRANCH   6   8
ENDBRANCH   5   6
ENDBRANCH   1   5
BRANCH   2  18
HETATM   18  C   UNL     1      43.365 -17.663   2.388  1.00  0.00     0.035 A 
HETATM   19  C   UNL     1      43.304 -17.198   3.706  1.00  0.00     0.042 A 
HETATM   20  C   UNL     1      43.745 -17.989   4.780  1.00  0.00    -0.021 A 
HETATM   21  C   UNL     1      44.265 -19.261   4.511  1.00  0.00     0.012 A 
HETATM   22  C   UNL     1      44.334 -19.734   3.200  1.00  0.00     0.003 A 
HETATM   23  C   UNL     1      43.881 -18.941   2.145  1.00  0.00     0.029 A 
BRANCH  20  24
HETATM   24  C   UNL     1      43.633 -17.492   6.144  1.00  0.00     0.010 A 
HETATM   25  C   UNL     1      43.510 -18.186   7.373  1.00  0.00     0.152 A 
HETATM   26  N   UNL     1      43.434 -17.368   8.426  1.00  0.00    -0.187 NA
HETATM   27  N   UNL     1      43.494 -16.146   7.877  1.00  0.00    -0.289 N 
HETATM   28  H   UNL     1      43.446 -15.340   8.493  1.00  0.00     0.188 HD
HETATM   29  C   UNL     1      43.616 -16.164   6.518  1.00  0.00     0.123 A 
ENDBRANCH  20  24
ENDBRANCH   2  18
TORSDOF 6
ENDMDL
MODEL 7
REMARK VINA RESULT:      -7.8      2.548      7.156
REMARK  6 active torsions:
REMARK  status: ('A' for Active; 'I' for Inactive)
REMARK    1  A    between atoms: C_2  and  N_3 
REMARK    2  A    between atoms: C_2  and  C_12 
REMARK       I    between atoms: N_3  and  C_4 
REMARK    3  A    between atoms: C_4  and  C_5 
REMARK    4  A    between atoms: C_12  and  C_13 
REMARK       I    between atoms: C_13  and  N_14 
REMARK    5  A    between atoms: N_14  and  C_15 
REMARK    6  A    between atoms: C_17  and  C_18 
ROOT
HETATM    1  C   UNL     1      42.984 -13.983   5.080  1.00  0.00     0.224 C 
HETATM    2  N   UNL     1      42.580 -15.242   5.482  1.00  0.00    -0.327 N 
HETATM    3  O   UNL     1      44.076 -13.681   4.606  1.00  0.00    -0.273 OA
HETATM    4  H   UNL     1      41.613 -15.344   5.766  1.00  0.00     0.169 HD
ENDROOT
BRANCH   1   5
HETATM    5  C   UNL     1      41.905 -12.930   5.221  1.00  0.00     0.128 C 
BRANCH   5   6
HETATM    6  C   UNL     1      40.519 -13.551   5.019  1.00  0.00     0.089 C 
HETATM    7  C   UNL     1      39.470 -12.948   5.956  1.00  0.00     0.032 C 
BRANCH   6   8
HETATM    8  N   UNL     1      40.094 -13.473   3.621  1.00  0.00    -0.352 N 
HETATM    9  C   UNL     1      40.160 -14.537   2.744  1.00  0.00     0.252 C 
HETATM   10  O   UNL     1      40.640 -15.625   3.037  1.00  0.00    -0.268 OA
HETATM   11  H   UNL     1      39.496 -12.694   3.381  1.00  0.00     0.163 HD
BRANCH   9  12
HETATM   12  C   UNL     1      39.544 -14.319   1.403  1.00  0.00     0.032 A 
HETATM   13  C   UNL     1      40.304 -14.320   0.225  1.00  0.00     0.017 A 
HETATM   14  C   UNL     1      39.685 -14.085  -1.006  1.00  0.00     0.001 A 
HETATM   15  C   UNL     1      38.309 -13.861  -1.066  1.00  0.00     0.000 A 
HETATM   16  C   UNL     1      37.546 -13.881   0.100  1.00  0.00     0.001 A 
HETATM   17  C   UNL     1      38.162 -14.113   1.332  1.00  0.00     0.017 A 
ENDBRANCH   9  12
ENDBRANCH   6   8
ENDBRANCH   5   6
ENDBRANCH   1   5
BRANCH   2  18
HETATM   18  C   UNL     1      43.365 -16.414   5.531  1.00  0.00     0.035 A 
HETATM   19  C   UNL     1      43.317 -17.427   4.567  1.00  0.00     0.042 A 
HETATM   20  C   UNL     1      44.144 -18.559   4.655  1.00  0.00    -0.021 A 
HETATM   21  C   UNL     1      45.021 -18.670   5.741  1.00  0.00     0.012 A 
HETATM   22  C   UNL     1      45.075 -17.668   6.711  1.00  0.00     0.003 A 
HETATM   23  C   UNL     1      44.256 -16.544   6.602  1.00  0.00     0.029 A 
BRANCH  20  24
HETATM   24  C   UNL     1      44.097 -19.578   3.615  1.00  0.00     0.010 A 
HETATM   25  C   UNL     1      43.371 -19.623   2.399  1.00  0.00     0.152 A 
HETATM   26  N   UNL     1      43.595 -20.740   1.702  1.00  0.00    -0.187 NA
HETATM   27  N   UNL     1      44.454 -21.422   2.473  1.00  0.00    -0.289 N 
HETATM   28  H   UNL     1      44.772 -22.330   2.149  1.00  0.00     0.188 HD
HETATM   29  C   UNL     1      44.787 -20.771   3.626  1.00  0.00     0.123 A 
ENDBRANCH  20  24
ENDBRANCH   2  18
TORSDOF 6
ENDMDL
MODEL 8
REMARK VINA RESULT:      -7.6      2.278      3.341
REMARK  6 active torsions:
REMARK  status: ('A' for Active; 'I' for Inactive)
REMARK    1  A    between atoms: C_2  and  N_3 
REMARK    2  A    between atoms: C_2  and  C_12 
REMARK       I    between atoms: N_3  and  C_4 
REMARK    3  A    between atoms: C_4  and  C_5 
REMARK    4  A    between atoms: C_12  and  C_13 
REMARK       I    between atoms: C_13  and  N_14 
REMARK    5  A    between atoms: N_14  and  C_15 
REMARK    6  A    between atoms: C_17  and  C_18 
ROOT
HETATM    1  C   UNL     1      42.342 -16.835   7.122  1.00  0.00     0.224 C 
HETATM    2  N   UNL     1      42.553 -15.679   6.395  1.00  0.00    -0.327 N 
HETATM    3  O   UNL     1      41.440 -17.650   6.953  1.00  0.00    -0.273 OA
HETATM    4  H   UNL     1      43.399 -15.158   6.598  1.00  0.00     0.169 HD
ENDROOT
BRANCH   1   5
HETATM    5  C   UNL     1      43.394 -17.082   8.182  1.00  0.00     0.128 C 
BRANCH   5   6
HETATM    6  C   UNL     1      44.219 -18.328   7.841  1.00  0.00     0.089 C 
HETATM    7  C   UNL     1      44.063 -19.431   8.890  1.00  0.00     0.032 C 
BRANCH   6   8
HETATM    8  N   UNL     1      43.916 -18.820   6.498  1.00  0.00    -0.352 N 
HETATM    9  C   UNL     1      44.838 -18.849   5.470  1.00  0.00     0.252 C 
HETATM   10  O   UNL     1      45.975 -18.405   5.571  1.00  0.00    -0.268 OA
HETATM   11  H   UNL     1      43.088 -19.394   6.410  1.00  0.00     0.163 HD
BRANCH   9  12
HETATM   12  C   UNL     1      44.399 -19.523   4.215  1.00  0.00     0.032 A 
HETATM   13  C   UNL     1      44.807 -20.823   3.885  1.00  0.00     0.017 A 
HETATM   14  C   UNL     1      44.390 -21.403   2.683  1.00  0.00     0.001 A 
HETATM   15  C   UNL     1      43.559 -20.694   1.816  1.00  0.00     0.000 A 
HETATM   16  C   UNL     1      43.133 -19.409   2.150  1.00  0.00     0.001 A 
HETATM   17  C   UNL     1      43.549 -18.826   3.349  1.00  0.00     0.017 A 
ENDBRANCH   9  12
ENDBRANCH   6   8
ENDBRANCH   5   6
ENDBRANCH   1   5
BRANCH   2  18
HETATM   18  C   UNL     1      41.725 -15.142   5.386  1.00  0.00     0.035 A 
HETATM   19  C   UNL     1      41.976 -15.276   4.016  1.00  0.00     0.042 A 
HETATM   20  C   UNL     1      41.099 -14.743   3.057  1.00  0.00    -0.021 A 
HETATM   21  C   UNL     1      39.960 -14.055   3.494  1.00  0.00     0.012 A 
HETATM   22  C   UNL     1      39.701 -13.911   4.858  1.00  0.00     0.003 A 
HETATM   23  C   UNL     1      40.577 -14.457   5.798  1.00  0.00     0.029 A 
BRANCH  20  24
HETATM   24  C   UNL     1      41.369 -14.933   1.639  1.00  0.00     0.010 A 
HETATM   25  C   UNL     1      41.211 -14.050   0.543  1.00  0.00     0.152 A 
HETATM   26  N   UNL     1      41.573 -14.596  -0.621  1.00  0.00    -0.187 NA
HETATM   27  N   UNL     1      41.951 -15.836  -0.279  1.00  0.00    -0.289 N 
HETATM   28  H   UNL     1      42.268 -16.461  -1.014  1.00  0.00     0.188 HD
HETATM   29  C   UNL     1      41.851 -16.088   1.059  1.00  0.00     0.123 A 
ENDBRANCH  20  24
ENDBRANCH   2  18
TORSDOF 6
ENDMDL
MODEL 9
REMARK VINA RESULT:      -7.3      2.791      8.966
REMARK  6 active torsions:
REMARK  status: ('A' for Active; 'I' for Inactive)
REMARK    1  A    between atoms: C_2  and  N_3 
REMARK    2  A    between atoms: C_2  and  C_12 
REMARK       I    between atoms: N_3  and  C_4 
REMARK    3  A    between atoms: C_4  and  C_5 
REMARK    4  A    between atoms: C_12  and  C_13 
REMARK       I    between atoms: C_13  and  N_14 
REMARK    5  A    between atoms: N_14  and  C_15 
REMARK    6  A    between atoms: C_17  and  C_18 
ROOT
HETATM    1  C   UNL     1      41.729 -17.009   1.102  1.00  0.00     0.224 C 
HETATM    2  N   UNL     1      43.038 -17.286   1.451  1.00  0.00    -0.327 N 
HETATM    3  O   UNL     1      40.725 -17.292   1.749  1.00  0.00    -0.273 OA
HETATM    4  H   UNL     1      43.762 -16.903   0.854  1.00  0.00     0.169 HD
ENDROOT
BRANCH   1   5
HETATM    5  C   UNL     1      41.601 -16.234  -0.192  1.00  0.00     0.128 C 
BRANCH   5   6
HETATM    6  C   UNL     1      40.786 -14.955   0.026  1.00  0.00     0.089 C 
HETATM    7  C   UNL     1      41.673 -13.712   0.129  1.00  0.00     0.032 C 
BRANCH   6   8
HETATM    8  N   UNL     1      39.756 -14.793  -1.000  1.00  0.00    -0.352 N 
HETATM    9  C   UNL     1      38.830 -13.770  -0.997  1.00  0.00     0.252 C 
HETATM   10  O   UNL     1      38.745 -12.939  -0.099  1.00  0.00    -0.268 OA
HETATM   11  H   UNL     1      39.907 -15.296  -1.865  1.00  0.00     0.163 HD
BRANCH   9  12
HETATM   12  C   UNL     1      37.954 -13.675  -2.199  1.00  0.00     0.032 A 
HETATM   13  C   UNL     1      37.726 -14.770  -3.044  1.00  0.00     0.017 A 
HETATM   14  C   UNL     1      36.918 -14.624  -4.175  1.00  0.00     0.001 A 
HETATM   15  C   UNL     1      36.326 -13.393  -4.458  1.00  0.00     0.000 A 
HETATM   16  C   UNL     1      36.532 -12.307  -3.609  1.00  0.00     0.001 A 
HETATM   17  C   UNL     1      37.341 -12.448  -2.479  1.00  0.00     0.017 A 
ENDBRANCH   9  12
ENDBRANCH   6   8
ENDBRANCH   5   6
ENDBRANCH   1   5
BRANCH   2  18
HETATM   18  C   UNL     1      43.485 -18.038   2.558  1.00  0.00     0.035 A 
HETATM   19  C   UNL     1      43.418 -17.592   3.883  1.00  0.00     0.042 A 
HETATM   20  C   UNL     1      43.854 -18.399   4.947  1.00  0.00    -0.021 A 
HETATM   21  C   UNL     1      44.375 -19.667   4.663  1.00  0.00     0.012 A 
HETATM   22  C   UNL     1      44.451 -20.121   3.345  1.00  0.00     0.003 A 
HETATM   23  C   UNL     1      44.003 -19.312   2.300  1.00  0.00     0.029 A 
BRANCH  20  24
HETATM   24  C   UNL     1      43.736 -17.921   6.318  1.00  0.00     0.010 A 
HETATM   25  C   UNL     1      43.676 -16.603   6.834  1.00  0.00     0.152 A 
HETATM   26  N   UNL     1      43.566 -16.571   8.165  1.00  0.00    -0.187 NA
HETATM   27  N   UNL     1      43.568 -17.867   8.509  1.00  0.00    -0.289 N 
HETATM   28  H   UNL     1      43.500 -18.101   9.495  1.00  0.00     0.188 HD
HETATM   29  C   UNL     1      43.666 -18.714   7.444  1.00  0.00     0.123 A 
ENDBRANCH  20  24
ENDBRANCH   2  18
TORSDOF 6
ENDMDL
MODEL 10
REMARK VINA RESULT:      -7.3      2.589      7.562
REMARK  6 active torsions:
REMARK  status: ('A' for Active; 'I' for Inactive)
REMARK    1  A    between atoms: C_2  and  N_3 
REMARK    2  A    between atoms: C_2  and  C_12 
REMARK       I    between atoms: N_3  and  C_4 
REMARK    3  A    between atoms: C_4  and  C_5 
REMARK    4  A    between atoms: C_12  and  C_13 
REMARK       I    between atoms: C_13  and  N_14 
REMARK    5  A    between atoms: N_14  and  C_15 
REMARK    6  A    between atoms: C_17  and  C_18 
ROOT
HETATM    1  C   UNL     1      41.590 -16.055   0.391  1.00  0.00     0.224 C 
HETATM    2  N   UNL     1      42.795 -16.092   1.067  1.00  0.00    -0.327 N 
HETATM    3  O   UNL     1      40.583 -16.704   0.656  1.00  0.00    -0.273 OA
HETATM    4  H   UNL     1      43.502 -15.426   0.780  1.00  0.00     0.169 HD
ENDROOT
BRANCH   1   5
HETATM    5  C   UNL     1      41.568 -15.058  -0.748  1.00  0.00     0.128 C 
BRANCH   5   6
HETATM    6  C   UNL     1      40.614 -13.902  -0.432  1.00  0.00     0.089 C 
HETATM    7  C   UNL     1      39.351 -13.939  -1.295  1.00  0.00     0.032 C 
BRANCH   6   8
HETATM    8  N   UNL     1      40.287 -13.851   0.993  1.00  0.00    -0.352 N 
HETATM    9  C   UNL     1      40.865 -12.963   1.877  1.00  0.00     0.252 C 
HETATM   10  O   UNL     1      41.753 -12.179   1.563  1.00  0.00    -0.268 OA
HETATM   11  H   UNL     1      39.424 -14.302   1.268  1.00  0.00     0.163 HD
BRANCH   9  12
HETATM   12  C   UNL     1      40.302 -12.951   3.258  1.00  0.00     0.032 A 
HETATM   13  C   UNL     1      39.717 -11.806   3.815  1.00  0.00     0.017 A 
HETATM   14  C   UNL     1      39.227 -11.837   5.123  1.00  0.00     0.001 A 
HETATM   15  C   UNL     1      39.307 -13.010   5.873  1.00  0.00     0.000 A 
HETATM   16  C   UNL     1      39.869 -14.158   5.316  1.00  0.00     0.001 A 
HETATM   17  C   UNL     1      40.362 -14.130   4.009  1.00  0.00     0.017 A 
ENDBRANCH   9  12
ENDBRANCH   6   8
ENDBRANCH   5   6
ENDBRANCH   1   5
BRANCH   2  18
HETATM   18  C   UNL     1      43.152 -16.951   2.128  1.00  0.00     0.035 A 
HETATM   19  C   UNL     1      43.434 -18.312   1.970  1.00  0.00     0.042 A 
HETATM   20  C   UNL     1      43.811 -19.112   3.063  1.00  0.00    -0.021 A 
HETATM   21  C   UNL     1      43.892 -18.525   4.331  1.00  0.00     0.012 A 
HETATM   22  C   UNL     1      43.609 -17.168   4.502  1.00  0.00     0.003 A 
HETATM   23  C   UNL     1      43.247 -16.386   3.405  1.00  0.00     0.029 A 
BRANCH  20  24
HETATM   24  C   UNL     1      44.135 -20.517   2.859  1.00  0.00     0.010 A 
HETATM   25  C   UNL     1      43.977 -21.344   1.720  1.00  0.00     0.152 A 
HETATM   26  N   UNL     1      44.399 -22.595   1.925  1.00  0.00    -0.187 NA
HETATM   27  N   UNL     1      44.815 -22.580   3.199  1.00  0.00    -0.289 N 
HETATM   28  H   UNL     1      45.181 -23.440   3.595  1.00  0.00     0.188 HD
HETATM   29  C   UNL     1      44.681 -21.362   3.802  1.00  0.00     0.123 A 
ENDBRANCH  20  24
ENDBRANCH   2  18
TORSDOF 6
ENDMDL
