MODEL 1
REMARK VINA RESULT:      -9.2      0.000      0.000
REMARK  5 active torsions:
REMARK  status: ('A' for Active; 'I' for Inactive)
REMARK    1  A    between atoms: C_8  and  N_9 
REMARK       I    between atoms: N_9  and  C_10 
REMARK    2  A    between atoms: C_10  and  C_11 
REMARK    3  A    between atoms: C_11  and  C_12 
REMARK    4  A    between atoms: C_14  and  N_15 
REMARK       I    between atoms: N_15  and  C_16 
REMARK       I    between atoms: C_16  and  N_17 
REMARK    5  A    between atoms: N_17  and  C_18 
ROOT
HETATM    1  C   UNL     1      42.380 -15.669   5.141  1.00  0.00     0.052 A 
HETATM    2  N   UNL     1      42.456 -15.315   3.802  1.00  0.00    -0.228 NA
HETATM    3  C   UNL     1      41.413 -14.595   3.474  1.00  0.00     0.174 A 
HETATM    4  S   UNL     1      40.284 -14.289   4.716  1.00  0.00    -0.062 SA
HETATM    5  C   UNL     1      41.260 -15.194   5.799  1.00  0.00     0.081 A 
ENDROOT
BRANCH   1   6
HETATM    6  C   UNL     1      43.461 -16.525   5.708  1.00  0.00     0.163 C 
BRANCH   6   7
HETATM    7  C   UNL     1      43.247 -18.007   5.443  1.00  0.00     0.227 C 
HETATM    8  N   UNL     1      44.414 -18.696   5.150  1.00  0.00    -0.326 N 
HETATM    9  H   UNL     1      45.275 -18.201   5.385  1.00  0.00     0.169 HD
HETATM   10  O   UNL     1      42.109 -18.475   5.448  1.00  0.00    -0.273 OA
BRANCH   8  11
HETATM   11  C   UNL     1      44.540 -20.013   4.637  1.00  0.00     0.042 A 
HETATM   12  C   UNL     1      44.364 -20.242   3.249  1.00  0.00    -0.014 A 
HETATM   13  C   UNL     1      44.135 -19.093   2.301  1.00  0.00     0.052 C 
HETATM   14  C   UNL     1      44.368 -21.572   2.776  1.00  0.00     0.042 A 
HETATM   15 CL   UNL     1      44.079 -21.968   1.115  1.00  0.00    -0.084 Cl
HETATM   16  C   UNL     1      44.592 -22.644   3.642  1.00  0.00     0.024 A 
HETATM   17  C   UNL     1      44.805 -22.410   4.993  1.00  0.00     0.004 A 
HETATM   18  C   UNL     1      44.773 -21.105   5.485  1.00  0.00     0.030 A 
ENDBRANCH   8  11
ENDBRANCH   6   7
ENDBRANCH   1   6
BRANCH   3  19
HETATM   19  N   UNL     1      41.108 -14.002   2.281  1.00  0.00    -0.287 N 
HETATM   20  C   UNL     1      40.390 -14.658   1.302  1.00  0.00     0.326 C 
HETATM   21  N   UNL     1      40.449 -13.965   0.101  1.00  0.00    -0.309 N 
HETATM   22  O   UNL     1      39.811 -15.724   1.463  1.00  0.00    -0.247 OA
HETATM   23  H   UNL     1      40.847 -13.039   0.131  1.00  0.00     0.170 HD
HETATM   24  H   UNL     1      41.450 -13.068   2.143  1.00  0.00     0.172 HD
BRANCH  21  25
HETATM   25  C   UNL     1      40.038 -14.417  -1.171  1.00  0.00     0.036 A 
HETATM   26  C   UNL     1      38.825 -14.068  -1.773  1.00  0.00     0.032 A 
HETATM   27  C   UNL     1      38.470 -14.604  -3.016  1.00  0.00     0.044 A 
HETATM   28  C   UNL     1      39.328 -15.485  -3.657  1.00  0.00     0.116 A 
HETATM   29  F   UNL     1      38.983 -16.003  -4.842  1.00  0.00    -0.206 F 
HETATM   30  C   UNL     1      40.542 -15.838  -3.082  1.00  0.00     0.044 A 
HETATM   31  C   UNL     1      40.896 -15.305  -1.839  1.00  0.00     0.032 A 
ENDBRANCH  21  25
ENDBRANCH   3  19
TORSDOF 5
ENDMDL
MODEL 2
REMARK VINA RESULT:      -8.9      6.099      9.157
REMARK  5 active torsions:
REMARK  status: ('A' for Active; 'I' for Inactive)
REMARK    1  A    between atoms: C_8  and  N_9 
REMARK       I    between atoms: N_9  and  C_10 
REMARK    2  A    between atoms: C_10  and  C_11 
REMARK    3  A    between atoms: C_11  and  C_12 
REMARK    4  A    between atoms: C_14  and  N_15 
REMARK       I    between atoms: N_15  and  C_16 
REMARK       I    between atoms: C_16  and  N_17 
REMARK    5  A    between atoms: N_17  and  C_18 
ROOT
HETATM    1  C   UNL     1      39.660 -11.400   6.102  1.00  0.00     0.052 A 
HETATM    2  N   UNL     1      39.826 -12.728   6.467  1.00  0.00    -0.228 NA
HETATM    3  C   UNL     1      39.704 -13.497   5.416  1.00  0.00     0.174 A 
HETATM    4  S   UNL     1      39.390 -12.710   3.935  1.00  0.00    -0.062 SA
HETATM    5  C   UNL     1      39.414 -11.202   4.755  1.00  0.00     0.081 A 
ENDROOT
BRANCH   1   6
HETATM    6  C   UNL     1      39.727 -10.360   7.167  1.00  0.00     0.163 C 
BRANCH   6   7
HETATM    7  C   UNL     1      41.135 -10.148   7.704  1.00  0.00     0.227 C 
HETATM    8  N   UNL     1      41.488 -11.035   8.709  1.00  0.00    -0.326 N 
HETATM    9  H   UNL     1      40.882 -11.852   8.792  1.00  0.00     0.169 HD
HETATM   10  O   UNL     1      41.821  -9.220   7.279  1.00  0.00    -0.273 OA
BRANCH   8  11
HETATM   11  C   UNL     1      42.615 -10.969   9.569  1.00  0.00     0.042 A 
HETATM   12  C   UNL     1      42.462 -10.462  10.883  1.00  0.00    -0.014 A 
HETATM   13  C   UNL     1      41.103 -10.079  11.408  1.00  0.00     0.052 C 
HETATM   14  C   UNL     1      43.614 -10.287  11.680  1.00  0.00     0.042 A 
HETATM   15 CL   UNL     1      43.549  -9.598  13.268  1.00  0.00    -0.084 Cl
HETATM   16  C   UNL     1      44.877 -10.651  11.210  1.00  0.00     0.024 A 
HETATM   17  C   UNL     1      45.015 -11.185   9.937  1.00  0.00     0.004 A 
HETATM   18  C   UNL     1      43.893 -11.337   9.123  1.00  0.00     0.030 A 
ENDBRANCH   8  11
ENDBRANCH   6   7
ENDBRANCH   1   6
BRANCH   3  19
HETATM   19  N   UNL     1      39.838 -14.853   5.311  1.00  0.00    -0.287 N 
HETATM   20  C   UNL     1      41.064 -15.451   5.102  1.00  0.00     0.326 C 
HETATM   21  N   UNL     1      40.906 -16.787   4.757  1.00  0.00    -0.309 N 
HETATM   22  O   UNL     1      42.140 -14.874   5.176  1.00  0.00    -0.247 OA
HETATM   23  H   UNL     1      39.981 -17.175   4.856  1.00  0.00     0.170 HD
HETATM   24  H   UNL     1      38.995 -15.394   5.373  1.00  0.00     0.172 HD
BRANCH  21  25
HETATM   25  C   UNL     1      41.891 -17.665   4.256  1.00  0.00     0.036 A 
HETATM   26  C   UNL     1      42.764 -18.406   5.059  1.00  0.00     0.032 A 
HETATM   27  C   UNL     1      43.749 -19.213   4.480  1.00  0.00     0.044 A 
HETATM   28  C   UNL     1      43.858 -19.282   3.099  1.00  0.00     0.116 A 
HETATM   29  F   UNL     1      44.806 -20.049   2.546  1.00  0.00    -0.206 F 
HETATM   30  C   UNL     1      42.997 -18.563   2.282  1.00  0.00     0.044 A 
HETATM   31  C   UNL     1      42.014 -17.754   2.860  1.00  0.00     0.032 A 
ENDBRANCH  21  25
ENDBRANCH   3  19
TORSDOF 5
ENDMDL
MODEL 3
REMARK VINA RESULT:      -8.8      6.167      9.162
REMARK  5 active torsions:
REMARK  status: ('A' for Active; 'I' for Inactive)
REMARK    1  A    between atoms: C_8  and  N_9 
REMARK       I    between atoms: N_9  and  C_10 
REMARK    2  A    between atoms: C_10  and  C_11 
REMARK    3  A    between atoms: C_11  and  C_12 
REMARK    4  A    between atoms: C_14  and  N_15 
REMARK       I    between atoms: N_15  and  C_16 
REMARK       I    between atoms: C_16  and  N_17 
REMARK    5  A    between atoms: N_17  and  C_18 
ROOT
HETATM    1  C   UNL     1      41.452 -12.159   3.679  1.00  0.00     0.052 A 
HETATM    2  N   UNL     1      41.705 -12.404   5.021  1.00  0.00    -0.228 NA
HETATM    3  C   UNL     1      40.852 -11.744   5.761  1.00  0.00     0.174 A 
HETATM    4  S   UNL     1      39.700 -10.798   4.930  1.00  0.00    -0.062 SA
HETATM    5  C   UNL     1      40.390 -11.303   3.442  1.00  0.00     0.081 A 
ENDROOT
BRANCH   1   6
HETATM    6  C   UNL     1      42.340 -12.793   2.664  1.00  0.00     0.163 C 
BRANCH   6   7
HETATM    7  C   UNL     1      43.194 -13.913   3.238  1.00  0.00     0.227 C 
HETATM    8  N   UNL     1      42.560 -15.146   3.255  1.00  0.00    -0.326 N 
HETATM    9  H   UNL     1      41.724 -15.206   2.673  1.00  0.00     0.169 HD
HETATM   10  O   UNL     1      44.315 -13.667   3.681  1.00  0.00    -0.273 OA
BRANCH   8  11
HETATM   11  C   UNL     1      42.976 -16.328   3.922  1.00  0.00     0.042 A 
HETATM   12  C   UNL     1      43.592 -17.367   3.182  1.00  0.00    -0.014 A 
HETATM   13  C   UNL     1      43.893 -17.196   1.715  1.00  0.00     0.052 C 
HETATM   14  C   UNL     1      43.884 -18.584   3.836  1.00  0.00     0.042 A 
HETATM   15 CL   UNL     1      44.559 -19.946   3.007  1.00  0.00    -0.084 Cl
HETATM   16  C   UNL     1      43.622 -18.750   5.198  1.00  0.00     0.024 A 
HETATM   17  C   UNL     1      43.057 -17.713   5.925  1.00  0.00     0.004 A 
HETATM   18  C   UNL     1      42.732 -16.514   5.290  1.00  0.00     0.030 A 
ENDBRANCH   8  11
ENDBRANCH   6   7
ENDBRANCH   1   6
BRANCH   3  19
HETATM   19  N   UNL     1      40.709 -11.732   7.121  1.00  0.00    -0.287 N 
HETATM   20  C   UNL     1      41.439 -10.880   7.923  1.00  0.00     0.326 C 
HETATM   21  N   UNL     1      41.325 -11.244   9.258  1.00  0.00    -0.309 N 
HETATM   22  O   UNL     1      42.121  -9.951   7.511  1.00  0.00    -0.247 OA
HETATM   23  H   UNL     1      40.634 -11.943   9.480  1.00  0.00     0.170 HD
HETATM   24  H   UNL     1      40.059 -12.391   7.510  1.00  0.00     0.172 HD
BRANCH  21  25
HETATM   25  C   UNL     1      42.087 -10.765  10.346  1.00  0.00     0.036 A 
HETATM   26  C   UNL     1      43.356 -11.244  10.685  1.00  0.00     0.032 A 
HETATM   27  C   UNL     1      44.022 -10.752  11.813  1.00  0.00     0.044 A 
HETATM   28  C   UNL     1      43.420  -9.779  12.598  1.00  0.00     0.116 A 
HETATM   29  F   UNL     1      44.055  -9.314  13.681  1.00  0.00    -0.206 F 
HETATM   30  C   UNL     1      42.165  -9.283  12.275  1.00  0.00     0.044 A 
HETATM   31  C   UNL     1      41.498  -9.776  11.150  1.00  0.00     0.032 A 
ENDBRANCH  21  25
ENDBRANCH   3  19
TORSDOF 5
ENDMDL
MODEL 4
REMARK VINA RESULT:      -8.7      6.246      9.250
REMARK  5 active torsions:
REMARK  status: ('A' for Active; 'I' for Inactive)
REMARK    1  A    between atoms: C_8  and  N_9 
REMARK       I    between atoms: N_9  and  C_10 
REMARK    2  A    between atoms: C_10  and  C_11 
REMARK    3  A    between atoms: C_11  and  C_12 
REMARK    4  A    between atoms: C_14  and  N_15 
REMARK       I    between atoms: N_15  and  C_16 
REMARK       I    between atoms: C_16  and  N_17 
REMARK    5  A    between atoms: N_17  and  C_18 
ROOT
HETATM    1  C   UNL     1      41.801 -12.507   4.084  1.00  0.00     0.052 A 
HETATM    2  N   UNL     1      41.914 -12.590   5.464  1.00  0.00    -0.228 NA
HETATM    3  C   UNL     1      41.031 -11.807   6.030  1.00  0.00     0.174 A 
HETATM    4  S   UNL     1      40.016 -10.927   4.978  1.00  0.00    -0.062 SA
HETATM    5  C   UNL     1      40.814 -11.645   3.639  1.00  0.00     0.081 A 
ENDROOT
BRANCH   1   6
HETATM    6  C   UNL     1      42.746 -13.301   3.248  1.00  0.00     0.163 C 
BRANCH   6   7
HETATM    7  C   UNL     1      42.414 -14.785   3.224  1.00  0.00     0.227 C 
HETATM    8  N   UNL     1      43.515 -15.607   3.413  1.00  0.00    -0.326 N 
HETATM    9  H   UNL     1      44.342 -15.136   3.784  1.00  0.00     0.169 HD
HETATM   10  O   UNL     1      41.263 -15.155   2.995  1.00  0.00    -0.273 OA
BRANCH   8  11
HETATM   11  C   UNL     1      43.596 -17.010   3.220  1.00  0.00     0.042 A 
HETATM   12  C   UNL     1      43.801 -17.858   4.337  1.00  0.00    -0.014 A 
HETATM   13  C   UNL     1      43.844 -17.296   5.735  1.00  0.00     0.052 C 
HETATM   14  C   UNL     1      44.004 -19.237   4.113  1.00  0.00     0.042 A 
HETATM   15 CL   UNL     1      44.347 -20.346   5.398  1.00  0.00    -0.084 Cl
HETATM   16  C   UNL     1      43.954 -19.772   2.824  1.00  0.00     0.024 A 
HETATM   17  C   UNL     1      43.711 -18.942   1.739  1.00  0.00     0.004 A 
HETATM   18  C   UNL     1      43.539 -17.572   1.937  1.00  0.00     0.030 A 
ENDBRANCH   8  11
ENDBRANCH   6   7
ENDBRANCH   1   6
BRANCH   3  19
HETATM   19  N   UNL     1      40.763 -11.616   7.356  1.00  0.00    -0.287 N 
HETATM   20  C   UNL     1      41.573 -10.842   8.161  1.00  0.00     0.326 C 
HETATM   21  N   UNL     1      41.256 -11.026   9.500  1.00  0.00    -0.309 N 
HETATM   22  O   UNL     1      42.471 -10.118   7.752  1.00  0.00    -0.247 OA
HETATM   23  H   UNL     1      40.415 -11.546   9.700  1.00  0.00     0.170 HD
HETATM   24  H   UNL     1      39.955 -12.085   7.723  1.00  0.00     0.172 HD
BRANCH  21  25
HETATM   25  C   UNL     1      41.991 -10.591  10.623  1.00  0.00     0.036 A 
HETATM   26  C   UNL     1      42.948 -11.368  11.284  1.00  0.00     0.032 A 
HETATM   27  C   UNL     1      43.595 -10.880  12.425  1.00  0.00     0.044 A 
HETATM   28  C   UNL     1      43.287  -9.614  12.902  1.00  0.00     0.116 A 
HETATM   29  F   UNL     1      43.900  -9.151  13.998  1.00  0.00    -0.206 F 
HETATM   30  C   UNL     1      42.346  -8.822  12.257  1.00  0.00     0.044 A 
HETATM   31  C   UNL     1      41.698  -9.310  11.119  1.00  0.00     0.032 A 
ENDBRANCH  21  25
ENDBRANCH   3  19
TORSDOF 5
ENDMDL
MODEL 5
REMARK VINA RESULT:      -8.7      2.428      2.664
REMARK  5 active torsions:
REMARK  status: ('A' for Active; 'I' for Inactive)
REMARK    1  A    between atoms: C_8  and  N_9 
REMARK       I    between atoms: N_9  and  C_10 
REMARK    2  A    between atoms: C_10  and  C_11 
REMARK    3  A    between atoms: C_11  and  C_12 
REMARK    4  A    between atoms: C_14  and  N_15 
REMARK       I    between atoms: N_15  and  C_16 
REMARK       I    between atoms: C_16  and  N_17 
REMARK    5  A    between atoms: N_17  and  C_18 
ROOT
HETATM    1  C   UNL     1      41.979 -15.536   3.801  1.00  0.00     0.052 A 
HETATM    2  N   UNL     1      42.634 -15.458   2.581  1.00  0.00    -0.228 NA
HETATM    3  C   UNL     1      41.759 -15.376   1.611  1.00  0.00     0.174 A 
HETATM    4  S   UNL     1      40.116 -15.385   2.071  1.00  0.00    -0.062 SA
HETATM    5  C   UNL     1      40.598 -15.509   3.713  1.00  0.00     0.081 A 
ENDROOT
BRANCH   1   6
HETATM    6  C   UNL     1      42.800 -15.671   5.037  1.00  0.00     0.163 C 
BRANCH   6   7
HETATM    7  C   UNL     1      43.211 -17.106   5.325  1.00  0.00     0.227 C 
HETATM    8  N   UNL     1      43.901 -17.709   4.284  1.00  0.00    -0.326 N 
HETATM    9  H   UNL     1      44.258 -17.064   3.577  1.00  0.00     0.169 HD
HETATM   10  O   UNL     1      42.880 -17.641   6.382  1.00  0.00    -0.273 OA
BRANCH   8  11
HETATM   11  C   UNL     1      44.220 -19.083   4.133  1.00  0.00     0.042 A 
HETATM   12  C   UNL     1      44.064 -19.702   2.868  1.00  0.00    -0.014 A 
HETATM   13  C   UNL     1      43.650 -18.898   1.662  1.00  0.00     0.052 C 
HETATM   14  C   UNL     1      44.265 -21.095   2.765  1.00  0.00     0.042 A 
HETATM   15 CL   UNL     1      44.018 -21.963   1.287  1.00  0.00    -0.084 Cl
HETATM   16  C   UNL     1      44.660 -21.849   3.872  1.00  0.00     0.024 A 
HETATM   17  C   UNL     1      44.852 -21.230   5.099  1.00  0.00     0.004 A 
HETATM   18  C   UNL     1      44.628 -19.859   5.228  1.00  0.00     0.030 A 
ENDBRANCH   8  11
ENDBRANCH   6   7
ENDBRANCH   1   6
BRANCH   3  19
HETATM   19  N   UNL     1      41.963 -15.236   0.267  1.00  0.00    -0.287 N 
HETATM   20  C   UNL     1      41.917 -14.005  -0.354  1.00  0.00     0.326 C 
HETATM   21  N   UNL     1      41.877 -14.153  -1.734  1.00  0.00    -0.309 N 
HETATM   22  O   UNL     1      41.880 -12.932   0.232  1.00  0.00    -0.247 OA
HETATM   23  H   UNL     1      42.043 -15.079  -2.096  1.00  0.00     0.170 HD
HETATM   24  H   UNL     1      42.130 -16.079  -0.252  1.00  0.00     0.172 HD
BRANCH  21  25
HETATM   25  C   UNL     1      41.603 -13.156  -2.696  1.00  0.00     0.036 A 
HETATM   26  C   UNL     1      42.582 -12.364  -3.305  1.00  0.00     0.032 A 
HETATM   27  C   UNL     1      42.221 -11.360  -4.210  1.00  0.00     0.044 A 
HETATM   28  C   UNL     1      40.882 -11.150  -4.506  1.00  0.00     0.116 A 
HETATM   29  F   UNL     1      40.537 -10.183  -5.366  1.00  0.00    -0.206 F 
HETATM   30  C   UNL     1      39.894 -11.929  -3.920  1.00  0.00     0.044 A 
HETATM   31  C   UNL     1      40.255 -12.931  -3.014  1.00  0.00     0.032 A 
ENDBRANCH  21  25
ENDBRANCH   3  19
TORSDOF 5
ENDMDL
MODEL 6
REMARK VINA RESULT:      -8.6      1.278      2.074
REMARK  5 active torsions:
REMARK  status: ('A' for Active; 'I' for Inactive)
REMARK    1  A    between atoms: C_8  and  N_9 
REMARK       I    between atoms: N_9  and  C_10 
REMARK    2  A    between atoms: C_10  and  C_11 
REMARK    3  A    between atoms: C_11  and  C_12 
REMARK    4  A    between atoms: C_14  and  N_15 
REMARK       I    between atoms: N_15  and  C_16 
REMARK       I    between atoms: C_16  and  N_17 
REMARK    5  A    between atoms: N_17  and  C_18 
ROOT
HETATM    1  C   UNL     1      42.676 -14.490   5.060  1.00  0.00     0.052 A 
HETATM    2  N   UNL     1      42.714 -14.697   3.688  1.00  0.00    -0.228 NA
HETATM    3  C   UNL     1      42.239 -13.647   3.068  1.00  0.00     0.174 A 
HETATM    4  S   UNL     1      41.722 -12.355   4.054  1.00  0.00    -0.062 SA
HETATM    5  C   UNL     1      42.164 -13.263   5.442  1.00  0.00     0.081 A 
ENDROOT
BRANCH   1   6
HETATM    6  C   UNL     1      43.144 -15.588   5.953  1.00  0.00     0.163 C 
BRANCH   6   7
HETATM    7  C   UNL     1      42.842 -16.973   5.403  1.00  0.00     0.227 C 
HETATM    8  N   UNL     1      43.889 -17.528   4.683  1.00  0.00    -0.326 N 
HETATM    9  H   UNL     1      44.791 -17.069   4.816  1.00  0.00     0.169 HD
HETATM   10  O   UNL     1      41.730 -17.472   5.570  1.00  0.00    -0.273 OA
BRANCH   8  11
HETATM   11  C   UNL     1      43.860 -18.681   3.857  1.00  0.00     0.042 A 
HETATM   12  C   UNL     1      44.190 -19.944   4.408  1.00  0.00    -0.014 A 
HETATM   13  C   UNL     1      44.483 -20.091   5.879  1.00  0.00     0.052 C 
HETATM   14  C   UNL     1      44.278 -21.058   3.545  1.00  0.00     0.042 A 
HETATM   15 CL   UNL     1      44.756 -22.628   4.100  1.00  0.00    -0.084 Cl
HETATM   16  C   UNL     1      43.997 -20.937   2.183  1.00  0.00     0.024 A 
HETATM   17  C   UNL     1      43.633 -19.706   1.657  1.00  0.00     0.004 A 
HETATM   18  C   UNL     1      43.571 -18.587   2.487  1.00  0.00     0.030 A 
ENDBRANCH   8  11
ENDBRANCH   6   7
ENDBRANCH   1   6
BRANCH   3  19
HETATM   19  N   UNL     1      42.135 -13.405   1.727  1.00  0.00    -0.287 N 
HETATM   20  C   UNL     1      41.092 -13.904   0.974  1.00  0.00     0.326 C 
HETATM   21  N   UNL     1      41.352 -13.760  -0.382  1.00  0.00    -0.309 N 
HETATM   22  O   UNL     1      40.091 -14.434   1.438  1.00  0.00    -0.247 OA
HETATM   23  H   UNL     1      42.148 -13.194  -0.633  1.00  0.00     0.170 HD
HETATM   24  H   UNL     1      42.867 -12.859   1.311  1.00  0.00     0.172 HD
BRANCH  21  25
HETATM   25  C   UNL     1      40.644 -14.339  -1.457  1.00  0.00     0.036 A 
HETATM   26  C   UNL     1      41.041 -15.504  -2.122  1.00  0.00     0.032 A 
HETATM   27  C   UNL     1      40.310 -15.982  -3.215  1.00  0.00     0.044 A 
HETATM   28  C   UNL     1      39.182 -15.297  -3.640  1.00  0.00     0.116 A 
HETATM   29  F   UNL     1      38.487 -15.750  -4.692  1.00  0.00    -0.206 F 
HETATM   30  C   UNL     1      38.764 -14.143  -2.991  1.00  0.00     0.044 A 
HETATM   31  C   UNL     1      39.496 -13.664  -1.900  1.00  0.00     0.032 A 
ENDBRANCH  21  25
ENDBRANCH   3  19
TORSDOF 5
ENDMDL
MODEL 7
REMARK VINA RESULT:      -8.5      3.169      3.603
REMARK  5 active torsions:
REMARK  status: ('A' for Active; 'I' for Inactive)
REMARK    1  A    between atoms: C_8  and  N_9 
REMARK       I    between atoms: N_9  and  C_10 
REMARK    2  A    between atoms: C_10  and  C_11 
REMARK    3  A    between atoms: C_11  and  C_12 
REMARK    4  A    between atoms: C_14  and  N_15 
REMARK       I    between atoms: N_15  and  C_16 
REMARK       I    between atoms: C_16  and  N_17 
REMARK    5  A    between atoms: N_17  and  C_18 
ROOT
HETATM    1  C   UNL     1      41.811 -15.395   2.595  1.00  0.00     0.052 A 
HETATM    2  N   UNL     1      42.381 -15.303   1.334  1.00  0.00    -0.228 NA
HETATM    3  C   UNL     1      41.475 -14.942   0.461  1.00  0.00     0.174 A 
HETATM    4  S   UNL     1      39.900 -14.687   1.067  1.00  0.00    -0.062 SA
HETATM    5  C   UNL     1      40.461 -15.092   2.638  1.00  0.00     0.081 A 
ENDROOT
BRANCH   1   6
HETATM    6  C   UNL     1      42.672 -15.828   3.731  1.00  0.00     0.163 C 
BRANCH   6   7
HETATM    7  C   UNL     1      42.652 -17.332   3.954  1.00  0.00     0.227 C 
HETATM    8  N   UNL     1      43.721 -17.997   3.372  1.00  0.00    -0.326 N 
HETATM    9  H   UNL     1      44.497 -17.397   3.091  1.00  0.00     0.169 HD
HETATM   10  O   UNL     1      41.713 -17.852   4.555  1.00  0.00    -0.273 OA
BRANCH   8  11
HETATM   11  C   UNL     1      43.881 -19.396   3.194  1.00  0.00     0.042 A 
HETATM   12  C   UNL     1      44.418 -20.177   4.247  1.00  0.00    -0.014 A 
HETATM   13  C   UNL     1      44.735 -19.558   5.583  1.00  0.00     0.052 C 
HETATM   14  C   UNL     1      44.686 -21.543   4.008  1.00  0.00     0.042 A 
HETATM   15 CL   UNL     1      45.419 -22.567   5.198  1.00  0.00    -0.084 Cl
HETATM   16  C   UNL     1      44.385 -22.132   2.779  1.00  0.00     0.024 A 
HETATM   17  C   UNL     1      43.821 -21.370   1.766  1.00  0.00     0.004 A 
HETATM   18  C   UNL     1      43.577 -20.012   1.971  1.00  0.00     0.030 A 
ENDBRANCH   8  11
ENDBRANCH   6   7
ENDBRANCH   1   6
BRANCH   3  19
HETATM   19  N   UNL     1      41.608 -14.690  -0.875  1.00  0.00    -0.287 N 
HETATM   20  C   UNL     1      41.687 -13.404  -1.370  1.00  0.00     0.326 C 
HETATM   21  N   UNL     1      41.538 -13.400  -2.751  1.00  0.00    -0.309 N 
HETATM   22  O   UNL     1      41.834 -12.403  -0.683  1.00  0.00    -0.247 OA
HETATM   23  H   UNL     1      41.554 -14.296  -3.211  1.00  0.00     0.170 HD
HETATM   24  H   UNL     1      41.625 -15.488  -1.484  1.00  0.00     0.172 HD
BRANCH  21  25
HETATM   25  C   UNL     1      41.339 -12.281  -3.588  1.00  0.00     0.036 A 
HETATM   26  C   UNL     1      40.082 -11.800  -3.970  1.00  0.00     0.032 A 
HETATM   27  C   UNL     1      39.974 -10.716  -4.847  1.00  0.00     0.044 A 
HETATM   28  C   UNL     1      41.121 -10.112  -5.340  1.00  0.00     0.116 A 
HETATM   29  F   UNL     1      41.016  -9.079  -6.187  1.00  0.00    -0.206 F 
HETATM   30  C   UNL     1      42.379 -10.567  -4.968  1.00  0.00     0.044 A 
HETATM   31  C   UNL     1      42.488 -11.651  -4.093  1.00  0.00     0.032 A 
ENDBRANCH  21  25
ENDBRANCH   3  19
TORSDOF 5
ENDMDL
MODEL 8
REMARK VINA RESULT:      -8.4      6.192      9.073
REMARK  5 active torsions:
REMARK  status: ('A' for Active; 'I' for Inactive)
REMARK    1  A    between atoms: C_8  and  N_9 
REMARK       I    between atoms: N_9  and  C_10 
REMARK    2  A    between atoms: C_10  and  C_11 
REMARK    3  A    between atoms: C_11  and  C_12 
REMARK    4  A    between atoms: C_14  and  N_15 
REMARK       I    between atoms: N_15  and  C_16 
REMARK       I    between atoms: C_16  and  N_17 
REMARK    5  A    between atoms: N_17  and  C_18 
ROOT
HETATM    1  C   UNL     1      41.558 -12.514   4.093  1.00  0.00     0.052 A 
HETATM    2  N   UNL     1      41.565 -12.677   5.471  1.00  0.00    -0.228 NA
HETATM    3  C   UNL     1      40.863 -11.727   6.034  1.00  0.00     0.174 A 
HETATM    4  S   UNL     1      40.152 -10.586   4.982  1.00  0.00    -0.062 SA
HETATM    5  C   UNL     1      40.835 -11.422   3.648  1.00  0.00     0.081 A 
ENDROOT
BRANCH   1   6
HETATM    6  C   UNL     1      42.333 -13.479   3.263  1.00  0.00     0.163 C 
BRANCH   6   7
HETATM    7  C   UNL     1      42.166 -14.921   3.715  1.00  0.00     0.227 C 
HETATM    8  N   UNL     1      43.359 -15.546   4.044  1.00  0.00    -0.326 N 
HETATM    9  H   UNL     1      44.149 -14.914   4.182  1.00  0.00     0.169 HD
HETATM   10  O   UNL     1      41.051 -15.441   3.710  1.00  0.00    -0.273 OA
BRANCH   8  11
HETATM   11  C   UNL     1      43.581 -16.928   4.275  1.00  0.00     0.042 A 
HETATM   12  C   UNL     1      43.799 -17.794   3.176  1.00  0.00    -0.014 A 
HETATM   13  C   UNL     1      43.889 -17.251   1.772  1.00  0.00     0.052 C 
HETATM   14  C   UNL     1      43.893 -19.182   3.414  1.00  0.00     0.042 A 
HETATM   15 CL   UNL     1      44.076 -20.335   2.134  1.00  0.00    -0.084 Cl
HETATM   16  C   UNL     1      43.825 -19.696   4.711  1.00  0.00     0.024 A 
HETATM   17  C   UNL     1      43.653 -18.838   5.787  1.00  0.00     0.004 A 
HETATM   18  C   UNL     1      43.527 -17.467   5.569  1.00  0.00     0.030 A 
ENDBRANCH   8  11
ENDBRANCH   6   7
ENDBRANCH   1   6
BRANCH   3  19
HETATM   19  N   UNL     1      40.569 -11.531   7.354  1.00  0.00    -0.287 N 
HETATM   20  C   UNL     1      41.358 -10.746   8.168  1.00  0.00     0.326 C 
HETATM   21  N   UNL     1      41.018 -10.925   9.503  1.00  0.00    -0.309 N 
HETATM   22  O   UNL     1      42.258 -10.018   7.771  1.00  0.00    -0.247 OA
HETATM   23  H   UNL     1      40.178 -11.449   9.690  1.00  0.00     0.170 HD
HETATM   24  H   UNL     1      39.757 -12.004   7.708  1.00  0.00     0.172 HD
BRANCH  21  25
HETATM   25  C   UNL     1      41.729 -10.477  10.637  1.00  0.00     0.036 A 
HETATM   26  C   UNL     1      41.469  -9.275  11.302  1.00  0.00     0.032 A 
HETATM   27  C   UNL     1      42.258  -8.879  12.388  1.00  0.00     0.044 A 
HETATM   28  C   UNL     1      43.304  -9.687  12.809  1.00  0.00     0.116 A 
HETATM   29  F   UNL     1      44.063  -9.303  13.843  1.00  0.00    -0.206 F 
HETATM   30  C   UNL     1      43.575 -10.889  12.169  1.00  0.00     0.044 A 
HETATM   31  C   UNL     1      42.789 -11.283  11.083  1.00  0.00     0.032 A 
ENDBRANCH  21  25
ENDBRANCH   3  19
TORSDOF 5
ENDMDL
MODEL 9
REMARK VINA RESULT:      -8.2      6.473      9.525
REMARK  5 active torsions:
REMARK  status: ('A' for Active; 'I' for Inactive)
REMARK    1  A    between atoms: C_8  and  N_9 
REMARK       I    between atoms: N_9  and  C_10 
REMARK    2  A    between atoms: C_10  and  C_11 
REMARK    3  A    between atoms: C_11  and  C_12 
REMARK    4  A    between atoms: C_14  and  N_15 
REMARK       I    between atoms: N_15  and  C_16 
REMARK       I    between atoms: C_16  and  N_17 
REMARK    5  A    between atoms: N_17  and  C_18 
ROOT
HETATM    1  C   UNL     1      43.396 -14.309   5.517  1.00  0.00     0.052 A 
HETATM    2  N   UNL     1      42.745 -13.210   6.059  1.00  0.00    -0.228 NA
HETATM    3  C   UNL     1      43.380 -12.799   7.126  1.00  0.00     0.174 A 
HETATM    4  S   UNL     1      44.780 -13.673   7.558  1.00  0.00    -0.062 SA
HETATM    5  C   UNL     1      44.530 -14.701   6.206  1.00  0.00     0.081 A 
ENDROOT
BRANCH   1   6
HETATM    6  C   UNL     1      42.810 -14.953   4.308  1.00  0.00     0.163 C 
BRANCH   6   7
HETATM    7  C   UNL     1      42.742 -16.469   4.416  1.00  0.00     0.227 C 
HETATM    8  N   UNL     1      43.736 -17.124   3.706  1.00  0.00    -0.326 N 
HETATM    9  H   UNL     1      44.515 -16.533   3.414  1.00  0.00     0.169 HD
HETATM   10  O   UNL     1      41.828 -17.000   5.045  1.00  0.00    -0.273 OA
BRANCH   8  11
HETATM   11  C   UNL     1      43.823 -18.509   3.410  1.00  0.00     0.042 A 
HETATM   12  C   UNL     1      44.382 -19.394   4.364  1.00  0.00    -0.014 A 
HETATM   13  C   UNL     1      44.801 -18.898   5.724  1.00  0.00     0.052 C 
HETATM   14  C   UNL     1      44.576 -20.746   4.004  1.00  0.00     0.042 A 
HETATM   15 CL   UNL     1      45.327 -21.891   5.064  1.00  0.00    -0.084 Cl
HETATM   16  C   UNL     1      44.180 -21.221   2.752  1.00  0.00     0.024 A 
HETATM   17  C   UNL     1      43.595 -20.357   1.837  1.00  0.00     0.004 A 
HETATM   18  C   UNL     1      43.424 -19.012   2.163  1.00  0.00     0.030 A 
ENDBRANCH   8  11
ENDBRANCH   6   7
ENDBRANCH   1   6
BRANCH   3  19
HETATM   19  N   UNL     1      43.116 -11.730   7.936  1.00  0.00    -0.287 N 
HETATM   20  C   UNL     1      43.414 -11.744   9.283  1.00  0.00     0.326 C 
HETATM   21  N   UNL     1      42.809 -10.676   9.932  1.00  0.00    -0.309 N 
HETATM   22  O   UNL     1      44.092 -12.601   9.836  1.00  0.00    -0.247 OA
HETATM   23  H   UNL     1      42.386  -9.972   9.348  1.00  0.00     0.170 HD
HETATM   24  H   UNL     1      42.675 -10.938   7.506  1.00  0.00     0.172 HD
BRANCH  21  25
HETATM   25  C   UNL     1      42.691 -10.473  11.324  1.00  0.00     0.036 A 
HETATM   26  C   UNL     1      43.597  -9.730  12.087  1.00  0.00     0.032 A 
HETATM   27  C   UNL     1      43.436  -9.622  13.473  1.00  0.00     0.044 A 
HETATM   28  C   UNL     1      42.370 -10.255  14.093  1.00  0.00     0.116 A 
HETATM   29  F   UNL     1      42.222 -10.158  15.421  1.00  0.00    -0.206 F 
HETATM   30  C   UNL     1      41.453 -10.992  13.355  1.00  0.00     0.044 A 
HETATM   31  C   UNL     1      41.615 -11.101  11.970  1.00  0.00     0.032 A 
ENDBRANCH  21  25
ENDBRANCH   3  19
TORSDOF 5
ENDMDL
MODEL 10
REMARK VINA RESULT:      -8.2      3.597      8.228
REMARK  5 active torsions:
REMARK  status: ('A' for Active; 'I' for Inactive)
REMARK    1  A    between atoms: C_8  and  N_9 
REMARK       I    between atoms: N_9  and  C_10 
REMARK    2  A    between atoms: C_10  and  C_11 
REMARK    3  A    between atoms: C_11  and  C_12 
REMARK    4  A    between atoms: C_14  and  N_15 
REMARK       I    between atoms: N_15  and  C_16 
REMARK       I    between atoms: C_16  and  N_17 
REMARK    5  A    between atoms: N_17  and  C_18 
ROOT
HETATM    1  C   UNL     1      40.127 -13.964   3.658  1.00  0.00     0.052 A 
HETATM    2  N   UNL     1      41.297 -14.605   3.279  1.00  0.00    -0.228 NA
HETATM    3  C   UNL     1      41.783 -15.278   4.290  1.00  0.00     0.174 A 
HETATM    4  S   UNL     1      40.898 -15.199   5.747  1.00  0.00    -0.062 SA
HETATM    5  C   UNL     1      39.757 -14.177   4.974  1.00  0.00     0.081 A 
ENDROOT
BRANCH   1   6
HETATM    6  C   UNL     1      39.430 -13.111   2.654  1.00  0.00     0.163 C 
BRANCH   6   7
HETATM    7  C   UNL     1      39.468 -13.695   1.250  1.00  0.00     0.227 C 
HETATM    8  N   UNL     1      40.721 -13.647   0.659  1.00  0.00    -0.326 N 
HETATM    9  H   UNL     1      41.492 -13.465   1.303  1.00  0.00     0.169 HD
HETATM   10  O   UNL     1      38.433 -14.102   0.725  1.00  0.00    -0.273 OA
BRANCH   8  11
HETATM   11  C   UNL     1      41.051 -13.887  -0.700  1.00  0.00     0.042 A 
HETATM   12  C   UNL     1      41.586 -12.837  -1.486  1.00  0.00    -0.014 A 
HETATM   13  C   UNL     1      41.894 -11.495  -0.872  1.00  0.00     0.052 C 
HETATM   14  C   UNL     1      41.790 -13.057  -2.865  1.00  0.00     0.042 A 
HETATM   15 CL   UNL     1      42.360 -11.817  -3.930  1.00  0.00    -0.084 Cl
HETATM   16  C   UNL     1      41.521 -14.300  -3.443  1.00  0.00     0.024 A 
HETATM   17  C   UNL     1      41.036 -15.337  -2.659  1.00  0.00     0.004 A 
HETATM   18  C   UNL     1      40.799 -15.129  -1.301  1.00  0.00     0.030 A 
ENDBRANCH   8  11
ENDBRANCH   6   7
ENDBRANCH   1   6
BRANCH   3  19
HETATM   19  N   UNL     1      42.886 -16.083   4.348  1.00  0.00    -0.287 N 
HETATM   20  C   UNL     1      42.919 -17.319   3.736  1.00  0.00     0.326 C 
HETATM   21  N   UNL     1      44.019 -18.051   4.164  1.00  0.00    -0.309 N 
HETATM   22  O   UNL     1      42.075 -17.727   2.948  1.00  0.00    -0.247 OA
HETATM   23  H   UNL     1      44.706 -17.557   4.712  1.00  0.00     0.170 HD
HETATM   24  H   UNL     1      43.666 -15.740   4.878  1.00  0.00     0.172 HD
BRANCH  21  25
HETATM   25  C   UNL     1      44.276 -19.421   3.943  1.00  0.00     0.036 A 
HETATM   26  C   UNL     1      44.203 -20.041   2.692  1.00  0.00     0.032 A 
HETATM   27  C   UNL     1      44.421 -21.417   2.568  1.00  0.00     0.044 A 
HETATM   28  C   UNL     1      44.715 -22.172   3.694  1.00  0.00     0.116 A 
HETATM   29  F   UNL     1      44.916 -23.490   3.576  1.00  0.00    -0.206 F 
HETATM   30  C   UNL     1      44.801 -21.576   4.945  1.00  0.00     0.044 A 
HETATM   31  C   UNL     1      44.581 -20.201   5.070  1.00  0.00     0.032 A 
ENDBRANCH  21  25
ENDBRANCH   3  19
TORSDOF 5
ENDMDL
