MODEL 1
REMARK VINA RESULT:      -9.0      0.000      0.000
REMARK  8 active torsions:
REMARK  status: ('A' for Active; 'I' for Inactive)
REMARK    1  A    between atoms: C_2  and  C_3 
REMARK    2  A    between atoms: C_6  and  C_7 
REMARK    3  A    between atoms: C_11  and  C_12 
REMARK    4  A    between atoms: C_12  and  C_13 
REMARK    5  A    between atoms: C_13  and  C_14 
REMARK    6  A    between atoms: C_14  and  O_15 
REMARK    7  A    between atoms: C_20  and  C_21 
REMARK       I    between atoms: C_21  and  N_22 
REMARK    8  A    between atoms: N_22  and  C_23 
ROOT
HETATM    1  C   UNL     1      42.747 -15.657   3.343  1.00  0.00     0.202 C 
HETATM    2  N   UNL     1      41.852 -15.485   2.200  1.00  0.00    -0.083 N 
HETATM    3  C   UNL     1      40.496 -15.364   2.309  1.00  0.00     0.726 A 
HETATM    4  N   UNL     1      39.977 -15.204   1.118  1.00  0.00    -0.046 NA
HETATM    5  C   UNL     1      41.084 -15.184   0.300  1.00  0.00     0.166 A 
HETATM    6  N   UNL     1      42.265 -15.332   0.923  1.00  0.00    -0.140 NA
HETATM    7  N   UNL     1      39.934 -15.368   3.532  1.00  0.00    -0.192 N 
HETATM    8  C   UNL     1      40.681 -15.242   4.703  1.00  0.00     0.037 C 
HETATM    9  C   UNL     1      39.878 -14.995   5.958  1.00  0.00     0.070 C 
HETATM   10  C   UNL     1      42.036 -15.348   4.665  1.00  0.00     0.062 C 
HETATM   11  H   UNL     1      38.942 -15.149   3.596  1.00  0.00     0.184 HD
ENDROOT
BRANCH  10  12
HETATM   12  C   UNL     1      42.861 -15.008   5.871  1.00  0.00     0.256 C 
HETATM   13  N   UNL     1      43.106 -13.666   6.061  1.00  0.00    -0.323 N 
HETATM   14  H   UNL     1      42.742 -13.005   5.391  1.00  0.00     0.169 HD
HETATM   15  O   UNL     1      43.217 -15.906   6.628  1.00  0.00    -0.267 OA
BRANCH  13  16
HETATM   16  C   UNL     1      43.846 -13.064   7.101  1.00  0.00     0.035 A 
HETATM   17  C   UNL     1      45.184 -13.350   7.378  1.00  0.00     0.031 A 
HETATM   18  C   UNL     1      45.850 -12.686   8.416  1.00  0.00     0.026 A 
HETATM   19  C   UNL     1      45.174 -11.748   9.189  1.00  0.00     0.034 A 
HETATM   20 CL   UNL     1      45.992 -10.938  10.468  1.00  0.00    -0.084 Cl
HETATM   21  C   UNL     1      43.838 -11.458   8.930  1.00  0.00     0.026 A 
HETATM   22  C   UNL     1      43.180 -12.107   7.882  1.00  0.00     0.031 A 
ENDBRANCH  13  16
ENDBRANCH  10  12
BRANCH   1  23
HETATM   23  C   UNL     1      43.339 -17.068   3.313  1.00  0.00    -0.028 A 
HETATM   24  C   UNL     1      43.153 -17.930   4.407  1.00  0.00     0.010 A 
HETATM   25  C   UNL     1      43.543 -19.270   4.328  1.00  0.00     0.007 A 
HETATM   26  C   UNL     1      44.142 -19.769   3.166  1.00  0.00    -0.059 A 
HETATM   27  C   UNL     1      44.387 -18.898   2.099  1.00  0.00     0.007 A 
HETATM   28  C   UNL     1      43.999 -17.561   2.174  1.00  0.00     0.010 A 
BRANCH  26  29
HETATM   29  C   UNL     1      44.485 -21.233   3.042  1.00  0.00     0.034 C 
HETATM   30  C   UNL     1      44.031 -21.799   1.704  1.00  0.00     0.010 C 
ENDBRANCH  26  29
ENDBRANCH   1  23
BRANCH   5  31
HETATM   31  C   UNL     1      40.979 -14.954  -1.163  1.00  0.00     0.085 C 
BRANCH  31  32
HETATM   32  C   UNL     1      41.438 -13.558  -1.584  1.00  0.00     0.034 C 
BRANCH  32  33
HETATM   33  C   UNL     1      42.034 -13.522  -2.987  1.00  0.00     0.164 C 
BRANCH  33  34
HETATM   34  O   UNL     1      42.103 -14.843  -3.511  1.00  0.00    -0.401 OA
HETATM   35  H   UNL     1      41.396 -15.365  -3.095  1.00  0.00     0.209 HD
ENDBRANCH  33  34
ENDBRANCH  32  33
ENDBRANCH  31  32
ENDBRANCH   5  31
TORSDOF 8
ENDMDL
MODEL 2
REMARK VINA RESULT:      -8.9      4.109      7.101
REMARK  8 active torsions:
REMARK  status: ('A' for Active; 'I' for Inactive)
REMARK    1  A    between atoms: C_2  and  C_3 
REMARK    2  A    between atoms: C_6  and  C_7 
REMARK    3  A    between atoms: C_11  and  C_12 
REMARK    4  A    between atoms: C_12  and  C_13 
REMARK    5  A    between atoms: C_13  and  C_14 
REMARK    6  A    between atoms: C_14  and  O_15 
REMARK    7  A    between atoms: C_20  and  C_21 
REMARK       I    between atoms: C_21  and  N_22 
REMARK    8  A    between atoms: N_22  and  C_23 
ROOT
HETATM    1  C   UNL     1      41.817 -14.092  -0.247  1.00  0.00     0.202 C 
HETATM    2  N   UNL     1      42.056 -12.656  -0.388  1.00  0.00    -0.083 N 
HETATM    3  C   UNL     1      41.733 -11.735   0.567  1.00  0.00     0.726 A 
HETATM    4  N   UNL     1      42.087 -10.544   0.158  1.00  0.00    -0.046 NA
HETATM    5  C   UNL     1      42.680 -10.798  -1.058  1.00  0.00     0.166 A 
HETATM    6  N   UNL     1      42.704 -12.089  -1.428  1.00  0.00    -0.140 NA
HETATM    7  N   UNL     1      41.192 -12.155   1.726  1.00  0.00    -0.192 N 
HETATM    8  C   UNL     1      41.172 -13.498   2.103  1.00  0.00     0.037 C 
HETATM    9  C   UNL     1      40.778 -13.760   3.537  1.00  0.00     0.070 C 
HETATM   10  C   UNL     1      41.487 -14.467   1.202  1.00  0.00     0.062 C 
HETATM   11  H   UNL     1      41.080 -11.470   2.470  1.00  0.00     0.184 HD
ENDROOT
BRANCH  10  12
HETATM   12  C   UNL     1      41.672 -15.888   1.645  1.00  0.00     0.256 C 
HETATM   13  N   UNL     1      42.925 -16.200   2.125  1.00  0.00    -0.323 N 
HETATM   14  H   UNL     1      43.634 -15.481   2.139  1.00  0.00     0.169 HD
HETATM   15  O   UNL     1      40.717 -16.659   1.607  1.00  0.00    -0.267 OA
BRANCH  13  16
HETATM   16  C   UNL     1      43.378 -17.447   2.605  1.00  0.00     0.035 A 
HETATM   17  C   UNL     1      43.685 -18.537   1.787  1.00  0.00     0.031 A 
HETATM   18  C   UNL     1      44.153 -19.731   2.347  1.00  0.00     0.026 A 
HETATM   19  C   UNL     1      44.298 -19.845   3.726  1.00  0.00     0.034 A 
HETATM   20 CL   UNL     1      44.867 -21.317   4.412  1.00  0.00    -0.084 Cl
HETATM   21  C   UNL     1      43.988 -18.771   4.554  1.00  0.00     0.026 A 
HETATM   22  C   UNL     1      43.540 -17.572   3.993  1.00  0.00     0.031 A 
ENDBRANCH  13  16
ENDBRANCH  10  12
BRANCH   1  23
HETATM   23  C   UNL     1      40.723 -14.520  -1.227  1.00  0.00    -0.028 A 
HETATM   24  C   UNL     1      39.442 -13.948  -1.142  1.00  0.00     0.010 A 
HETATM   25  C   UNL     1      38.485 -14.204  -2.127  1.00  0.00     0.007 A 
HETATM   26  C   UNL     1      38.779 -15.050  -3.202  1.00  0.00    -0.059 A 
HETATM   27  C   UNL     1      40.031 -15.672  -3.255  1.00  0.00     0.007 A 
HETATM   28  C   UNL     1      40.989 -15.419  -2.275  1.00  0.00     0.010 A 
BRANCH  26  29
HETATM   29  C   UNL     1      37.780 -15.261  -4.313  1.00  0.00     0.034 C 
HETATM   30  C   UNL     1      36.651 -14.242  -4.248  1.00  0.00     0.010 C 
ENDBRANCH  26  29
ENDBRANCH   1  23
BRANCH   5  31
HETATM   31  C   UNL     1      43.301  -9.724  -1.873  1.00  0.00     0.085 C 
BRANCH  31  32
HETATM   32  C   UNL     1      44.445  -9.012  -1.152  1.00  0.00     0.034 C 
BRANCH  32  33
HETATM   33  C   UNL     1      44.014  -7.708  -0.489  1.00  0.00     0.164 C 
BRANCH  33  34
HETATM   34  O   UNL     1      43.679  -7.951   0.873  1.00  0.00    -0.401 OA
HETATM   35  H   UNL     1      44.505  -8.133   1.353  1.00  0.00     0.209 HD
ENDBRANCH  33  34
ENDBRANCH  32  33
ENDBRANCH  31  32
ENDBRANCH   5  31
TORSDOF 8
ENDMDL
MODEL 3
REMARK VINA RESULT:      -8.6      3.940      7.502
REMARK  8 active torsions:
REMARK  status: ('A' for Active; 'I' for Inactive)
REMARK    1  A    between atoms: C_2  and  C_3 
REMARK    2  A    between atoms: C_6  and  C_7 
REMARK    3  A    between atoms: C_11  and  C_12 
REMARK    4  A    between atoms: C_12  and  C_13 
REMARK    5  A    between atoms: C_13  and  C_14 
REMARK    6  A    between atoms: C_14  and  O_15 
REMARK    7  A    between atoms: C_20  and  C_21 
REMARK       I    between atoms: C_21  and  N_22 
REMARK    8  A    between atoms: N_22  and  C_23 
ROOT
HETATM    1  C   UNL     1      41.718 -13.774   4.288  1.00  0.00     0.202 C 
HETATM    2  N   UNL     1      40.996 -12.753   5.047  1.00  0.00    -0.083 N 
HETATM    3  C   UNL     1      40.102 -13.037   6.040  1.00  0.00     0.726 A 
HETATM    4  N   UNL     1      39.640 -11.919   6.539  1.00  0.00    -0.046 NA
HETATM    5  C   UNL     1      40.332 -10.958   5.837  1.00  0.00     0.166 A 
HETATM    6  N   UNL     1      41.195 -11.424   4.920  1.00  0.00    -0.140 NA
HETATM    7  N   UNL     1      39.884 -14.321   6.379  1.00  0.00    -0.192 N 
HETATM    8  C   UNL     1      40.701 -15.363   5.940  1.00  0.00     0.037 C 
HETATM    9  C   UNL     1      40.479 -16.690   6.627  1.00  0.00     0.070 C 
HETATM   10  C   UNL     1      41.615 -15.149   4.956  1.00  0.00     0.062 C 
HETATM   11  H   UNL     1      39.316 -14.502   7.203  1.00  0.00     0.184 HD
ENDROOT
BRANCH  10  12
HETATM   12  C   UNL     1      42.636 -16.197   4.624  1.00  0.00     0.256 C 
HETATM   13  N   UNL     1      42.151 -17.312   3.977  1.00  0.00    -0.323 N 
HETATM   14  H   UNL     1      41.163 -17.369   3.780  1.00  0.00     0.169 HD
HETATM   15  O   UNL     1      43.817 -15.991   4.891  1.00  0.00    -0.267 OA
BRANCH  13  16
HETATM   16  C   UNL     1      42.877 -18.444   3.549  1.00  0.00     0.035 A 
HETATM   17  C   UNL     1      43.775 -19.149   4.353  1.00  0.00     0.031 A 
HETATM   18  C   UNL     1      44.435 -20.278   3.854  1.00  0.00     0.026 A 
HETATM   19  C   UNL     1      44.212 -20.694   2.546  1.00  0.00     0.034 A 
HETATM   20 CL   UNL     1      45.029 -22.079   1.932  1.00  0.00    -0.084 Cl
HETATM   21  C   UNL     1      43.326 -19.997   1.730  1.00  0.00     0.026 A 
HETATM   22  C   UNL     1      42.653 -18.882   2.235  1.00  0.00     0.031 A 
ENDBRANCH  13  16
ENDBRANCH  10  12
BRANCH   1  23
HETATM   23  C   UNL     1      41.210 -13.785   2.845  1.00  0.00    -0.028 A 
HETATM   24  C   UNL     1      42.023 -13.292   1.811  1.00  0.00     0.010 A 
HETATM   25  C   UNL     1      41.643 -13.445   0.475  1.00  0.00     0.007 A 
HETATM   26  C   UNL     1      40.438 -14.075   0.147  1.00  0.00    -0.059 A 
HETATM   27  C   UNL     1      39.595 -14.510   1.175  1.00  0.00     0.007 A 
HETATM   28  C   UNL     1      39.971 -14.359   2.509  1.00  0.00     0.010 A 
BRANCH  26  29
HETATM   29  C   UNL     1      40.064 -14.322  -1.294  1.00  0.00     0.034 C 
HETATM   30  C   UNL     1      40.950 -15.388  -1.924  1.00  0.00     0.010 C 
ENDBRANCH  26  29
ENDBRANCH   1  23
BRANCH   5  31
HETATM   31  C   UNL     1      40.174  -9.509   6.118  1.00  0.00     0.085 C 
BRANCH  31  32
HETATM   32  C   UNL     1      40.239  -9.178   7.609  1.00  0.00     0.034 C 
BRANCH  32  33
HETATM   33  C   UNL     1      38.867  -8.951   8.232  1.00  0.00     0.164 C 
BRANCH  33  34
HETATM   34  O   UNL     1      38.384 -10.171   8.786  1.00  0.00    -0.401 OA
HETATM   35  H   UNL     1      37.413 -10.152   8.742  1.00  0.00     0.209 HD
ENDBRANCH  33  34
ENDBRANCH  32  33
ENDBRANCH  31  32
ENDBRANCH   5  31
TORSDOF 8
ENDMDL
MODEL 4
REMARK VINA RESULT:      -8.3      3.908      8.115
REMARK  8 active torsions:
REMARK  status: ('A' for Active; 'I' for Inactive)
REMARK    1  A    between atoms: C_2  and  C_3 
REMARK    2  A    between atoms: C_6  and  C_7 
REMARK    3  A    between atoms: C_11  and  C_12 
REMARK    4  A    between atoms: C_12  and  C_13 
REMARK    5  A    between atoms: C_13  and  C_14 
REMARK    6  A    between atoms: C_14  and  O_15 
REMARK    7  A    between atoms: C_20  and  C_21 
REMARK       I    between atoms: C_21  and  N_22 
REMARK    8  A    between atoms: N_22  and  C_23 
ROOT
HETATM    1  C   UNL     1      41.802 -15.485   3.331  1.00  0.00     0.202 C 
HETATM    2  N   UNL     1      42.659 -14.889   4.356  1.00  0.00    -0.083 N 
HETATM    3  C   UNL     1      43.399 -13.758   4.162  1.00  0.00     0.726 A 
HETATM    4  N   UNL     1      44.041 -13.466   5.265  1.00  0.00    -0.046 NA
HETATM    5  C   UNL     1      43.614 -14.442   6.138  1.00  0.00     0.166 A 
HETATM    6  N   UNL     1      42.744 -15.329   5.629  1.00  0.00    -0.140 NA
HETATM    7  N   UNL     1      43.325 -13.120   2.979  1.00  0.00    -0.192 N 
HETATM    8  C   UNL     1      42.348 -13.413   2.028  1.00  0.00     0.037 C 
HETATM    9  C   UNL     1      42.243 -12.429   0.886  1.00  0.00     0.070 C 
HETATM   10  C   UNL     1      41.573 -14.522   2.161  1.00  0.00     0.062 C 
HETATM   11  H   UNL     1      43.782 -12.214   2.902  1.00  0.00     0.184 HD
ENDROOT
BRANCH  10  12
HETATM   12  C   UNL     1      40.388 -14.735   1.267  1.00  0.00     0.256 C 
HETATM   13  N   UNL     1      40.519 -14.248  -0.015  1.00  0.00    -0.323 N 
HETATM   14  H   UNL     1      41.373 -13.776  -0.272  1.00  0.00     0.169 HD
HETATM   15  O   UNL     1      39.417 -15.355   1.692  1.00  0.00    -0.267 OA
BRANCH  13  16
HETATM   16  C   UNL     1      39.571 -14.306  -1.060  1.00  0.00     0.035 A 
HETATM   17  C   UNL     1      38.287 -13.764  -0.984  1.00  0.00     0.031 A 
HETATM   18  C   UNL     1      37.419 -13.846  -2.079  1.00  0.00     0.026 A 
HETATM   19  C   UNL     1      37.827 -14.484  -3.247  1.00  0.00     0.034 A 
HETATM   20 CL   UNL     1      36.756 -14.588  -4.589  1.00  0.00    -0.084 Cl
HETATM   21  C   UNL     1      39.101 -15.035  -3.334  1.00  0.00     0.026 A 
HETATM   22  C   UNL     1      39.974 -14.936  -2.247  1.00  0.00     0.031 A 
ENDBRANCH  13  16
ENDBRANCH  10  12
BRANCH   1  23
HETATM   23  C   UNL     1      42.404 -16.818   2.882  1.00  0.00    -0.028 A 
HETATM   24  C   UNL     1      43.162 -16.883   1.701  1.00  0.00     0.010 A 
HETATM   25  C   UNL     1      43.853 -18.051   1.366  1.00  0.00     0.007 A 
HETATM   26  C   UNL     1      43.786 -19.179   2.190  1.00  0.00    -0.059 A 
HETATM   27  C   UNL     1      42.981 -19.138   3.334  1.00  0.00     0.007 A 
HETATM   28  C   UNL     1      42.290 -17.976   3.672  1.00  0.00     0.010 A 
BRANCH  26  29
HETATM   29  C   UNL     1      44.599 -20.412   1.880  1.00  0.00     0.034 C 
HETATM   30  C   UNL     1      43.709 -21.635   1.704  1.00  0.00     0.010 C 
ENDBRANCH  26  29
ENDBRANCH   1  23
BRANCH   5  31
HETATM   31  C   UNL     1      44.042 -14.470   7.559  1.00  0.00     0.085 C 
BRANCH  31  32
HETATM   32  C   UNL     1      45.050 -13.374   7.903  1.00  0.00     0.034 C 
BRANCH  32  33
HETATM   33  C   UNL     1      44.550 -12.417   8.979  1.00  0.00     0.164 C 
BRANCH  33  34
HETATM   34  O   UNL     1      44.208 -13.151  10.150  1.00  0.00    -0.401 OA
HETATM   35  H   UNL     1      43.253 -13.330  10.119  1.00  0.00     0.209 HD
ENDBRANCH  33  34
ENDBRANCH  32  33
ENDBRANCH  31  32
ENDBRANCH   5  31
TORSDOF 8
ENDMDL
MODEL 5
REMARK VINA RESULT:      -8.3      4.013      7.187
REMARK  8 active torsions:
REMARK  status: ('A' for Active; 'I' for Inactive)
REMARK    1  A    between atoms: C_2  and  C_3 
REMARK    2  A    between atoms: C_6  and  C_7 
REMARK    3  A    between atoms: C_11  and  C_12 
REMARK    4  A    between atoms: C_12  and  C_13 
REMARK    5  A    between atoms: C_13  and  C_14 
REMARK    6  A    between atoms: C_14  and  O_15 
REMARK    7  A    between atoms: C_20  and  C_21 
REMARK       I    between atoms: C_21  and  N_22 
REMARK    8  A    between atoms: N_22  and  C_23 
ROOT
HETATM    1  C   UNL     1      41.831 -13.932   4.179  1.00  0.00     0.202 C 
HETATM    2  N   UNL     1      41.130 -12.845   4.861  1.00  0.00    -0.083 N 
HETATM    3  C   UNL     1      40.229 -13.038   5.869  1.00  0.00     0.726 A 
HETATM    4  N   UNL     1      39.790 -11.878   6.286  1.00  0.00    -0.046 NA
HETATM    5  C   UNL     1      40.504 -10.984   5.520  1.00  0.00     0.166 A 
HETATM    6  N   UNL     1      41.358 -11.533   4.641  1.00  0.00    -0.140 NA
HETATM    7  N   UNL     1      39.983 -14.290   6.297  1.00  0.00    -0.192 N 
HETATM    8  C   UNL     1      40.777 -15.378   5.936  1.00  0.00     0.037 C 
HETATM    9  C   UNL     1      40.525 -16.648   6.714  1.00  0.00     0.070 C 
HETATM   10  C   UNL     1      41.697 -15.254   4.942  1.00  0.00     0.062 C 
HETATM   11  H   UNL     1      39.409 -14.400   7.131  1.00  0.00     0.184 HD
ENDROOT
BRANCH  10  12
HETATM   12  C   UNL     1      42.695 -16.344   4.688  1.00  0.00     0.256 C 
HETATM   13  N   UNL     1      42.248 -17.386   3.906  1.00  0.00    -0.323 N 
HETATM   14  H   UNL     1      41.297 -17.368   3.569  1.00  0.00     0.169 HD
HETATM   15  O   UNL     1      43.835 -16.231   5.131  1.00  0.00    -0.267 OA
BRANCH  13  16
HETATM   16  C   UNL     1      42.964 -18.536   3.511  1.00  0.00     0.035 A 
HETATM   17  C   UNL     1      43.853 -19.228   4.335  1.00  0.00     0.031 A 
HETATM   18  C   UNL     1      44.504 -20.376   3.868  1.00  0.00     0.026 A 
HETATM   19  C   UNL     1      44.280 -20.825   2.571  1.00  0.00     0.034 A 
HETATM   20 CL   UNL     1      45.086 -22.233   1.997  1.00  0.00    -0.084 Cl
HETATM   21  C   UNL     1      43.403 -20.142   1.735  1.00  0.00     0.026 A 
HETATM   22  C   UNL     1      42.739 -19.007   2.209  1.00  0.00     0.031 A 
ENDBRANCH  13  16
ENDBRANCH  10  12
BRANCH   1  23
HETATM   23  C   UNL     1      41.324 -14.034   2.739  1.00  0.00    -0.028 A 
HETATM   24  C   UNL     1      40.115 -14.696   2.465  1.00  0.00     0.010 A 
HETATM   25  C   UNL     1      39.558 -14.655   1.185  1.00  0.00     0.007 A 
HETATM   26  C   UNL     1      40.205 -13.972   0.149  1.00  0.00    -0.059 A 
HETATM   27  C   UNL     1      41.440 -13.366   0.402  1.00  0.00     0.007 A 
HETATM   28  C   UNL     1      41.999 -13.404   1.678  1.00  0.00     0.010 A 
BRANCH  26  29
HETATM   29  C   UNL     1      39.566 -13.850  -1.212  1.00  0.00     0.034 C 
HETATM   30  C   UNL     1      38.065 -13.621  -1.104  1.00  0.00     0.010 C 
ENDBRANCH  26  29
ENDBRANCH   1  23
BRANCH   5  31
HETATM   31  C   UNL     1      40.377  -9.516   5.698  1.00  0.00     0.085 C 
BRANCH  31  32
HETATM   32  C   UNL     1      41.708  -8.778   5.553  1.00  0.00     0.034 C 
BRANCH  32  33
HETATM   33  C   UNL     1      41.767  -7.888   4.317  1.00  0.00     0.164 C 
BRANCH  33  34
HETATM   34  O   UNL     1      43.125  -7.621   3.983  1.00  0.00    -0.401 OA
HETATM   35  H   UNL     1      43.369  -6.775   4.394  1.00  0.00     0.209 HD
ENDBRANCH  33  34
ENDBRANCH  32  33
ENDBRANCH  31  32
ENDBRANCH   5  31
TORSDOF 8
ENDMDL
MODEL 6
REMARK VINA RESULT:      -8.2      3.079      4.169
REMARK  8 active torsions:
REMARK  status: ('A' for Active; 'I' for Inactive)
REMARK    1  A    between atoms: C_2  and  C_3 
REMARK    2  A    between atoms: C_6  and  C_7 
REMARK    3  A    between atoms: C_11  and  C_12 
REMARK    4  A    between atoms: C_12  and  C_13 
REMARK    5  A    between atoms: C_13  and  C_14 
REMARK    6  A    between atoms: C_14  and  O_15 
REMARK    7  A    between atoms: C_20  and  C_21 
REMARK       I    between atoms: C_21  and  N_22 
REMARK    8  A    between atoms: N_22  and  C_23 
ROOT
HETATM    1  C   UNL     1      42.314 -12.441   4.931  1.00  0.00     0.202 C 
HETATM    2  N   UNL     1      41.858 -12.783   3.584  1.00  0.00    -0.083 N 
HETATM    3  C   UNL     1      40.568 -12.637   3.159  1.00  0.00     0.726 A 
HETATM    4  N   UNL     1      40.480 -13.008   1.907  1.00  0.00    -0.046 NA
HETATM    5  C   UNL     1      41.779 -13.334   1.589  1.00  0.00     0.166 A 
HETATM    6  N   UNL     1      42.669 -13.191   2.584  1.00  0.00    -0.140 NA
HETATM    7  N   UNL     1      39.656 -12.119   4.002  1.00  0.00    -0.192 N 
HETATM    8  C   UNL     1      40.007 -11.496   5.200  1.00  0.00     0.037 C 
HETATM    9  C   UNL     1      38.894 -10.738   5.884  1.00  0.00     0.070 C 
HETATM   10  C   UNL     1      41.276 -11.598   5.678  1.00  0.00     0.062 C 
HETATM   11  H   UNL     1      38.736 -11.900   3.625  1.00  0.00     0.184 HD
ENDROOT
BRANCH  10  12
HETATM   12  C   UNL     1      41.718 -10.767   6.846  1.00  0.00     0.256 C 
HETATM   13  N   UNL     1      41.824 -11.437   8.044  1.00  0.00    -0.323 N 
HETATM   14  H   UNL     1      41.591 -12.419   8.075  1.00  0.00     0.169 HD
HETATM   15  O   UNL     1      42.003  -9.585   6.668  1.00  0.00    -0.267 OA
BRANCH  13  16
HETATM   16  C   UNL     1      42.214 -10.911   9.295  1.00  0.00     0.035 A 
HETATM   17  C   UNL     1      41.337 -10.308  10.199  1.00  0.00     0.031 A 
HETATM   18  C   UNL     1      41.806  -9.834  11.430  1.00  0.00     0.026 A 
HETATM   19  C   UNL     1      43.155  -9.947  11.752  1.00  0.00     0.034 A 
HETATM   20 CL   UNL     1      43.730  -9.359  13.263  1.00  0.00    -0.084 Cl
HETATM   21  C   UNL     1      44.042 -10.538  10.858  1.00  0.00     0.026 A 
HETATM   22  C   UNL     1      43.569 -11.029   9.637  1.00  0.00     0.031 A 
ENDBRANCH  13  16
ENDBRANCH  10  12
BRANCH   1  23
HETATM   23  C   UNL     1      42.678 -13.723   5.682  1.00  0.00    -0.028 A 
HETATM   24  C   UNL     1      41.775 -14.799   5.713  1.00  0.00     0.010 A 
HETATM   25  C   UNL     1      42.156 -16.030   6.251  1.00  0.00     0.007 A 
HETATM   26  C   UNL     1      43.437 -16.207   6.784  1.00  0.00    -0.059 A 
HETATM   27  C   UNL     1      44.318 -15.120   6.813  1.00  0.00     0.007 A 
HETATM   28  C   UNL     1      43.941 -13.890   6.277  1.00  0.00     0.010 A 
BRANCH  26  29
HETATM   29  C   UNL     1      43.885 -17.558   7.286  1.00  0.00     0.034 C 
HETATM   30  C   UNL     1      45.157 -18.017   6.587  1.00  0.00     0.010 C 
ENDBRANCH  26  29
ENDBRANCH   1  23
BRANCH   5  31
HETATM   31  C   UNL     1      42.173 -13.756   0.221  1.00  0.00     0.085 C 
BRANCH  31  32
HETATM   32  C   UNL     1      41.339 -14.921  -0.309  1.00  0.00     0.034 C 
BRANCH  32  33
HETATM   33  C   UNL     1      41.518 -16.201   0.499  1.00  0.00     0.164 C 
BRANCH  33  34
HETATM   34  O   UNL     1      42.874 -16.627   0.429  1.00  0.00    -0.401 OA
HETATM   35  H   UNL     1      43.434 -15.871   0.677  1.00  0.00     0.209 HD
ENDBRANCH  33  34
ENDBRANCH  32  33
ENDBRANCH  31  32
ENDBRANCH   5  31
TORSDOF 8
ENDMDL
MODEL 7
REMARK VINA RESULT:      -8.1      4.019      7.761
REMARK  8 active torsions:
REMARK  status: ('A' for Active; 'I' for Inactive)
REMARK    1  A    between atoms: C_2  and  C_3 
REMARK    2  A    between atoms: C_6  and  C_7 
REMARK    3  A    between atoms: C_11  and  C_12 
REMARK    4  A    between atoms: C_12  and  C_13 
REMARK    5  A    between atoms: C_13  and  C_14 
REMARK    6  A    between atoms: C_14  and  O_15 
REMARK    7  A    between atoms: C_20  and  C_21 
REMARK       I    between atoms: C_21  and  N_22 
REMARK    8  A    between atoms: N_22  and  C_23 
ROOT
HETATM    1  C   UNL     1      41.935 -16.709   4.130  1.00  0.00     0.202 C 
HETATM    2  N   UNL     1      42.618 -16.513   5.408  1.00  0.00    -0.083 N 
HETATM    3  C   UNL     1      43.366 -15.410   5.707  1.00  0.00     0.726 A 
HETATM    4  N   UNL     1      43.830 -15.518   6.927  1.00  0.00    -0.046 NA
HETATM    5  C   UNL     1      43.285 -16.707   7.359  1.00  0.00     0.166 A 
HETATM    6  N   UNL     1      42.513 -17.346   6.466  1.00  0.00    -0.140 NA
HETATM    7  N   UNL     1      43.466 -14.420   4.801  1.00  0.00    -0.192 N 
HETATM    8  C   UNL     1      42.649 -14.349   3.673  1.00  0.00     0.037 C 
HETATM    9  C   UNL     1      42.709 -13.044   2.914  1.00  0.00     0.070 C 
HETATM   10  C   UNL     1      41.875 -15.410   3.320  1.00  0.00     0.062 C 
HETATM   11  H   UNL     1      43.919 -13.557   5.093  1.00  0.00     0.184 HD
ENDROOT
BRANCH  10  12
HETATM   12  C   UNL     1      40.843 -15.273   2.240  1.00  0.00     0.256 C 
HETATM   13  N   UNL     1      41.336 -15.036   0.976  1.00  0.00    -0.323 N 
HETATM   14  H   UNL     1      42.334 -14.956   0.850  1.00  0.00     0.169 HD
HETATM   15  O   UNL     1      39.657 -15.426   2.520  1.00  0.00    -0.267 OA
BRANCH  13  16
HETATM   16  C   UNL     1      40.601 -14.866  -0.217  1.00  0.00     0.035 A 
HETATM   17  C   UNL     1      39.508 -14.007  -0.349  1.00  0.00     0.031 A 
HETATM   18  C   UNL     1      38.852 -13.881  -1.579  1.00  0.00     0.026 A 
HETATM   19  C   UNL     1      39.276 -14.625  -2.675  1.00  0.00     0.034 A 
HETATM   20 CL   UNL     1      38.465 -14.473  -4.184  1.00  0.00    -0.084 Cl
HETATM   21  C   UNL     1      40.359 -15.491  -2.557  1.00  0.00     0.026 A 
HETATM   22  C   UNL     1      41.026 -15.602  -1.334  1.00  0.00     0.031 A 
ENDBRANCH  13  16
ENDBRANCH  10  12
BRANCH   1  23
HETATM   23  C   UNL     1      42.613 -17.846   3.364  1.00  0.00    -0.028 A 
HETATM   24  C   UNL     1      43.753 -18.470   3.899  1.00  0.00     0.010 A 
HETATM   25  C   UNL     1      44.284 -19.613   3.296  1.00  0.00     0.007 A 
HETATM   26  C   UNL     1      43.701 -20.144   2.140  1.00  0.00    -0.059 A 
HETATM   27  C   UNL     1      42.604 -19.489   1.570  1.00  0.00     0.007 A 
HETATM   28  C   UNL     1      42.071 -18.348   2.168  1.00  0.00     0.010 A 
BRANCH  26  29
HETATM   29  C   UNL     1      44.215 -21.427   1.536  1.00  0.00     0.034 C 
HETATM   30  C   UNL     1      44.563 -22.448   2.610  1.00  0.00     0.010 C 
ENDBRANCH  26  29
ENDBRANCH   1  23
BRANCH   5  31
HETATM   31  C   UNL     1      43.492 -17.212   8.740  1.00  0.00     0.085 C 
BRANCH  31  32
HETATM   32  C   UNL     1      44.275 -18.524   8.786  1.00  0.00     0.034 C 
BRANCH  32  33
HETATM   33  C   UNL     1      43.931 -19.465   7.637  1.00  0.00     0.164 C 
BRANCH  33  34
HETATM   34  O   UNL     1      43.491 -20.715   8.157  1.00  0.00    -0.401 OA
HETATM   35  H   UNL     1      44.135 -21.392   7.886  1.00  0.00     0.209 HD
ENDBRANCH  33  34
ENDBRANCH  32  33
ENDBRANCH  31  32
ENDBRANCH   5  31
TORSDOF 8
ENDMDL
MODEL 8
REMARK VINA RESULT:      -8.1      1.673      2.133
REMARK  8 active torsions:
REMARK  status: ('A' for Active; 'I' for Inactive)
REMARK    1  A    between atoms: C_2  and  C_3 
REMARK    2  A    between atoms: C_6  and  C_7 
REMARK    3  A    between atoms: C_11  and  C_12 
REMARK    4  A    between atoms: C_12  and  C_13 
REMARK    5  A    between atoms: C_13  and  C_14 
REMARK    6  A    between atoms: C_14  and  O_15 
REMARK    7  A    between atoms: C_20  and  C_21 
REMARK       I    between atoms: C_21  and  N_22 
REMARK    8  A    between atoms: N_22  and  C_23 
ROOT
HETATM    1  C   UNL     1      42.168 -15.063   2.027  1.00  0.00     0.202 C 
HETATM    2  N   UNL     1      41.279 -14.682   0.930  1.00  0.00    -0.083 N 
HETATM    3  C   UNL     1      39.952 -14.402   1.090  1.00  0.00     0.726 A 
HETATM    4  N   UNL     1      39.435 -14.076  -0.067  1.00  0.00    -0.046 NA
HETATM    5  C   UNL     1      40.519 -14.125  -0.915  1.00  0.00     0.166 A 
HETATM    6  N   UNL     1      41.683 -14.473  -0.342  1.00  0.00    -0.140 NA
HETATM    7  N   UNL     1      39.419 -14.441   2.325  1.00  0.00    -0.192 N 
HETATM    8  C   UNL     1      40.199 -14.511   3.479  1.00  0.00     0.037 C 
HETATM    9  C   UNL     1      39.460 -14.273   4.774  1.00  0.00     0.070 C 
HETATM   10  C   UNL     1      41.529 -14.782   3.391  1.00  0.00     0.062 C 
HETATM   11  H   UNL     1      38.465 -14.105   2.438  1.00  0.00     0.184 HD
ENDROOT
BRANCH  10  12
HETATM   12  C   UNL     1      42.414 -14.653   4.595  1.00  0.00     0.256 C 
HETATM   13  N   UNL     1      42.369 -13.434   5.235  1.00  0.00    -0.323 N 
HETATM   14  H   UNL     1      41.772 -12.710   4.863  1.00  0.00     0.169 HD
HETATM   15  O   UNL     1      43.070 -15.622   4.966  1.00  0.00    -0.267 OA
BRANCH  13  16
HETATM   16  C   UNL     1      43.089 -13.035   6.382  1.00  0.00     0.035 A 
HETATM   17  C   UNL     1      42.696 -12.002   7.235  1.00  0.00     0.031 A 
HETATM   18  C   UNL     1      43.459 -11.689   8.365  1.00  0.00     0.026 A 
HETATM   19  C   UNL     1      44.626 -12.397   8.637  1.00  0.00     0.034 A 
HETATM   20 CL   UNL     1      45.566 -12.007  10.024  1.00  0.00    -0.084 Cl
HETATM   21  C   UNL     1      45.035 -13.424   7.792  1.00  0.00     0.026 A 
HETATM   22  C   UNL     1      44.261 -13.749   6.674  1.00  0.00     0.031 A 
ENDBRANCH  13  16
ENDBRANCH  10  12
BRANCH   1  23
HETATM   23  C   UNL     1      42.574 -16.529   1.862  1.00  0.00    -0.028 A 
HETATM   24  C   UNL     1      43.934 -16.874   1.775  1.00  0.00     0.010 A 
HETATM   25  C   UNL     1      44.327 -18.215   1.790  1.00  0.00     0.007 A 
HETATM   26  C   UNL     1      43.373 -19.235   1.873  1.00  0.00    -0.059 A 
HETATM   27  C   UNL     1      42.016 -18.897   1.895  1.00  0.00     0.007 A 
HETATM   28  C   UNL     1      41.619 -17.560   1.880  1.00  0.00     0.010 A 
BRANCH  26  29
HETATM   29  C   UNL     1      43.795 -20.680   1.978  1.00  0.00     0.034 C 
HETATM   30  C   UNL     1      44.602 -20.933   3.244  1.00  0.00     0.010 C 
ENDBRANCH  26  29
ENDBRANCH   1  23
BRANCH   5  31
HETATM   31  C   UNL     1      40.415 -13.758  -2.349  1.00  0.00     0.085 C 
BRANCH  31  32
HETATM   32  C   UNL     1      40.012 -14.933  -3.239  1.00  0.00     0.034 C 
BRANCH  32  33
HETATM   33  C   UNL     1      38.546 -14.892  -3.656  1.00  0.00     0.164 C 
BRANCH  33  34
HETATM   34  O   UNL     1      37.719 -15.140  -2.524  1.00  0.00    -0.401 OA
HETATM   35  H   UNL     1      38.266 -15.027  -1.728  1.00  0.00     0.209 HD
ENDBRANCH  33  34
ENDBRANCH  32  33
ENDBRANCH  31  32
ENDBRANCH   5  31
TORSDOF 8
ENDMDL
MODEL 9
REMARK VINA RESULT:      -7.9      4.888      8.929
REMARK  8 active torsions:
REMARK  status: ('A' for Active; 'I' for Inactive)
REMARK    1  A    between atoms: C_2  and  C_3 
REMARK    2  A    between atoms: C_6  and  C_7 
REMARK    3  A    between atoms: C_11  and  C_12 
REMARK    4  A    between atoms: C_12  and  C_13 
REMARK    5  A    between atoms: C_13  and  C_14 
REMARK    6  A    between atoms: C_14  and  O_15 
REMARK    7  A    between atoms: C_20  and  C_21 
REMARK       I    between atoms: C_21  and  N_22 
REMARK    8  A    between atoms: N_22  and  C_23 
ROOT
HETATM    1  C   UNL     1      40.547 -14.790   0.170  1.00  0.00     0.202 C 
HETATM    2  N   UNL     1      41.649 -15.415   0.902  1.00  0.00    -0.083 N 
HETATM    3  C   UNL     1      42.042 -15.032   2.152  1.00  0.00     0.726 A 
HETATM    4  N   UNL     1      43.035 -15.789   2.545  1.00  0.00    -0.046 NA
HETATM    5  C   UNL     1      43.184 -16.670   1.498  1.00  0.00     0.166 A 
HETATM    6  N   UNL     1      42.337 -16.493   0.471  1.00  0.00    -0.140 NA
HETATM    7  N   UNL     1      41.370 -14.048   2.778  1.00  0.00    -0.192 N 
HETATM    8  C   UNL     1      40.143 -13.567   2.321  1.00  0.00     0.037 C 
HETATM    9  C   UNL     1      39.406 -12.664   3.281  1.00  0.00     0.070 C 
HETATM   10  C   UNL     1      39.690 -13.912   1.086  1.00  0.00     0.062 C 
HETATM   11  H   UNL     1      41.597 -13.868   3.753  1.00  0.00     0.184 HD
ENDROOT
BRANCH  10  12
HETATM   12  C   UNL     1      38.289 -13.576   0.669  1.00  0.00     0.256 C 
HETATM   13  N   UNL     1      38.134 -12.361   0.038  1.00  0.00    -0.323 N 
HETATM   14  H   UNL     1      38.944 -11.774  -0.092  1.00  0.00     0.169 HD
HETATM   15  O   UNL     1      37.393 -14.395   0.857  1.00  0.00    -0.267 OA
BRANCH  13  16
HETATM   16  C   UNL     1      36.940 -11.793  -0.456  1.00  0.00     0.035 A 
HETATM   17  C   UNL     1      35.873 -11.389   0.348  1.00  0.00     0.031 A 
HETATM   18  C   UNL     1      34.734 -10.811  -0.226  1.00  0.00     0.026 A 
HETATM   19  C   UNL     1      34.653 -10.651  -1.605  1.00  0.00     0.034 A 
HETATM   20 CL   UNL     1      33.251  -9.946  -2.309  1.00  0.00    -0.084 Cl
HETATM   21  C   UNL     1      35.706 -11.056  -2.420  1.00  0.00     0.026 A 
HETATM   22  C   UNL     1      36.850 -11.615  -1.845  1.00  0.00     0.031 A 
ENDBRANCH  13  16
ENDBRANCH  10  12
BRANCH   1  23
HETATM   23  C   UNL     1      41.109 -14.017  -1.025  1.00  0.00    -0.028 A 
HETATM   24  C   UNL     1      40.675 -14.323  -2.326  1.00  0.00     0.010 A 
HETATM   25  C   UNL     1      41.051 -13.520  -3.406  1.00  0.00     0.007 A 
HETATM   26  C   UNL     1      41.881 -12.411  -3.213  1.00  0.00    -0.059 A 
HETATM   27  C   UNL     1      42.367 -12.141  -1.929  1.00  0.00     0.007 A 
HETATM   28  C   UNL     1      41.994 -12.939  -0.849  1.00  0.00     0.010 A 
BRANCH  26  29
HETATM   29  C   UNL     1      42.220 -11.491  -4.360  1.00  0.00     0.034 C 
HETATM   30  C   UNL     1      42.519 -10.081  -3.871  1.00  0.00     0.010 C 
ENDBRANCH  26  29
ENDBRANCH   1  23
BRANCH   5  31
HETATM   31  C   UNL     1      44.174 -17.777   1.534  1.00  0.00     0.085 C 
BRANCH  31  32
HETATM   32  C   UNL     1      43.620 -19.055   2.161  1.00  0.00     0.034 C 
BRANCH  32  33
HETATM   33  C   UNL     1      43.188 -18.870   3.612  1.00  0.00     0.164 C 
BRANCH  33  34
HETATM   34  O   UNL     1      44.237 -18.251   4.349  1.00  0.00    -0.401 OA
HETATM   35  H   UNL     1      43.839 -17.565   4.911  1.00  0.00     0.209 HD
ENDBRANCH  33  34
ENDBRANCH  32  33
ENDBRANCH  31  32
ENDBRANCH   5  31
TORSDOF 8
ENDMDL
MODEL 10
REMARK VINA RESULT:      -7.6      4.142      8.589
REMARK  8 active torsions:
REMARK  status: ('A' for Active; 'I' for Inactive)
REMARK    1  A    between atoms: C_2  and  C_3 
REMARK    2  A    between atoms: C_6  and  C_7 
REMARK    3  A    between atoms: C_11  and  C_12 
REMARK    4  A    between atoms: C_12  and  C_13 
REMARK    5  A    between atoms: C_13  and  C_14 
REMARK    6  A    between atoms: C_14  and  O_15 
REMARK    7  A    between atoms: C_20  and  C_21 
REMARK       I    between atoms: C_21  and  N_22 
REMARK    8  A    between atoms: N_22  and  C_23 
ROOT
HETATM    1  C   UNL     1      41.779 -13.700   4.155  1.00  0.00     0.202 C 
HETATM    2  N   UNL     1      42.127 -14.869   4.962  1.00  0.00    -0.083 N 
HETATM    3  C   UNL     1      41.531 -16.090   4.825  1.00  0.00     0.726 A 
HETATM    4  N   UNL     1      42.069 -16.932   5.671  1.00  0.00    -0.046 NA
HETATM    5  C   UNL     1      43.043 -16.176   6.283  1.00  0.00     0.166 A 
HETATM    6  N   UNL     1      43.131 -14.902   5.864  1.00  0.00    -0.140 NA
HETATM    7  N   UNL     1      40.592 -16.259   3.875  1.00  0.00    -0.192 N 
HETATM    8  C   UNL     1      40.369 -15.324   2.864  1.00  0.00     0.037 C 
HETATM    9  C   UNL     1      39.477 -15.791   1.739  1.00  0.00     0.070 C 
HETATM   10  C   UNL     1      40.935 -14.089   2.937  1.00  0.00     0.062 C 
HETATM   11  H   UNL     1      40.257 -17.204   3.706  1.00  0.00     0.184 HD
ENDROOT
BRANCH  10  12
HETATM   12  C   UNL     1      40.877 -13.155   1.764  1.00  0.00     0.256 C 
HETATM   13  N   UNL     1      41.898 -13.289   0.849  1.00  0.00    -0.323 N 
HETATM   14  H   UNL     1      42.616 -13.977   1.019  1.00  0.00     0.169 HD
HETATM   15  O   UNL     1      39.928 -12.383   1.658  1.00  0.00    -0.267 OA
BRANCH  13  16
HETATM   16  C   UNL     1      42.095 -12.549  -0.336  1.00  0.00     0.035 A 
HETATM   17  C   UNL     1      42.510 -11.217  -0.369  1.00  0.00     0.031 A 
HETATM   18  C   UNL     1      42.704 -10.566  -1.593  1.00  0.00     0.026 A 
HETATM   19  C   UNL     1      42.467 -11.241  -2.787  1.00  0.00     0.034 A 
HETATM   20 CL   UNL     1      42.701 -10.438  -4.290  1.00  0.00    -0.084 Cl
HETATM   21  C   UNL     1      42.045 -12.567  -2.770  1.00  0.00     0.026 A 
HETATM   22  C   UNL     1      41.870 -13.221  -1.547  1.00  0.00     0.031 A 
ENDBRANCH  13  16
ENDBRANCH  10  12
BRANCH   1  23
HETATM   23  C   UNL     1      41.086 -12.663   5.040  1.00  0.00    -0.028 A 
HETATM   24  C   UNL     1      40.006 -13.044   5.854  1.00  0.00     0.010 A 
HETATM   25  C   UNL     1      39.471 -12.152   6.786  1.00  0.00     0.007 A 
HETATM   26  C   UNL     1      39.989 -10.859   6.912  1.00  0.00    -0.059 A 
HETATM   27  C   UNL     1      41.022 -10.454   6.059  1.00  0.00     0.007 A 
HETATM   28  C   UNL     1      41.559 -11.341   5.128  1.00  0.00     0.010 A 
BRANCH  26  29
HETATM   29  C   UNL     1      39.475  -9.921   7.976  1.00  0.00     0.034 C 
HETATM   30  C   UNL     1      39.096 -10.673   9.244  1.00  0.00     0.010 C 
ENDBRANCH  26  29
ENDBRANCH   1  23
BRANCH   5  31
HETATM   31  C   UNL     1      43.968 -16.749   7.292  1.00  0.00     0.085 C 
BRANCH  31  32
HETATM   32  C   UNL     1      44.890 -17.823   6.717  1.00  0.00     0.034 C 
BRANCH  32  33
HETATM   33  C   UNL     1      44.352 -19.237   6.907  1.00  0.00     0.164 C 
BRANCH  33  34
HETATM   34  O   UNL     1      43.597 -19.304   8.112  1.00  0.00    -0.401 OA
HETATM   35  H   UNL     1      42.697 -18.991   7.915  1.00  0.00     0.209 HD
ENDBRANCH  33  34
ENDBRANCH  32  33
ENDBRANCH  31  32
ENDBRANCH   5  31
TORSDOF 8
ENDMDL
