MODEL 1
REMARK VINA RESULT:      -8.7      0.000      0.000
REMARK  3 active torsions:
REMARK  status: ('A' for Active; 'I' for Inactive)
REMARK    1  A    between atoms: C_11  and  N_12 
REMARK       I    between atoms: N_12  and  C_13 
REMARK    2  A    between atoms: C_13  and  C_14 
REMARK    3  A    between atoms: C_18  and  C_19 
ROOT
HETATM    1  N   UNL     1      41.829 -14.329   2.497  1.00  0.00    -0.351 N 
HETATM    2  C   UNL     1      43.081 -14.508   3.066  1.00  0.00     0.272 C 
HETATM    3  O   UNL     1      43.900 -13.607   3.199  1.00  0.00    -0.266 OA
HETATM    4  H   UNL     1      41.409 -15.233   2.272  1.00  0.00     0.163 HD
ENDROOT
BRANCH   1   5
HETATM    5  C   UNL     1      41.455 -13.137   1.766  1.00  0.00     0.089 C 
HETATM    6  C   UNL     1      39.966 -12.770   1.849  1.00  0.00     0.063 C 
HETATM    7  C   UNL     1      39.025 -13.695   1.069  1.00  0.00     0.121 C 
HETATM    8  N   UNL     1      39.547 -13.873  -0.344  1.00  0.00    -0.059 N 
HETATM    9  C   UNL     1      38.792 -15.059   1.726  1.00  0.00     0.046 C 
HETATM   10  C   UNL     1      37.649 -13.011   0.929  1.00  0.00     0.046 C 
HETATM   11  C   UNL     1      41.018 -14.130  -0.592  1.00  0.00     0.121 C 
HETATM   12  H   UNL     1      39.296 -13.019  -0.861  1.00  0.00     0.279 HD
HETATM   13  H   UNL     1      38.998 -14.614  -0.802  1.00  0.00     0.279 HD
HETATM   14  C   UNL     1      41.328 -15.622  -0.428  1.00  0.00     0.046 C 
HETATM   15  C   UNL     1      41.268 -13.770  -2.072  1.00  0.00     0.046 C 
HETATM   16  C   UNL     1      41.879 -13.215   0.297  1.00  0.00     0.063 C 
ENDBRANCH   1   5
BRANCH   2  17
HETATM   17  C   UNL     1      43.312 -15.892   3.498  1.00  0.00     0.146 A 
HETATM   18  N   UNL     1      43.319 -16.225   4.806  1.00  0.00    -0.169 NA
HETATM   19  N   UNL     1      43.567 -17.551   4.792  1.00  0.00    -0.277 N 
HETATM   20  H   UNL     1      43.648 -18.035   5.680  1.00  0.00     0.189 HD
HETATM   21  C   UNL     1      43.700 -18.093   3.539  1.00  0.00     0.063 A 
HETATM   22  C   UNL     1      43.548 -17.022   2.680  1.00  0.00     0.071 A 
BRANCH  21  23
HETATM   23  C   UNL     1      43.968 -19.510   3.287  1.00  0.00    -0.008 A 
HETATM   24  C   UNL     1      44.603 -20.315   4.244  1.00  0.00     0.014 A 
HETATM   25  C   UNL     1      44.853 -21.667   3.987  1.00  0.00     0.001 A 
HETATM   26  C   UNL     1      44.469 -22.231   2.774  1.00  0.00     0.000 A 
HETATM   27  C   UNL     1      43.834 -21.446   1.816  1.00  0.00     0.001 A 
HETATM   28  C   UNL     1      43.584 -20.095   2.072  1.00  0.00     0.014 A 
ENDBRANCH  21  23
ENDBRANCH   2  17
TORSDOF 3
ENDMDL
MODEL 2
REMARK VINA RESULT:      -8.4      2.491      3.520
REMARK  3 active torsions:
REMARK  status: ('A' for Active; 'I' for Inactive)
REMARK    1  A    between atoms: C_11  and  N_12 
REMARK       I    between atoms: N_12  and  C_13 
REMARK    2  A    between atoms: C_13  and  C_14 
REMARK    3  A    between atoms: C_18  and  C_19 
ROOT
HETATM    1  N   UNL     1      40.068 -14.868  -0.549  1.00  0.00    -0.351 N 
HETATM    2  C   UNL     1      40.120 -15.390   0.735  1.00  0.00     0.272 C 
HETATM    3  O   UNL     1      39.296 -15.133   1.604  1.00  0.00    -0.266 OA
HETATM    4  H   UNL     1      40.958 -15.018  -1.029  1.00  0.00     0.163 HD
ENDROOT
BRANCH   1   5
HETATM    5  C   UNL     1      39.200 -13.772  -0.924  1.00  0.00     0.089 C 
HETATM    6  C   UNL     1      38.040 -14.156  -1.853  1.00  0.00     0.063 C 
HETATM    7  C   UNL     1      38.443 -14.492  -3.292  1.00  0.00     0.121 C 
HETATM    8  N   UNL     1      39.342 -13.398  -3.834  1.00  0.00    -0.059 N 
HETATM    9  C   UNL     1      39.112 -15.861  -3.457  1.00  0.00     0.046 C 
HETATM   10  C   UNL     1      37.183 -14.487  -4.183  1.00  0.00     0.046 C 
HETATM   11  C   UNL     1      40.465 -12.837  -2.989  1.00  0.00     0.121 C 
HETATM   12  H   UNL     1      38.728 -12.610  -4.087  1.00  0.00     0.279 HD
HETATM   13  H   UNL     1      39.729 -13.712  -4.736  1.00  0.00     0.279 HD
HETATM   14  C   UNL     1      41.705 -13.731  -3.099  1.00  0.00     0.046 C 
HETATM   15  C   UNL     1      40.826 -11.473  -3.614  1.00  0.00     0.046 C 
HETATM   16  C   UNL     1      39.986 -12.613  -1.544  1.00  0.00     0.063 C 
ENDBRANCH   1   5
BRANCH   2  17
HETATM   17  C   UNL     1      41.264 -16.289   0.933  1.00  0.00     0.146 A 
HETATM   18  N   UNL     1      42.357 -16.214   0.144  1.00  0.00    -0.169 NA
HETATM   19  N   UNL     1      43.159 -17.185   0.625  1.00  0.00    -0.277 N 
HETATM   20  H   UNL     1      44.050 -17.346   0.167  1.00  0.00     0.189 HD
HETATM   21  C   UNL     1      42.647 -17.868   1.699  1.00  0.00     0.063 A 
HETATM   22  C   UNL     1      41.404 -17.304   1.908  1.00  0.00     0.071 A 
BRANCH  21  23
HETATM   23  C   UNL     1      43.346 -18.958   2.382  1.00  0.00    -0.008 A 
HETATM   24  C   UNL     1      43.495 -20.219   1.785  1.00  0.00     0.014 A 
HETATM   25  C   UNL     1      44.164 -21.250   2.451  1.00  0.00     0.001 A 
HETATM   26  C   UNL     1      44.695 -21.034   3.719  1.00  0.00     0.000 A 
HETATM   27  C   UNL     1      44.560 -19.787   4.323  1.00  0.00     0.001 A 
HETATM   28  C   UNL     1      43.891 -18.756   3.658  1.00  0.00     0.014 A 
ENDBRANCH  21  23
ENDBRANCH   2  17
TORSDOF 3
ENDMDL
MODEL 3
REMARK VINA RESULT:      -8.2      1.202      2.115
REMARK  3 active torsions:
REMARK  status: ('A' for Active; 'I' for Inactive)
REMARK    1  A    between atoms: C_11  and  N_12 
REMARK       I    between atoms: N_12  and  C_13 
REMARK    2  A    between atoms: C_13  and  C_14 
REMARK    3  A    between atoms: C_18  and  C_19 
ROOT
HETATM    1  N   UNL     1      41.907 -14.321   2.622  1.00  0.00    -0.351 N 
HETATM    2  C   UNL     1      43.165 -14.517   3.172  1.00  0.00     0.272 C 
HETATM    3  O   UNL     1      43.989 -13.622   3.315  1.00  0.00    -0.266 OA
HETATM    4  H   UNL     1      41.481 -15.219   2.384  1.00  0.00     0.163 HD
ENDROOT
BRANCH   1   5
HETATM    5  C   UNL     1      41.528 -13.112   1.922  1.00  0.00     0.089 C 
HETATM    6  C   UNL     1      41.006 -11.982   2.820  1.00  0.00     0.063 C 
HETATM    7  C   UNL     1      39.615 -12.219   3.420  1.00  0.00     0.121 C 
HETATM    8  N   UNL     1      38.657 -12.639   2.323  1.00  0.00    -0.059 N 
HETATM    9  C   UNL     1      39.587 -13.233   4.568  1.00  0.00     0.046 C 
HETATM   10  C   UNL     1      39.071 -10.885   3.971  1.00  0.00     0.046 C 
HETATM   11  C   UNL     1      39.073 -13.666   1.291  1.00  0.00     0.121 C 
HETATM   12  H   UNL     1      38.398 -11.783   1.812  1.00  0.00     0.279 HD
HETATM   13  H   UNL     1      37.775 -12.945   2.760  1.00  0.00     0.279 HD
HETATM   14  C   UNL     1      38.859 -15.081   1.840  1.00  0.00     0.046 C 
HETATM   15  C   UNL     1      38.106 -13.487   0.100  1.00  0.00     0.046 C 
HETATM   16  C   UNL     1      40.509 -13.394   0.814  1.00  0.00     0.063 C 
ENDBRANCH   1   5
BRANCH   2  17
HETATM   17  C   UNL     1      43.395 -15.911   3.571  1.00  0.00     0.146 A 
HETATM   18  N   UNL     1      43.466 -16.264   4.872  1.00  0.00    -0.169 NA
HETATM   19  N   UNL     1      43.691 -17.593   4.827  1.00  0.00    -0.277 N 
HETATM   20  H   UNL     1      43.812 -18.092   5.702  1.00  0.00     0.189 HD
HETATM   21  C   UNL     1      43.748 -18.118   3.560  1.00  0.00     0.063 A 
HETATM   22  C   UNL     1      43.568 -17.032   2.726  1.00  0.00     0.071 A 
BRANCH  21  23
HETATM   23  C   UNL     1      43.979 -19.535   3.275  1.00  0.00    -0.008 A 
HETATM   24  C   UNL     1      43.621 -20.101   2.042  1.00  0.00     0.014 A 
HETATM   25  C   UNL     1      43.848 -21.456   1.785  1.00  0.00     0.001 A 
HETATM   26  C   UNL     1      44.437 -22.262   2.754  1.00  0.00     0.000 A 
HETATM   27  C   UNL     1      44.803 -21.715   3.981  1.00  0.00     0.001 A 
HETATM   28  C   UNL     1      44.577 -20.360   4.238  1.00  0.00     0.014 A 
ENDBRANCH  21  23
ENDBRANCH   2  17
TORSDOF 3
ENDMDL
MODEL 4
REMARK VINA RESULT:      -8.1      2.328      3.279
REMARK  3 active torsions:
REMARK  status: ('A' for Active; 'I' for Inactive)
REMARK    1  A    between atoms: C_11  and  N_12 
REMARK       I    between atoms: N_12  and  C_13 
REMARK    2  A    between atoms: C_13  and  C_14 
REMARK    3  A    between atoms: C_18  and  C_19 
ROOT
HETATM    1  N   UNL     1      40.105 -14.646  -0.313  1.00  0.00    -0.351 N 
HETATM    2  C   UNL     1      39.937 -15.160   0.964  1.00  0.00     0.272 C 
HETATM    3  O   UNL     1      38.910 -15.025   1.618  1.00  0.00    -0.266 OA
HETATM    4  H   UNL     1      41.092 -14.667  -0.577  1.00  0.00     0.163 HD
ENDROOT
BRANCH   1   5
HETATM    5  C   UNL     1      39.201 -13.681  -0.904  1.00  0.00     0.089 C 
HETATM    6  C   UNL     1      38.215 -14.263  -1.927  1.00  0.00     0.063 C 
HETATM    7  C   UNL     1      38.837 -14.684  -3.262  1.00  0.00     0.121 C 
HETATM    8  N   UNL     1      39.699 -13.557  -3.797  1.00  0.00    -0.059 N 
HETATM    9  C   UNL     1      39.642 -15.987  -3.201  1.00  0.00     0.046 C 
HETATM   10  C   UNL     1      37.713 -14.887  -4.300  1.00  0.00     0.046 C 
HETATM   11  C   UNL     1      40.643 -12.811  -2.878  1.00  0.00     0.121 C 
HETATM   12  H   UNL     1      39.057 -12.861  -4.203  1.00  0.00     0.279 HD
HETATM   13  H   UNL     1      40.231 -13.910  -4.606  1.00  0.00     0.279 HD
HETATM   14  C   UNL     1      41.962 -13.581  -2.741  1.00  0.00     0.046 C 
HETATM   15  C   UNL     1      40.963 -11.479  -3.590  1.00  0.00     0.046 C 
HETATM   16  C   UNL     1      39.957 -12.509  -1.535  1.00  0.00     0.063 C 
ENDBRANCH   1   5
BRANCH   2  17
HETATM   17  C   UNL     1      41.120 -15.889   1.439  1.00  0.00     0.146 A 
HETATM   18  N   UNL     1      42.274 -15.246   1.713  1.00  0.00    -0.169 NA
HETATM   19  N   UNL     1      43.102 -16.236   2.102  1.00  0.00    -0.277 N 
HETATM   20  H   UNL     1      44.060 -15.999   2.340  1.00  0.00     0.189 HD
HETATM   21  C   UNL     1      42.532 -17.484   2.113  1.00  0.00     0.063 A 
HETATM   22  C   UNL     1      41.240 -17.279   1.671  1.00  0.00     0.071 A 
BRANCH  21  23
HETATM   23  C   UNL     1      43.243 -18.703   2.504  1.00  0.00    -0.008 A 
HETATM   24  C   UNL     1      44.005 -18.760   3.680  1.00  0.00     0.014 A 
HETATM   25  C   UNL     1      44.679 -19.932   4.038  1.00  0.00     0.001 A 
HETATM   26  C   UNL     1      44.597 -21.060   3.229  1.00  0.00     0.000 A 
HETATM   27  C   UNL     1      43.841 -21.021   2.061  1.00  0.00     0.001 A 
HETATM   28  C   UNL     1      43.167 -19.851   1.702  1.00  0.00     0.014 A 
ENDBRANCH  21  23
ENDBRANCH   2  17
TORSDOF 3
ENDMDL
MODEL 5
REMARK VINA RESULT:      -8.0      1.364      1.784
REMARK  3 active torsions:
REMARK  status: ('A' for Active; 'I' for Inactive)
REMARK    1  A    between atoms: C_11  and  N_12 
REMARK       I    between atoms: N_12  and  C_13 
REMARK    2  A    between atoms: C_13  and  C_14 
REMARK    3  A    between atoms: C_18  and  C_19 
ROOT
HETATM    1  N   UNL     1      41.791 -14.176   2.321  1.00  0.00    -0.351 N 
HETATM    2  C   UNL     1      43.042 -14.654   2.681  1.00  0.00     0.272 C 
HETATM    3  O   UNL     1      43.898 -13.968   3.226  1.00  0.00    -0.266 OA
HETATM    4  H   UNL     1      41.331 -14.829   1.684  1.00  0.00     0.163 HD
ENDROOT
BRANCH   1   5
HETATM    5  C   UNL     1      41.455 -12.768   2.307  1.00  0.00     0.089 C 
HETATM    6  C   UNL     1      39.960 -12.459   2.475  1.00  0.00     0.063 C 
HETATM    7  C   UNL     1      39.085 -12.808   1.267  1.00  0.00     0.121 C 
HETATM    8  N   UNL     1      39.705 -12.230   0.009  1.00  0.00    -0.059 N 
HETATM    9  C   UNL     1      38.821 -14.306   1.089  1.00  0.00     0.046 C 
HETATM   10  C   UNL     1      37.715 -12.115   1.421  1.00  0.00     0.046 C 
HETATM   11  C   UNL     1      41.192 -12.358  -0.242  1.00  0.00     0.121 C 
HETATM   12  H   UNL     1      39.481 -11.224   0.005  1.00  0.00     0.279 HD
HETATM   13  H   UNL     1      39.196 -12.603  -0.805  1.00  0.00     0.279 HD
HETATM   14  C   UNL     1      41.505 -13.721  -0.871  1.00  0.00     0.046 C 
HETATM   15  C   UNL     1      41.539 -11.279  -1.291  1.00  0.00     0.046 C 
HETATM   16  C   UNL     1      41.980 -12.072   1.048  1.00  0.00     0.063 C 
ENDBRANCH   1   5
BRANCH   2  17
HETATM   17  C   UNL     1      43.222 -16.072   2.345  1.00  0.00     0.146 A 
HETATM   18  N   UNL     1      43.016 -16.526   1.091  1.00  0.00    -0.169 NA
HETATM   19  N   UNL     1      43.268 -17.847   1.188  1.00  0.00    -0.277 N 
HETATM   20  H   UNL     1      43.151 -18.422   0.361  1.00  0.00     0.189 HD
HETATM   21  C   UNL     1      43.647 -18.264   2.439  1.00  0.00     0.063 A 
HETATM   22  C   UNL     1      43.612 -17.120   3.212  1.00  0.00     0.071 A 
BRANCH  21  23
HETATM   23  C   UNL     1      43.972 -19.652   2.773  1.00  0.00    -0.008 A 
HETATM   24  C   UNL     1      43.748 -20.695   1.862  1.00  0.00     0.014 A 
HETATM   25  C   UNL     1      44.062 -22.015   2.197  1.00  0.00     0.001 A 
HETATM   26  C   UNL     1      44.607 -22.310   3.443  1.00  0.00     0.000 A 
HETATM   27  C   UNL     1      44.840 -21.285   4.356  1.00  0.00     0.001 A 
HETATM   28  C   UNL     1      44.526 -19.965   4.023  1.00  0.00     0.014 A 
ENDBRANCH  21  23
ENDBRANCH   2  17
TORSDOF 3
ENDMDL
MODEL 6
REMARK VINA RESULT:      -7.9      2.091      2.677
REMARK  3 active torsions:
REMARK  status: ('A' for Active; 'I' for Inactive)
REMARK    1  A    between atoms: C_11  and  N_12 
REMARK       I    between atoms: N_12  and  C_13 
REMARK    2  A    between atoms: C_13  and  C_14 
REMARK    3  A    between atoms: C_18  and  C_19 
ROOT
HETATM    1  N   UNL     1      42.961 -14.848   4.436  1.00  0.00    -0.351 N 
HETATM    2  C   UNL     1      43.534 -15.222   5.642  1.00  0.00     0.272 C 
HETATM    3  O   UNL     1      43.658 -14.465   6.597  1.00  0.00    -0.266 OA
HETATM    4  H   UNL     1      43.166 -15.544   3.716  1.00  0.00     0.163 HD
ENDROOT
BRANCH   1   5
HETATM    5  C   UNL     1      42.690 -13.472   4.080  1.00  0.00     0.089 C 
HETATM    6  C   UNL     1      41.628 -12.778   4.946  1.00  0.00     0.063 C 
HETATM    7  C   UNL     1      40.190 -13.252   4.712  1.00  0.00     0.121 C 
HETATM    8  N   UNL     1      39.889 -13.241   3.225  1.00  0.00    -0.059 N 
HETATM    9  C   UNL     1      39.872 -14.626   5.309  1.00  0.00     0.046 C 
HETATM   10  C   UNL     1      39.216 -12.238   5.348  1.00  0.00     0.046 C 
HETATM   11  C   UNL     1      40.894 -13.791   2.235  1.00  0.00     0.121 C 
HETATM   12  H   UNL     1      39.713 -12.260   2.966  1.00  0.00     0.279 HD
HETATM   13  H   UNL     1      38.983 -13.708   3.074  1.00  0.00     0.279 HD
HETATM   14  C   UNL     1      40.745 -15.313   2.123  1.00  0.00     0.046 C 
HETATM   15  C   UNL     1      40.511 -13.191   0.865  1.00  0.00     0.046 C 
HETATM   16  C   UNL     1      42.315 -13.331   2.603  1.00  0.00     0.063 C 
ENDBRANCH   1   5
BRANCH   2  17
HETATM   17  C   UNL     1      43.966 -16.626   5.651  1.00  0.00     0.146 A 
HETATM   18  N   UNL     1      44.656 -17.139   6.692  1.00  0.00    -0.169 NA
HETATM   19  N   UNL     1      44.870 -18.419   6.327  1.00  0.00    -0.277 N 
HETATM   20  H   UNL     1      45.406 -19.015   6.950  1.00  0.00     0.189 HD
HETATM   21  C   UNL     1      44.334 -18.763   5.111  1.00  0.00     0.063 A 
HETATM   22  C   UNL     1      43.749 -17.600   4.649  1.00  0.00     0.071 A 
BRANCH  21  23
HETATM   23  C   UNL     1      44.443 -20.097   4.520  1.00  0.00    -0.008 A 
HETATM   24  C   UNL     1      44.665 -21.233   5.313  1.00  0.00     0.014 A 
HETATM   25  C   UNL     1      44.767 -22.501   4.732  1.00  0.00     0.001 A 
HETATM   26  C   UNL     1      44.645 -22.650   3.354  1.00  0.00     0.000 A 
HETATM   27  C   UNL     1      44.420 -21.534   2.554  1.00  0.00     0.001 A 
HETATM   28  C   UNL     1      44.318 -20.267   3.133  1.00  0.00     0.014 A 
ENDBRANCH  21  23
ENDBRANCH   2  17
TORSDOF 3
ENDMDL
MODEL 7
REMARK VINA RESULT:      -7.5      1.694      2.142
REMARK  3 active torsions:
REMARK  status: ('A' for Active; 'I' for Inactive)
REMARK    1  A    between atoms: C_11  and  N_12 
REMARK       I    between atoms: N_12  and  C_13 
REMARK    2  A    between atoms: C_13  and  C_14 
REMARK    3  A    between atoms: C_18  and  C_19 
ROOT
HETATM    1  N   UNL     1      41.385 -14.989   4.385  1.00  0.00    -0.351 N 
HETATM    2  C   UNL     1      42.417 -15.008   5.311  1.00  0.00     0.272 C 
HETATM    3  O   UNL     1      42.698 -14.058   6.031  1.00  0.00    -0.266 OA
HETATM    4  H   UNL     1      41.472 -15.778   3.741  1.00  0.00     0.163 HD
ENDROOT
BRANCH   1   5
HETATM    5  C   UNL     1      40.702 -13.777   3.984  1.00  0.00     0.089 C 
HETATM    6  C   UNL     1      39.323 -13.995   3.346  1.00  0.00     0.063 C 
HETATM    7  C   UNL     1      39.347 -14.596   1.937  1.00  0.00     0.121 C 
HETATM    8  N   UNL     1      40.320 -13.820   1.071  1.00  0.00    -0.059 N 
HETATM    9  C   UNL     1      39.673 -16.093   1.894  1.00  0.00     0.046 C 
HETATM   10  C   UNL     1      37.960 -14.410   1.286  1.00  0.00     0.046 C 
HETATM   11  C   UNL     1      41.683 -13.434   1.606  1.00  0.00     0.121 C 
HETATM   12  H   UNL     1      39.843 -12.949   0.798  1.00  0.00     0.279 HD
HETATM   13  H   UNL     1      40.442 -14.328   0.183  1.00  0.00     0.279 HD
HETATM   14  C   UNL     1      42.665 -14.599   1.438  1.00  0.00     0.046 C 
HETATM   15  C   UNL     1      42.181 -12.282   0.706  1.00  0.00     0.046 C 
HETATM   16  C   UNL     1      41.566 -12.922   3.052  1.00  0.00     0.063 C 
ENDBRANCH   1   5
BRANCH   2  17
HETATM   17  C   UNL     1      43.129 -16.292   5.337  1.00  0.00     0.146 A 
HETATM   18  N   UNL     1      44.046 -16.565   6.288  1.00  0.00    -0.169 NA
HETATM   19  N   UNL     1      44.470 -17.805   5.972  1.00  0.00    -0.277 N 
HETATM   20  H   UNL     1      45.199 -18.225   6.539  1.00  0.00     0.189 HD
HETATM   21  C   UNL     1      43.856 -18.355   4.875  1.00  0.00     0.063 A 
HETATM   22  C   UNL     1      42.984 -17.376   4.440  1.00  0.00     0.071 A 
BRANCH  21  23
HETATM   23  C   UNL     1      44.157 -19.689   4.355  1.00  0.00    -0.008 A 
HETATM   24  C   UNL     1      44.065 -19.978   2.985  1.00  0.00     0.014 A 
HETATM   25  C   UNL     1      44.355 -21.259   2.504  1.00  0.00     0.001 A 
HETATM   26  C   UNL     1      44.743 -22.265   3.384  1.00  0.00     0.000 A 
HETATM   27  C   UNL     1      44.843 -21.993   4.746  1.00  0.00     0.001 A 
HETATM   28  C   UNL     1      44.553 -20.713   5.227  1.00  0.00     0.014 A 
ENDBRANCH  21  23
ENDBRANCH   2  17
TORSDOF 3
ENDMDL
MODEL 8
REMARK VINA RESULT:      -7.3      2.417      7.498
REMARK  3 active torsions:
REMARK  status: ('A' for Active; 'I' for Inactive)
REMARK    1  A    between atoms: C_11  and  N_12 
REMARK       I    between atoms: N_12  and  C_13 
REMARK    2  A    between atoms: C_13  and  C_14 
REMARK    3  A    between atoms: C_18  and  C_19 
ROOT
HETATM    1  N   UNL     1      41.204 -15.566   3.029  1.00  0.00    -0.351 N 
HETATM    2  C   UNL     1      40.611 -16.099   1.895  1.00  0.00     0.272 C 
HETATM    3  O   UNL     1      39.799 -17.015   1.922  1.00  0.00    -0.266 OA
HETATM    4  H   UNL     1      42.006 -14.987   2.771  1.00  0.00     0.163 HD
ENDROOT
BRANCH   1   5
HETATM    5  C   UNL     1      41.135 -16.197   4.330  1.00  0.00     0.089 C 
HETATM    6  C   UNL     1      41.756 -15.384   5.475  1.00  0.00     0.063 C 
HETATM    7  C   UNL     1      43.286 -15.302   5.459  1.00  0.00     0.121 C 
HETATM    8  N   UNL     1      43.865 -16.693   5.294  1.00  0.00    -0.059 N 
HETATM    9  C   UNL     1      43.857 -14.359   4.394  1.00  0.00     0.046 C 
HETATM   10  C   UNL     1      43.778 -14.797   6.831  1.00  0.00     0.046 C 
HETATM   11  C   UNL     1      43.283 -17.653   4.278  1.00  0.00     0.121 C 
HETATM   12  H   UNL     1      43.802 -17.151   6.215  1.00  0.00     0.279 HD
HETATM   13  H   UNL     1      44.879 -16.606   5.127  1.00  0.00     0.279 HD
HETATM   14  C   UNL     1      43.881 -17.381   2.893  1.00  0.00     0.046 C 
HETATM   15  C   UNL     1      43.747 -19.061   4.710  1.00  0.00     0.046 C 
HETATM   16  C   UNL     1      41.746 -17.601   4.313  1.00  0.00     0.063 C 
ENDBRANCH   1   5
BRANCH   2  17
HETATM   17  C   UNL     1      41.056 -15.438   0.661  1.00  0.00     0.146 A 
HETATM   18  N   UNL     1      41.295 -16.145  -0.463  1.00  0.00    -0.169 NA
HETATM   19  N   UNL     1      41.684 -15.205  -1.349  1.00  0.00    -0.277 N 
HETATM   20  H   UNL     1      41.951 -15.502  -2.282  1.00  0.00     0.189 HD
HETATM   21  C   UNL     1      41.688 -13.924  -0.856  1.00  0.00     0.063 A 
HETATM   22  C   UNL     1      41.291 -14.058   0.459  1.00  0.00     0.071 A 
BRANCH  21  23
HETATM   23  C   UNL     1      42.072 -12.750  -1.641  1.00  0.00    -0.008 A 
HETATM   24  C   UNL     1      42.629 -11.615  -1.034  1.00  0.00     0.014 A 
HETATM   25  C   UNL     1      42.989 -10.500  -1.798  1.00  0.00     0.001 A 
HETATM   26  C   UNL     1      42.800 -10.507  -3.177  1.00  0.00     0.000 A 
HETATM   27  C   UNL     1      42.252 -11.628  -3.795  1.00  0.00     0.001 A 
HETATM   28  C   UNL     1      41.892 -12.741  -3.032  1.00  0.00     0.014 A 
ENDBRANCH  21  23
ENDBRANCH   2  17
TORSDOF 3
ENDMDL
MODEL 9
REMARK VINA RESULT:      -7.3      1.721      2.068
REMARK  3 active torsions:
REMARK  status: ('A' for Active; 'I' for Inactive)
REMARK    1  A    between atoms: C_11  and  N_12 
REMARK       I    between atoms: N_12  and  C_13 
REMARK    2  A    between atoms: C_13  and  C_14 
REMARK    3  A    between atoms: C_18  and  C_19 
ROOT
HETATM    1  N   UNL     1      40.872 -13.808   3.490  1.00  0.00    -0.351 N 
HETATM    2  C   UNL     1      40.887 -14.553   4.660  1.00  0.00     0.272 C 
HETATM    3  O   UNL     1      40.171 -14.314   5.624  1.00  0.00    -0.266 OA
HETATM    4  H   UNL     1      41.692 -14.025   2.920  1.00  0.00     0.163 HD
ENDROOT
BRANCH   1   5
HETATM    5  C   UNL     1      40.210 -12.526   3.375  1.00  0.00     0.089 C 
HETATM    6  C   UNL     1      38.793 -12.581   2.785  1.00  0.00     0.063 C 
HETATM    7  C   UNL     1      38.726 -12.890   1.286  1.00  0.00     0.121 C 
HETATM    8  N   UNL     1      39.679 -11.977   0.538  1.00  0.00    -0.059 N 
HETATM    9  C   UNL     1      39.001 -14.354   0.929  1.00  0.00     0.046 C 
HETATM   10  C   UNL     1      37.315 -12.547   0.764  1.00  0.00     0.046 C 
HETATM   11  C   UNL     1      41.079 -11.735   1.061  1.00  0.00     0.121 C 
HETATM   12  H   UNL     1      39.217 -11.059   0.470  1.00  0.00     0.279 HD
HETATM   13  H   UNL     1      39.740 -12.300  -0.438  1.00  0.00     0.279 HD
HETATM   14  C   UNL     1      42.013 -12.865   0.611  1.00  0.00     0.046 C 
HETATM   15  C   UNL     1      41.568 -10.438   0.381  1.00  0.00     0.046 C 
HETATM   16  C   UNL     1      41.052 -11.521   2.585  1.00  0.00     0.063 C 
ENDBRANCH   1   5
BRANCH   2  17
HETATM   17  C   UNL     1      41.850 -15.660   4.611  1.00  0.00     0.146 A 
HETATM   18  N   UNL     1      42.919 -15.695   5.433  1.00  0.00    -0.169 NA
HETATM   19  N   UNL     1      43.549 -16.835   5.084  1.00  0.00    -0.277 N 
HETATM   20  H   UNL     1      44.417 -17.070   5.554  1.00  0.00     0.189 HD
HETATM   21  C   UNL     1      42.927 -17.548   4.090  1.00  0.00     0.063 A 
HETATM   22  C   UNL     1      41.821 -16.791   3.760  1.00  0.00     0.071 A 
BRANCH  21  23
HETATM   23  C   UNL     1      43.432 -18.814   3.557  1.00  0.00    -0.008 A 
HETATM   24  C   UNL     1      44.348 -19.597   4.274  1.00  0.00     0.014 A 
HETATM   25  C   UNL     1      44.821 -20.804   3.750  1.00  0.00     0.001 A 
HETATM   26  C   UNL     1      44.383 -21.245   2.505  1.00  0.00     0.000 A 
HETATM   27  C   UNL     1      43.470 -20.482   1.782  1.00  0.00     0.001 A 
HETATM   28  C   UNL     1      42.997 -19.276   2.306  1.00  0.00     0.014 A 
ENDBRANCH  21  23
ENDBRANCH   2  17
TORSDOF 3
ENDMDL
MODEL 10
REMARK VINA RESULT:      -7.3      2.089      3.536
REMARK  3 active torsions:
REMARK  status: ('A' for Active; 'I' for Inactive)
REMARK    1  A    between atoms: C_11  and  N_12 
REMARK       I    between atoms: N_12  and  C_13 
REMARK    2  A    between atoms: C_13  and  C_14 
REMARK    3  A    between atoms: C_18  and  C_19 
ROOT
HETATM    1  N   UNL     1      40.220 -14.465   0.133  1.00  0.00    -0.351 N 
HETATM    2  C   UNL     1      40.967 -15.578  -0.222  1.00  0.00     0.272 C 
HETATM    3  O   UNL     1      41.191 -15.901  -1.382  1.00  0.00    -0.266 OA
HETATM    4  H   UNL     1      39.963 -14.511   1.121  1.00  0.00     0.163 HD
ENDROOT
BRANCH   1   5
HETATM    5  C   UNL     1      39.412 -13.720  -0.808  1.00  0.00     0.089 C 
HETATM    6  C   UNL     1      40.105 -12.500  -1.430  1.00  0.00     0.063 C 
HETATM    7  C   UNL     1      40.312 -11.315  -0.480  1.00  0.00     0.121 C 
HETATM    8  N   UNL     1      39.008 -11.000   0.226  1.00  0.00    -0.059 N 
HETATM    9  C   UNL     1      41.436 -11.513   0.541  1.00  0.00     0.046 C 
HETATM   10  C   UNL     1      40.659 -10.060  -1.308  1.00  0.00     0.046 C 
HETATM   11  C   UNL     1      38.155 -12.113   0.797  1.00  0.00     0.121 C 
HETATM   12  H   UNL     1      38.423 -10.484  -0.447  1.00  0.00     0.279 HD
HETATM   13  H   UNL     1      39.199 -10.313   0.970  1.00  0.00     0.279 HD
HETATM   14  C   UNL     1      38.664 -12.507   2.188  1.00  0.00     0.046 C 
HETATM   15  C   UNL     1      36.743 -11.516   0.978  1.00  0.00     0.046 C 
HETATM   16  C   UNL     1      38.077 -13.289  -0.193  1.00  0.00     0.063 C 
ENDBRANCH   1   5
BRANCH   2  17
HETATM   17  C   UNL     1      41.465 -16.319   0.943  1.00  0.00     0.146 A 
HETATM   18  N   UNL     1      41.012 -16.054   2.187  1.00  0.00    -0.169 NA
HETATM   19  N   UNL     1      41.700 -16.916   2.963  1.00  0.00    -0.277 N 
HETATM   20  H   UNL     1      41.549 -16.888   3.966  1.00  0.00     0.189 HD
HETATM   21  C   UNL     1      42.558 -17.739   2.279  1.00  0.00     0.063 A 
HETATM   22  C   UNL     1      42.427 -17.356   0.959  1.00  0.00     0.071 A 
BRANCH  21  23
HETATM   23  C   UNL     1      43.401 -18.751   2.918  1.00  0.00    -0.008 A 
HETATM   24  C   UNL     1      43.778 -19.922   2.243  1.00  0.00     0.014 A 
HETATM   25  C   UNL     1      44.583 -20.879   2.868  1.00  0.00     0.001 A 
HETATM   26  C   UNL     1      45.023 -20.678   4.173  1.00  0.00     0.000 A 
HETATM   27  C   UNL     1      44.661 -19.520   4.855  1.00  0.00     0.001 A 
HETATM   28  C   UNL     1      43.857 -18.563   4.231  1.00  0.00     0.014 A 
ENDBRANCH  21  23
ENDBRANCH   2  17
TORSDOF 3
ENDMDL
