MODEL 1
REMARK VINA RESULT:      -9.1      0.000      0.000
REMARK  4 active torsions:
REMARK  status: ('A' for Active; 'I' for Inactive)
REMARK    1  A    between atoms: C_3  and  C_4 
REMARK    2  A    between atoms: C_5  and  C_6 
REMARK       I    between atoms: C_6  and  N_7 
REMARK    3  A    between atoms: N_7  and  C_8 
REMARK    4  A    between atoms: C_15  and  C_16 
REMARK       I    between atoms: C_16  and  N_17 
ROOT
HETATM    1  C   UNL     1      40.744 -14.427   2.362  1.00  0.00     0.035 A 
HETATM    2  C   UNL     1      40.652 -13.917   3.664  1.00  0.00     0.046 A 
HETATM    3  C   UNL     1      39.755 -12.862   3.941  1.00  0.00     0.030 A 
HETATM    4  C   UNL     1      38.979 -12.354   2.908  1.00  0.00     0.063 A 
HETATM    5  N   UNL     1      38.231 -11.358   3.472  1.00  0.00    -0.277 N 
HETATM    6  H   UNL     1      37.552 -10.764   3.010  1.00  0.00     0.189 HD
HETATM    7  N   UNL     1      38.447 -11.175   4.785  1.00  0.00    -0.168 NA
HETATM    8  C   UNL     1      39.387 -12.099   5.091  1.00  0.00     0.156 A 
HETATM    9  C   UNL     1      39.037 -12.840   1.601  1.00  0.00     0.034 A 
HETATM   10  C   UNL     1      39.933 -13.889   1.353  1.00  0.00     0.032 A 
ENDROOT
BRANCH   1  11
HETATM   11  N   UNL     1      41.623 -15.465   1.985  1.00  0.00    -0.327 N 
HETATM   12  C   UNL     1      41.335 -16.810   1.883  1.00  0.00     0.227 C 
HETATM   13  O   UNL     1      40.254 -17.344   2.075  1.00  0.00    -0.273 OA
HETATM   14  H   UNL     1      42.580 -15.191   1.816  1.00  0.00     0.169 HD
BRANCH  12  15
HETATM   15  C   UNL     1      42.481 -17.702   1.535  1.00  0.00     0.087 A 
HETATM   16  C   UNL     1      43.530 -18.033   2.593  1.00  0.00     0.034 A 
HETATM   17  C   UNL     1      43.907 -17.275   1.340  1.00  0.00     0.025 A 
BRANCH  16  18
HETATM   18  C   UNL     1      43.907 -19.487   2.805  1.00  0.00    -0.031 A 
HETATM   19  C   UNL     1      43.616 -20.430   1.797  1.00  0.00     0.009 A 
HETATM   20  C   UNL     1      43.916 -21.786   1.945  1.00  0.00     0.001 A 
HETATM   21  C   UNL     1      44.513 -22.241   3.116  1.00  0.00     0.002 A 
HETATM   22  C   UNL     1      44.800 -21.339   4.138  1.00  0.00     0.024 A 
HETATM   23  C   UNL     1      44.492 -19.981   3.987  1.00  0.00     0.040 A 
HETATM   24 CL   UNL     1      44.832 -18.935   5.322  1.00  0.00    -0.084 Cl
ENDBRANCH  16  18
ENDBRANCH  12  15
ENDBRANCH   1  11
BRANCH   8  25
HETATM   25  C   UNL     1      39.906 -12.231   6.459  1.00  0.00     0.270 C 
HETATM   26  N   UNL     1      39.387 -13.290   7.154  1.00  0.00    -0.365 N 
HETATM   27  H   UNL     1      38.712 -13.889   6.694  1.00  0.00     0.159 HD
HETATM   28  H   UNL     1      39.690 -13.462   8.099  1.00  0.00     0.159 HD
HETATM   29  O   UNL     1      40.731 -11.482   6.971  1.00  0.00    -0.266 OA
ENDBRANCH   8  25
TORSDOF 4
ENDMDL
MODEL 2
REMARK VINA RESULT:      -8.9      3.425      4.988
REMARK  4 active torsions:
REMARK  status: ('A' for Active; 'I' for Inactive)
REMARK    1  A    between atoms: C_3  and  C_4 
REMARK    2  A    between atoms: C_5  and  C_6 
REMARK       I    between atoms: C_6  and  N_7 
REMARK    3  A    between atoms: N_7  and  C_8 
REMARK    4  A    between atoms: C_15  and  C_16 
REMARK       I    between atoms: C_16  and  N_17 
ROOT
HETATM    1  C   UNL     1      40.975 -16.315   1.208  1.00  0.00     0.035 A 
HETATM    2  C   UNL     1      41.301 -15.846  -0.071  1.00  0.00     0.046 A 
HETATM    3  C   UNL     1      40.688 -14.673  -0.564  1.00  0.00     0.030 A 
HETATM    4  C   UNL     1      39.772 -14.008   0.240  1.00  0.00     0.063 A 
HETATM    5  N   UNL     1      39.353 -12.936  -0.498  1.00  0.00    -0.277 N 
HETATM    6  H   UNL     1      38.678 -12.230  -0.227  1.00  0.00     0.189 HD
HETATM    7  N   UNL     1      39.921 -12.839  -1.711  1.00  0.00    -0.168 NA
HETATM    8  C   UNL     1      40.751 -13.907  -1.767  1.00  0.00     0.156 A 
HETATM    9  C   UNL     1      39.427 -14.441   1.522  1.00  0.00     0.034 A 
HETATM   10  C   UNL     1      40.051 -15.606   1.988  1.00  0.00     0.032 A 
ENDROOT
BRANCH   1  11
HETATM   11  N   UNL     1      41.519 -17.487   1.778  1.00  0.00    -0.327 N 
HETATM   12  C   UNL     1      42.746 -18.056   1.510  1.00  0.00     0.227 C 
HETATM   13  O   UNL     1      43.600 -17.631   0.747  1.00  0.00    -0.273 OA
HETATM   14  H   UNL     1      40.919 -17.983   2.420  1.00  0.00     0.169 HD
BRANCH  12  15
HETATM   15  C   UNL     1      43.038 -19.346   2.204  1.00  0.00     0.087 A 
HETATM   16  C   UNL     1      44.327 -19.499   3.005  1.00  0.00     0.034 A 
HETATM   17  C   UNL     1      44.063 -20.361   1.791  1.00  0.00     0.025 A 
BRANCH  16  18
HETATM   18  C   UNL     1      44.239 -20.042   4.419  1.00  0.00    -0.031 A 
HETATM   19  C   UNL     1      44.564 -21.392   4.661  1.00  0.00     0.009 A 
HETATM   20  C   UNL     1      44.477 -21.956   5.936  1.00  0.00     0.001 A 
HETATM   21  C   UNL     1      44.054 -21.180   7.010  1.00  0.00     0.002 A 
HETATM   22  C   UNL     1      43.711 -19.846   6.803  1.00  0.00     0.024 A 
HETATM   23  C   UNL     1      43.794 -19.288   5.522  1.00  0.00     0.040 A 
HETATM   24 CL   UNL     1      43.300 -17.640   5.338  1.00  0.00    -0.084 Cl
ENDBRANCH  16  18
ENDBRANCH  12  15
ENDBRANCH   1  11
BRANCH   8  25
HETATM   25  C   UNL     1      41.576 -14.167  -2.954  1.00  0.00     0.270 C 
HETATM   26  N   UNL     1      42.794 -13.545  -2.936  1.00  0.00    -0.365 N 
HETATM   27  H   UNL     1      43.036 -12.975  -2.135  1.00  0.00     0.159 HD
HETATM   28  H   UNL     1      43.430 -13.671  -3.708  1.00  0.00     0.159 HD
HETATM   29  O   UNL     1      41.240 -14.874  -3.899  1.00  0.00    -0.266 OA
ENDBRANCH   8  25
TORSDOF 4
ENDMDL
MODEL 3
REMARK VINA RESULT:      -8.9      3.620      5.171
REMARK  4 active torsions:
REMARK  status: ('A' for Active; 'I' for Inactive)
REMARK    1  A    between atoms: C_3  and  C_4 
REMARK    2  A    between atoms: C_5  and  C_6 
REMARK       I    between atoms: C_6  and  N_7 
REMARK    3  A    between atoms: N_7  and  C_8 
REMARK    4  A    between atoms: C_15  and  C_16 
REMARK       I    between atoms: C_16  and  N_17 
ROOT
HETATM    1  C   UNL     1      41.117 -14.851  -0.450  1.00  0.00     0.035 A 
HETATM    2  C   UNL     1      40.255 -15.052  -1.536  1.00  0.00     0.046 A 
HETATM    3  C   UNL     1      39.266 -14.087  -1.832  1.00  0.00     0.030 A 
HETATM    4  C   UNL     1      39.176 -12.954  -1.034  1.00  0.00     0.063 A 
HETATM    5  N   UNL     1      38.142 -12.226  -1.554  1.00  0.00    -0.277 N 
HETATM    6  H   UNL     1      37.789 -11.337  -1.220  1.00  0.00     0.189 HD
HETATM    7  N   UNL     1      37.553 -12.782  -2.626  1.00  0.00    -0.168 NA
HETATM    8  C   UNL     1      38.238 -13.934  -2.811  1.00  0.00     0.156 A 
HETATM    9  C   UNL     1      40.022 -12.716   0.050  1.00  0.00     0.034 A 
HETATM   10  C   UNL     1      40.995 -13.687   0.322  1.00  0.00     0.032 A 
ENDROOT
BRANCH   1  11
HETATM   11  N   UNL     1      42.122 -15.766  -0.065  1.00  0.00    -0.327 N 
HETATM   12  C   UNL     1      41.955 -16.953   0.616  1.00  0.00     0.227 C 
HETATM   13  O   UNL     1      40.900 -17.444   0.987  1.00  0.00    -0.273 OA
HETATM   14  H   UNL     1      43.070 -15.492  -0.275  1.00  0.00     0.169 HD
BRANCH  12  15
HETATM   15  C   UNL     1      43.206 -17.692   0.963  1.00  0.00     0.087 A 
HETATM   16  C   UNL     1      43.471 -18.090   2.412  1.00  0.00     0.034 A 
HETATM   17  C   UNL     1      44.391 -17.130   1.693  1.00  0.00     0.025 A 
BRANCH  16  18
HETATM   18  C   UNL     1      43.866 -19.525   2.705  1.00  0.00    -0.031 A 
HETATM   19  C   UNL     1      43.572 -20.529   1.759  1.00  0.00     0.009 A 
HETATM   20  C   UNL     1      43.887 -21.871   1.984  1.00  0.00     0.001 A 
HETATM   21  C   UNL     1      44.504 -22.250   3.171  1.00  0.00     0.002 A 
HETATM   22  C   UNL     1      44.795 -21.286   4.133  1.00  0.00     0.024 A 
HETATM   23  C   UNL     1      44.472 -19.942   3.906  1.00  0.00     0.040 A 
HETATM   24 CL   UNL     1      44.818 -18.815   5.173  1.00  0.00    -0.084 Cl
ENDBRANCH  16  18
ENDBRANCH  12  15
ENDBRANCH   1  11
BRANCH   8  25
HETATM   25  C   UNL     1      37.899 -14.852  -3.907  1.00  0.00     0.270 C 
HETATM   26  N   UNL     1      36.837 -14.446  -4.668  1.00  0.00    -0.365 N 
HETATM   27  H   UNL     1      36.379 -13.573  -4.436  1.00  0.00     0.159 HD
HETATM   28  H   UNL     1      36.537 -15.011  -5.446  1.00  0.00     0.159 HD
HETATM   29  O   UNL     1      38.491 -15.898  -4.153  1.00  0.00    -0.266 OA
ENDBRANCH   8  25
TORSDOF 4
ENDMDL
MODEL 4
REMARK VINA RESULT:      -8.7      3.325      4.207
REMARK  4 active torsions:
REMARK  status: ('A' for Active; 'I' for Inactive)
REMARK    1  A    between atoms: C_3  and  C_4 
REMARK    2  A    between atoms: C_5  and  C_6 
REMARK       I    between atoms: C_6  and  N_7 
REMARK    3  A    between atoms: N_7  and  C_8 
REMARK    4  A    between atoms: C_15  and  C_16 
REMARK       I    between atoms: C_16  and  N_17 
ROOT
HETATM    1  C   UNL     1      41.009 -15.328  -1.204  1.00  0.00     0.035 A 
HETATM    2  C   UNL     1      40.121 -14.423  -0.606  1.00  0.00     0.046 A 
HETATM    3  C   UNL     1      39.170 -13.747  -1.402  1.00  0.00     0.030 A 
HETATM    4  C   UNL     1      39.137 -14.000  -2.767  1.00  0.00     0.063 A 
HETATM    5  N   UNL     1      38.137 -13.208  -3.259  1.00  0.00    -0.277 N 
HETATM    6  H   UNL     1      37.834 -13.131  -4.223  1.00  0.00     0.189 HD
HETATM    7  N   UNL     1      37.510 -12.464  -2.334  1.00  0.00    -0.168 NA
HETATM    8  C   UNL     1      38.137 -12.787  -1.179  1.00  0.00     0.156 A 
HETATM    9  C   UNL     1      40.000 -14.900  -3.396  1.00  0.00     0.034 A 
HETATM   10  C   UNL     1      40.933 -15.559  -2.585  1.00  0.00     0.032 A 
ENDROOT
BRANCH   1  11
HETATM   11  N   UNL     1      42.005 -16.035  -0.496  1.00  0.00    -0.327 N 
HETATM   12  C   UNL     1      41.819 -16.971   0.500  1.00  0.00     0.227 C 
HETATM   13  O   UNL     1      40.752 -17.380   0.931  1.00  0.00    -0.273 OA
HETATM   14  H   UNL     1      42.959 -15.790  -0.716  1.00  0.00     0.169 HD
BRANCH  12  15
HETATM   15  C   UNL     1      43.059 -17.510   1.135  1.00  0.00     0.087 A 
HETATM   16  C   UNL     1      42.995 -18.092   2.543  1.00  0.00     0.034 A 
HETATM   17  C   UNL     1      43.832 -16.868   2.249  1.00  0.00     0.025 A 
BRANCH  16  18
HETATM   18  C   UNL     1      43.613 -19.456   2.789  1.00  0.00    -0.031 A 
HETATM   19  C   UNL     1      43.395 -20.490   1.855  1.00  0.00     0.009 A 
HETATM   20  C   UNL     1      43.915 -21.773   2.040  1.00  0.00     0.001 A 
HETATM   21  C   UNL     1      44.667 -22.061   3.173  1.00  0.00     0.002 A 
HETATM   22  C   UNL     1      44.888 -21.067   4.123  1.00  0.00     0.024 A 
HETATM   23  C   UNL     1      44.359 -19.784   3.937  1.00  0.00     0.040 A 
HETATM   24 CL   UNL     1      44.634 -18.620   5.188  1.00  0.00    -0.084 Cl
ENDBRANCH  16  18
ENDBRANCH  12  15
ENDBRANCH   1  11
BRANCH   8  25
HETATM   25  C   UNL     1      37.739 -12.178   0.098  1.00  0.00     0.270 C 
HETATM   26  N   UNL     1      37.037 -13.016   0.922  1.00  0.00    -0.365 N 
HETATM   27  H   UNL     1      36.852 -13.961   0.609  1.00  0.00     0.159 HD
HETATM   28  H   UNL     1      36.728 -12.685   1.822  1.00  0.00     0.159 HD
HETATM   29  O   UNL     1      37.994 -11.027   0.435  1.00  0.00    -0.266 OA
ENDBRANCH   8  25
TORSDOF 4
ENDMDL
MODEL 5
REMARK VINA RESULT:      -8.6      3.307      5.276
REMARK  4 active torsions:
REMARK  status: ('A' for Active; 'I' for Inactive)
REMARK    1  A    between atoms: C_3  and  C_4 
REMARK    2  A    between atoms: C_5  and  C_6 
REMARK       I    between atoms: C_6  and  N_7 
REMARK    3  A    between atoms: N_7  and  C_8 
REMARK    4  A    between atoms: C_15  and  C_16 
REMARK       I    between atoms: C_16  and  N_17 
ROOT
HETATM    1  C   UNL     1      40.042 -15.108   1.310  1.00  0.00     0.035 A 
HETATM    2  C   UNL     1      40.598 -14.956   0.033  1.00  0.00     0.046 A 
HETATM    3  C   UNL     1      39.850 -14.322  -0.984  1.00  0.00     0.030 A 
HETATM    4  C   UNL     1      38.574 -13.860  -0.689  1.00  0.00     0.063 A 
HETATM    5  N   UNL     1      38.109 -13.312  -1.851  1.00  0.00    -0.277 N 
HETATM    6  H   UNL     1      37.205 -12.880  -2.008  1.00  0.00     0.189 HD
HETATM    7  N   UNL     1      38.971 -13.370  -2.879  1.00  0.00    -0.168 NA
HETATM    8  C   UNL     1      40.055 -13.992  -2.358  1.00  0.00     0.156 A 
HETATM    9  C   UNL     1      37.991 -13.987   0.574  1.00  0.00     0.034 A 
HETATM   10  C   UNL     1      38.754 -14.617   1.565  1.00  0.00     0.032 A 
ENDROOT
BRANCH   1  11
HETATM   11  N   UNL     1      40.703 -15.744   2.384  1.00  0.00    -0.327 N 
HETATM   12  C   UNL     1      41.340 -15.143   3.449  1.00  0.00     0.227 C 
HETATM   13  O   UNL     1      41.422 -13.944   3.672  1.00  0.00    -0.273 OA
HETATM   14  H   UNL     1      40.751 -16.751   2.336  1.00  0.00     0.169 HD
BRANCH  12  15
HETATM   15  C   UNL     1      42.027 -16.060   4.407  1.00  0.00     0.087 A 
HETATM   16  C   UNL     1      41.676 -17.545   4.415  1.00  0.00     0.034 A 
HETATM   17  C   UNL     1      41.417 -16.682   5.629  1.00  0.00     0.025 A 
BRANCH  16  18
HETATM   18  C   UNL     1      42.807 -18.554   4.365  1.00  0.00    -0.031 A 
HETATM   19  C   UNL     1      43.361 -19.031   5.571  1.00  0.00     0.009 A 
HETATM   20  C   UNL     1      44.421 -19.940   5.589  1.00  0.00     0.001 A 
HETATM   21  C   UNL     1      44.964 -20.397   4.393  1.00  0.00     0.002 A 
HETATM   22  C   UNL     1      44.451 -19.935   3.183  1.00  0.00     0.024 A 
HETATM   23  C   UNL     1      43.392 -19.018   3.170  1.00  0.00     0.040 A 
HETATM   24 CL   UNL     1      42.847 -18.453   1.629  1.00  0.00    -0.084 Cl
ENDBRANCH  16  18
ENDBRANCH  12  15
ENDBRANCH   1  11
BRANCH   8  25
HETATM   25  C   UNL     1      41.248 -14.252  -3.175  1.00  0.00     0.270 C 
HETATM   26  N   UNL     1      41.957 -13.129  -3.504  1.00  0.00    -0.365 N 
HETATM   27  H   UNL     1      41.626 -12.232  -3.170  1.00  0.00     0.159 HD
HETATM   28  H   UNL     1      42.794 -13.213  -4.058  1.00  0.00     0.159 HD
HETATM   29  O   UNL     1      41.611 -15.363  -3.549  1.00  0.00    -0.266 OA
ENDBRANCH   8  25
TORSDOF 4
ENDMDL
MODEL 6
REMARK VINA RESULT:      -8.6      1.790      2.687
REMARK  4 active torsions:
REMARK  status: ('A' for Active; 'I' for Inactive)
REMARK    1  A    between atoms: C_3  and  C_4 
REMARK    2  A    between atoms: C_5  and  C_6 
REMARK       I    between atoms: C_6  and  N_7 
REMARK    3  A    between atoms: N_7  and  C_8 
REMARK    4  A    between atoms: C_15  and  C_16 
REMARK       I    between atoms: C_16  and  N_17 
ROOT
HETATM    1  C   UNL     1      40.617 -15.105   4.119  1.00  0.00     0.035 A 
HETATM    2  C   UNL     1      39.996 -14.118   3.343  1.00  0.00     0.046 A 
HETATM    3  C   UNL     1      39.478 -12.961   3.966  1.00  0.00     0.030 A 
HETATM    4  C   UNL     1      39.600 -12.830   5.343  1.00  0.00     0.063 A 
HETATM    5  N   UNL     1      39.010 -11.635   5.647  1.00  0.00    -0.277 N 
HETATM    6  H   UNL     1      38.911 -11.215   6.564  1.00  0.00     0.189 HD
HETATM    7  N   UNL     1      38.518 -10.971   4.588  1.00  0.00    -0.168 NA
HETATM    8  C   UNL     1      38.801 -11.779   3.539  1.00  0.00     0.156 A 
HETATM    9  C   UNL     1      40.219 -13.788   6.148  1.00  0.00     0.034 A 
HETATM   10  C   UNL     1      40.727 -14.925   5.505  1.00  0.00     0.032 A 
ENDROOT
BRANCH   1  11
HETATM   11  N   UNL     1      41.147 -16.303   3.591  1.00  0.00    -0.327 N 
HETATM   12  C   UNL     1      42.439 -16.529   3.163  1.00  0.00     0.227 C 
HETATM   13  O   UNL     1      43.369 -15.738   3.190  1.00  0.00    -0.273 OA
HETATM   14  H   UNL     1      40.490 -17.060   3.474  1.00  0.00     0.169 HD
BRANCH  12  15
HETATM   15  C   UNL     1      42.708 -17.875   2.574  1.00  0.00     0.087 A 
HETATM   16  C   UNL     1      44.128 -18.433   2.581  1.00  0.00     0.034 A 
HETATM   17  C   UNL     1      43.416 -18.148   1.279  1.00  0.00     0.025 A 
BRANCH  16  18
HETATM   18  C   UNL     1      44.347 -19.844   3.094  1.00  0.00    -0.031 A 
HETATM   19  C   UNL     1      44.132 -20.934   2.226  1.00  0.00     0.009 A 
HETATM   20  C   UNL     1      44.292 -22.256   2.647  1.00  0.00     0.001 A 
HETATM   21  C   UNL     1      44.666 -22.527   3.958  1.00  0.00     0.002 A 
HETATM   22  C   UNL     1      44.871 -21.473   4.846  1.00  0.00     0.024 A 
HETATM   23  C   UNL     1      44.704 -20.150   4.421  1.00  0.00     0.040 A 
HETATM   24 CL   UNL     1      44.925 -18.901   5.599  1.00  0.00    -0.084 Cl
ENDBRANCH  16  18
ENDBRANCH  12  15
ENDBRANCH   1  11
BRANCH   8  25
HETATM   25  C   UNL     1      38.422 -11.406   2.169  1.00  0.00     0.270 C 
HETATM   26  N   UNL     1      37.099 -11.090   2.021  1.00  0.00    -0.365 N 
HETATM   27  H   UNL     1      36.497 -11.127   2.835  1.00  0.00     0.159 HD
HETATM   28  H   UNL     1      36.750 -10.816   1.117  1.00  0.00     0.159 HD
HETATM   29  O   UNL     1      39.192 -11.369   1.215  1.00  0.00    -0.266 OA
ENDBRANCH   8  25
TORSDOF 4
ENDMDL
MODEL 7
REMARK VINA RESULT:      -8.5      3.155      4.837
REMARK  4 active torsions:
REMARK  status: ('A' for Active; 'I' for Inactive)
REMARK    1  A    between atoms: C_3  and  C_4 
REMARK    2  A    between atoms: C_5  and  C_6 
REMARK       I    between atoms: C_6  and  N_7 
REMARK    3  A    between atoms: N_7  and  C_8 
REMARK    4  A    between atoms: C_15  and  C_16 
REMARK       I    between atoms: C_16  and  N_17 
ROOT
HETATM    1  C   UNL     1      41.415 -16.014   1.548  1.00  0.00     0.035 A 
HETATM    2  C   UNL     1      41.608 -15.637   0.213  1.00  0.00     0.046 A 
HETATM    3  C   UNL     1      40.652 -14.818  -0.428  1.00  0.00     0.030 A 
HETATM    4  C   UNL     1      39.536 -14.404   0.289  1.00  0.00     0.063 A 
HETATM    5  N   UNL     1      38.806 -13.646  -0.584  1.00  0.00    -0.277 N 
HETATM    6  H   UNL     1      37.923 -13.183  -0.404  1.00  0.00     0.189 HD
HETATM    7  N   UNL     1      39.349 -13.524  -1.806  1.00  0.00    -0.168 NA
HETATM    8  C   UNL     1      40.493 -14.243  -1.725  1.00  0.00     0.156 A 
HETATM    9  C   UNL     1      39.314 -14.754   1.622  1.00  0.00     0.034 A 
HETATM   10  C   UNL     1      40.278 -15.564   2.235  1.00  0.00     0.032 A 
ENDROOT
BRANCH   1  11
HETATM   11  N   UNL     1      42.303 -16.844   2.266  1.00  0.00    -0.327 N 
HETATM   12  C   UNL     1      43.029 -16.517   3.393  1.00  0.00     0.227 C 
HETATM   13  O   UNL     1      43.012 -15.453   3.991  1.00  0.00    -0.273 OA
HETATM   14  H   UNL     1      42.454 -17.765   1.880  1.00  0.00     0.169 HD
BRANCH  12  15
HETATM   15  C   UNL     1      43.955 -17.570   3.905  1.00  0.00     0.087 A 
HETATM   16  C   UNL     1      43.386 -18.837   4.536  1.00  0.00     0.034 A 
HETATM   17  C   UNL     1      44.230 -17.881   5.347  1.00  0.00     0.025 A 
BRANCH  16  18
HETATM   18  C   UNL     1      43.910 -20.179   4.062  1.00  0.00    -0.031 A 
HETATM   19  C   UNL     1      44.040 -20.419   2.678  1.00  0.00     0.009 A 
HETATM   20  C   UNL     1      44.492 -21.642   2.180  1.00  0.00     0.001 A 
HETATM   21  C   UNL     1      44.823 -22.670   3.057  1.00  0.00     0.002 A 
HETATM   22  C   UNL     1      44.691 -22.472   4.429  1.00  0.00     0.024 A 
HETATM   23  C   UNL     1      44.232 -21.245   4.924  1.00  0.00     0.040 A 
HETATM   24 CL   UNL     1      44.046 -21.097   6.638  1.00  0.00    -0.084 Cl
ENDBRANCH  16  18
ENDBRANCH  12  15
ENDBRANCH   1  11
BRANCH   8  25
HETATM   25  C   UNL     1      41.399 -14.363  -2.876  1.00  0.00     0.270 C 
HETATM   26  N   UNL     1      42.541 -13.617  -2.769  1.00  0.00    -0.365 N 
HETATM   27  H   UNL     1      42.681 -13.061  -1.934  1.00  0.00     0.159 HD
HETATM   28  H   UNL     1      43.224 -13.642  -3.509  1.00  0.00     0.159 HD
HETATM   29  O   UNL     1      41.188 -15.059  -3.864  1.00  0.00    -0.266 OA
ENDBRANCH   8  25
TORSDOF 4
ENDMDL
MODEL 8
REMARK VINA RESULT:      -8.5      4.669      5.794
REMARK  4 active torsions:
REMARK  status: ('A' for Active; 'I' for Inactive)
REMARK    1  A    between atoms: C_3  and  C_4 
REMARK    2  A    between atoms: C_5  and  C_6 
REMARK       I    between atoms: C_6  and  N_7 
REMARK    3  A    between atoms: N_7  and  C_8 
REMARK    4  A    between atoms: C_15  and  C_16 
REMARK       I    between atoms: C_16  and  N_17 
ROOT
HETATM    1  C   UNL     1      44.593 -14.035   7.092  1.00  0.00     0.035 A 
HETATM    2  C   UNL     1      43.950 -13.411   8.169  1.00  0.00     0.046 A 
HETATM    3  C   UNL     1      44.619 -12.399   8.893  1.00  0.00     0.030 A 
HETATM    4  C   UNL     1      45.907 -12.044   8.512  1.00  0.00     0.063 A 
HETATM    5  N   UNL     1      46.286 -11.064   9.387  1.00  0.00    -0.277 N 
HETATM    6  H   UNL     1      47.171 -10.572   9.411  1.00  0.00     0.189 HD
HETATM    7  N   UNL     1      45.356 -10.743  10.301  1.00  0.00    -0.168 NA
HETATM    8  C   UNL     1      44.317 -11.560  10.008  1.00  0.00     0.156 A 
HETATM    9  C   UNL     1      46.576 -12.638   7.441  1.00  0.00     0.034 A 
HETATM   10  C   UNL     1      45.890 -13.637   6.738  1.00  0.00     0.032 A 
ENDROOT
BRANCH   1  11
HETATM   11  N   UNL     1      44.014 -15.068   6.323  1.00  0.00    -0.327 N 
HETATM   12  C   UNL     1      43.687 -16.341   6.742  1.00  0.00     0.227 C 
HETATM   13  O   UNL     1      43.816 -16.797   7.868  1.00  0.00    -0.273 OA
HETATM   14  H   UNL     1      43.866 -14.860   5.347  1.00  0.00     0.169 HD
BRANCH  12  15
HETATM   15  C   UNL     1      43.154 -17.261   5.693  1.00  0.00     0.087 A 
HETATM   16  C   UNL     1      44.008 -17.590   4.472  1.00  0.00     0.034 A 
HETATM   17  C   UNL     1      42.690 -16.865   4.322  1.00  0.00     0.025 A 
BRANCH  16  18
HETATM   18  C   UNL     1      44.180 -19.047   4.083  1.00  0.00    -0.031 A 
HETATM   19  C   UNL     1      44.578 -19.980   5.062  1.00  0.00     0.009 A 
HETATM   20  C   UNL     1      44.778 -21.329   4.760  1.00  0.00     0.001 A 
HETATM   21  C   UNL     1      44.591 -21.783   3.459  1.00  0.00     0.002 A 
HETATM   22  C   UNL     1      44.214 -20.884   2.464  1.00  0.00     0.024 A 
HETATM   23  C   UNL     1      44.020 -19.532   2.771  1.00  0.00     0.040 A 
HETATM   24 CL   UNL     1      43.604 -18.471   1.469  1.00  0.00    -0.084 Cl
ENDBRANCH  16  18
ENDBRANCH  12  15
ENDBRANCH   1  11
BRANCH   8  25
HETATM   25  C   UNL     1      43.075 -11.521  10.791  1.00  0.00     0.270 C 
HETATM   26  N   UNL     1      43.161 -12.139  12.009  1.00  0.00    -0.365 N 
HETATM   27  H   UNL     1      44.043 -12.558  12.278  1.00  0.00     0.159 HD
HETATM   28  H   UNL     1      42.359 -12.156  12.617  1.00  0.00     0.159 HD
HETATM   29  O   UNL     1      42.031 -10.992  10.422  1.00  0.00    -0.266 OA
ENDBRANCH   8  25
TORSDOF 4
ENDMDL
MODEL 9
REMARK VINA RESULT:      -8.5      4.801      9.059
REMARK  4 active torsions:
REMARK  status: ('A' for Active; 'I' for Inactive)
REMARK    1  A    between atoms: C_3  and  C_4 
REMARK    2  A    between atoms: C_5  and  C_6 
REMARK       I    between atoms: C_6  and  N_7 
REMARK    3  A    between atoms: N_7  and  C_8 
REMARK    4  A    between atoms: C_15  and  C_16 
REMARK       I    between atoms: C_16  and  N_17 
ROOT
HETATM    1  C   UNL     1      43.785 -15.714   6.563  1.00  0.00     0.035 A 
HETATM    2  C   UNL     1      42.940 -15.496   5.467  1.00  0.00     0.046 A 
HETATM    3  C   UNL     1      42.788 -16.504   4.489  1.00  0.00     0.030 A 
HETATM    4  C   UNL     1      43.485 -17.696   4.642  1.00  0.00     0.063 A 
HETATM    5  N   UNL     1      43.146 -18.455   3.557  1.00  0.00    -0.277 N 
HETATM    6  H   UNL     1      43.472 -19.389   3.336  1.00  0.00     0.189 HD
HETATM    7  N   UNL     1      42.285 -17.866   2.712  1.00  0.00    -0.168 NA
HETATM    8  C   UNL     1      42.053 -16.658   3.275  1.00  0.00     0.156 A 
HETATM    9  C   UNL     1      44.329 -17.952   5.724  1.00  0.00     0.034 A 
HETATM   10  C   UNL     1      44.461 -16.936   6.681  1.00  0.00     0.032 A 
ENDROOT
BRANCH   1  11
HETATM   11  N   UNL     1      44.015 -14.760   7.579  1.00  0.00    -0.327 N 
HETATM   12  C   UNL     1      44.917 -13.717   7.559  1.00  0.00     0.227 C 
HETATM   13  O   UNL     1      45.663 -13.411   6.641  1.00  0.00    -0.273 OA
HETATM   14  H   UNL     1      43.490 -14.890   8.431  1.00  0.00     0.169 HD
BRANCH  12  15
HETATM   15  C   UNL     1      45.007 -12.903   8.808  1.00  0.00     0.087 A 
HETATM   16  C   UNL     1      44.299 -11.554   8.884  1.00  0.00     0.034 A 
HETATM   17  C   UNL     1      45.804 -11.644   8.988  1.00  0.00     0.025 A 
BRANCH  16  18
HETATM   18  C   UNL     1      43.420 -11.267  10.086  1.00  0.00    -0.031 A 
HETATM   19  C   UNL     1      43.934 -11.473  11.383  1.00  0.00     0.009 A 
HETATM   20  C   UNL     1      43.165 -11.251  12.527  1.00  0.00     0.001 A 
HETATM   21  C   UNL     1      41.848 -10.820  12.406  1.00  0.00     0.002 A 
HETATM   22  C   UNL     1      41.304 -10.622  11.139  1.00  0.00     0.024 A 
HETATM   23  C   UNL     1      42.077 -10.851   9.994  1.00  0.00     0.040 A 
HETATM   24 CL   UNL     1      41.311 -10.633   8.459  1.00  0.00    -0.084 Cl
ENDBRANCH  16  18
ENDBRANCH  12  15
ENDBRANCH   1  11
BRANCH   8  25
HETATM   25  C   UNL     1      41.144 -15.689   2.648  1.00  0.00     0.270 C 
HETATM   26  N   UNL     1      39.934 -15.568   3.278  1.00  0.00    -0.365 N 
HETATM   27  H   UNL     1      39.759 -16.129   4.102  1.00  0.00     0.159 HD
HETATM   28  H   UNL     1      39.249 -14.922   2.921  1.00  0.00     0.159 HD
HETATM   29  O   UNL     1      41.406 -15.026   1.650  1.00  0.00    -0.266 OA
ENDBRANCH   8  25
TORSDOF 4
ENDMDL
MODEL 10
REMARK VINA RESULT:      -8.1      4.114      8.129
REMARK  4 active torsions:
REMARK  status: ('A' for Active; 'I' for Inactive)
REMARK    1  A    between atoms: C_3  and  C_4 
REMARK    2  A    between atoms: C_5  and  C_6 
REMARK       I    between atoms: C_6  and  N_7 
REMARK    3  A    between atoms: N_7  and  C_8 
REMARK    4  A    between atoms: C_15  and  C_16 
REMARK       I    between atoms: C_16  and  N_17 
ROOT
HETATM    1  C   UNL     1      43.022 -17.738   2.644  1.00  0.00     0.035 A 
HETATM    2  C   UNL     1      43.245 -17.967   4.008  1.00  0.00     0.046 A 
HETATM    3  C   UNL     1      43.838 -19.179   4.426  1.00  0.00     0.030 A 
HETATM    4  C   UNL     1      44.188 -20.119   3.466  1.00  0.00     0.063 A 
HETATM    5  N   UNL     1      44.721 -21.168   4.163  1.00  0.00    -0.277 N 
HETATM    6  H   UNL     1      45.081 -22.036   3.785  1.00  0.00     0.189 HD
HETATM    7  N   UNL     1      44.755 -20.992   5.494  1.00  0.00    -0.168 NA
HETATM    8  C   UNL     1      44.212 -19.765   5.673  1.00  0.00     0.156 A 
HETATM    9  C   UNL     1      43.988 -19.923   2.098  1.00  0.00     0.034 A 
HETATM   10  C   UNL     1      43.401 -18.712   1.710  1.00  0.00     0.032 A 
ENDROOT
BRANCH   1  11
HETATM   11  N   UNL     1      42.419 -16.567   2.132  1.00  0.00    -0.327 N 
HETATM   12  C   UNL     1      41.111 -16.409   1.725  1.00  0.00     0.227 C 
HETATM   13  O   UNL     1      40.226 -17.250   1.759  1.00  0.00    -0.273 OA
HETATM   14  H   UNL     1      43.032 -15.774   2.011  1.00  0.00     0.169 HD
BRANCH  12  15
HETATM   15  C   UNL     1      40.759 -15.077   1.149  1.00  0.00     0.087 A 
HETATM   16  C   UNL     1      41.131 -14.755  -0.295  1.00  0.00     0.034 A 
HETATM   17  C   UNL     1      41.718 -13.961   0.850  1.00  0.00     0.025 A 
BRANCH  16  18
HETATM   18  C   UNL     1      40.060 -14.189  -1.208  1.00  0.00    -0.031 A 
HETATM   19  C   UNL     1      39.276 -13.105  -0.762  1.00  0.00     0.009 A 
HETATM   20  C   UNL     1      38.257 -12.558  -1.546  1.00  0.00     0.001 A 
HETATM   21  C   UNL     1      37.988 -13.088  -2.803  1.00  0.00     0.002 A 
HETATM   22  C   UNL     1      38.733 -14.170  -3.267  1.00  0.00     0.024 A 
HETATM   23  C   UNL     1      39.750 -14.718  -2.475  1.00  0.00     0.040 A 
HETATM   24 CL   UNL     1      40.593 -16.093  -3.102  1.00  0.00    -0.084 Cl
ENDBRANCH  16  18
ENDBRANCH  12  15
ENDBRANCH   1  11
BRANCH   8  25
HETATM   25  C   UNL     1      44.066 -19.186   7.016  1.00  0.00     0.270 C 
HETATM   26  N   UNL     1      43.596 -20.064   7.954  1.00  0.00    -0.365 N 
HETATM   27  H   UNL     1      43.394 -21.015   7.671  1.00  0.00     0.159 HD
HETATM   28  H   UNL     1      43.471 -19.756   8.905  1.00  0.00     0.159 HD
HETATM   29  O   UNL     1      44.332 -18.026   7.311  1.00  0.00    -0.266 OA
ENDBRANCH   8  25
TORSDOF 4
ENDMDL
