MODEL 1
REMARK VINA RESULT:      -8.2      0.000      0.000
REMARK  6 active torsions:
REMARK  status: ('A' for Active; 'I' for Inactive)
REMARK    1  A    between atoms: C_6  and  O_7 
REMARK    2  A    between atoms: C_8  and  C_9 
REMARK    3  A    between atoms: C_9  and  N_10 
REMARK    4  A    between atoms: N_10  and  C_12 
REMARK    5  A    between atoms: C_12  and  C_13 
REMARK    6  A    between atoms: C_12  and  C_16 
REMARK       I    between atoms: C_13  and  N_14 
ROOT
HETATM    1  N   UNL     1      43.535 -16.408   5.943  1.00  0.00    -0.054 N 
HETATM    2  H   UNL     1      44.150 -16.813   5.221  1.00  0.00     0.281 HD
HETATM    3  C   UNL     1      44.313 -15.341   6.656  1.00  0.00     0.271 C 
ENDROOT
BRANCH   1   4
HETATM    4  C   UNL     1      43.246 -17.592   6.843  1.00  0.00     0.277 C 
BRANCH   4   5
HETATM    5  C   UNL     1      43.706 -18.896   6.241  1.00  0.00     0.001 A 
HETATM    6  C   UNL     1      43.856 -20.040   7.029  1.00  0.00     0.074 A 
HETATM    7  C   UNL     1      44.257 -21.252   6.474  1.00  0.00     0.044 A 
HETATM    8  C   UNL     1      44.509 -21.348   5.096  1.00  0.00    -0.053 A 
HETATM    9  C   UNL     1      44.379 -20.202   4.286  1.00  0.00    -0.055 A 
HETATM   10  C   UNL     1      44.924 -22.674   4.514  1.00  0.00     0.049 C 
HETATM   11  C   UNL     1      44.616 -20.259   2.800  1.00  0.00     0.049 C 
HETATM   12  C   UNL     1      43.978 -18.987   4.868  1.00  0.00     0.019 A 
BRANCH   6  13
HETATM   13  O   UNL     1      43.548 -19.952   8.360  1.00  0.00    -0.360 OA
HETATM   14  H   UNL     1      44.392 -19.944   8.857  1.00  0.00     0.217 HD
ENDBRANCH   6  13
ENDBRANCH   4   5
ENDBRANCH   1   4
BRANCH   1  15
HETATM   15  C   UNL     1      42.315 -15.842   5.205  1.00  0.00     0.312 C 
BRANCH  15  16
HETATM   16  C   UNL     1      40.982 -15.943   6.000  1.00  0.00     0.251 C 
HETATM   17  N   UNL     1      40.390 -14.767   6.369  1.00  0.00    -0.368 N 
HETATM   18  H   UNL     1      40.626 -13.864   5.973  1.00  0.00     0.159 HD
HETATM   19  H   UNL     1      39.499 -14.827   6.854  1.00  0.00     0.159 HD
HETATM   20  O   UNL     1      40.483 -17.013   6.338  1.00  0.00    -0.271 OA
ENDBRANCH  15  16
BRANCH  15  21
HETATM   21  C   UNL     1      42.219 -16.348   3.773  1.00  0.00    -0.016 A 
HETATM   22  C   UNL     1      43.397 -16.502   3.020  1.00  0.00     0.052 A 
HETATM   23  C   UNL     1      43.338 -16.963   1.708  1.00  0.00     0.117 A 
HETATM   24  F   UNL     1      44.474 -17.095   1.012  1.00  0.00    -0.206 F 
HETATM   25  C   UNL     1      42.127 -17.284   1.116  1.00  0.00     0.042 A 
HETATM   26  C   UNL     1      40.951 -17.150   1.850  1.00  0.00     0.004 A 
HETATM   27  C   UNL     1      40.994 -16.692   3.171  1.00  0.00     0.010 A 
ENDBRANCH  15  21
ENDBRANCH   1  15
TORSDOF 6
ENDMDL
MODEL 2
REMARK VINA RESULT:      -8.0      2.863      4.445
REMARK  6 active torsions:
REMARK  status: ('A' for Active; 'I' for Inactive)
REMARK    1  A    between atoms: C_6  and  O_7 
REMARK    2  A    between atoms: C_8  and  C_9 
REMARK    3  A    between atoms: C_9  and  N_10 
REMARK    4  A    between atoms: N_10  and  C_12 
REMARK    5  A    between atoms: C_12  and  C_13 
REMARK    6  A    between atoms: C_12  and  C_16 
REMARK       I    between atoms: C_13  and  N_14 
ROOT
HETATM    1  N   UNL     1      40.763 -15.877   3.694  1.00  0.00    -0.054 N 
HETATM    2  H   UNL     1      40.511 -16.876   3.723  1.00  0.00     0.281 HD
HETATM    3  C   UNL     1      39.812 -15.197   2.751  1.00  0.00     0.271 C 
ENDROOT
BRANCH   1   4
HETATM    4  C   UNL     1      42.177 -15.900   3.151  1.00  0.00     0.277 C 
BRANCH   4   5
HETATM    5  C   UNL     1      42.687 -17.303   2.938  1.00  0.00     0.001 A 
HETATM    6  C   UNL     1      42.345 -18.028   1.794  1.00  0.00     0.074 A 
HETATM    7  C   UNL     1      42.832 -19.315   1.581  1.00  0.00     0.044 A 
HETATM    8  C   UNL     1      43.693 -19.907   2.519  1.00  0.00    -0.053 A 
HETATM    9  C   UNL     1      44.037 -19.199   3.688  1.00  0.00    -0.055 A 
HETATM   10  C   UNL     1      44.224 -21.293   2.259  1.00  0.00     0.049 C 
HETATM   11  C   UNL     1      44.975 -19.782   4.712  1.00  0.00     0.049 C 
HETATM   12  C   UNL     1      43.530 -17.903   3.884  1.00  0.00     0.019 A 
BRANCH   6  13
HETATM   13  O   UNL     1      41.555 -17.419   0.856  1.00  0.00    -0.360 OA
HETATM   14  H   UNL     1      40.625 -17.519   1.144  1.00  0.00     0.217 HD
ENDBRANCH   6  13
ENDBRANCH   4   5
ENDBRANCH   1   4
BRANCH   1  15
HETATM   15  C   UNL     1      40.629 -15.355   5.130  1.00  0.00     0.312 C 
BRANCH  15  16
HETATM   16  C   UNL     1      40.367 -13.826   5.234  1.00  0.00     0.251 C 
HETATM   17  N   UNL     1      39.329 -13.426   6.030  1.00  0.00    -0.368 N 
HETATM   18  H   UNL     1      38.880 -14.021   6.718  1.00  0.00     0.159 HD
HETATM   19  H   UNL     1      39.178 -12.427   6.132  1.00  0.00     0.159 HD
HETATM   20  O   UNL     1      41.013 -12.991   4.606  1.00  0.00    -0.271 OA
ENDBRANCH  15  16
BRANCH  15  21
HETATM   21  C   UNL     1      41.748 -15.852   6.034  1.00  0.00    -0.016 A 
HETATM   22  C   UNL     1      42.904 -15.066   6.189  1.00  0.00     0.052 A 
HETATM   23  C   UNL     1      43.943 -15.496   7.009  1.00  0.00     0.117 A 
HETATM   24  F   UNL     1      45.034 -14.730   7.135  1.00  0.00    -0.206 F 
HETATM   25  C   UNL     1      43.863 -16.699   7.693  1.00  0.00     0.042 A 
HETATM   26  C   UNL     1      42.721 -17.485   7.561  1.00  0.00     0.004 A 
HETATM   27  C   UNL     1      41.667 -17.064   6.744  1.00  0.00     0.010 A 
ENDBRANCH  15  21
ENDBRANCH   1  15
TORSDOF 6
ENDMDL
MODEL 3
REMARK VINA RESULT:      -7.9      3.019      4.002
REMARK  6 active torsions:
REMARK  status: ('A' for Active; 'I' for Inactive)
REMARK    1  A    between atoms: C_6  and  O_7 
REMARK    2  A    between atoms: C_8  and  C_9 
REMARK    3  A    between atoms: C_9  and  N_10 
REMARK    4  A    between atoms: N_10  and  C_12 
REMARK    5  A    between atoms: C_12  and  C_13 
REMARK    6  A    between atoms: C_12  and  C_16 
REMARK       I    between atoms: C_13  and  N_14 
ROOT
HETATM    1  N   UNL     1      41.711 -16.841   2.360  1.00  0.00    -0.054 N 
HETATM    2  H   UNL     1      41.506 -17.404   3.199  1.00  0.00     0.281 HD
HETATM    3  C   UNL     1      40.901 -17.402   1.228  1.00  0.00     0.271 C 
ENDROOT
BRANCH   1   4
HETATM    4  C   UNL     1      43.196 -17.065   2.157  1.00  0.00     0.277 C 
BRANCH   4   5
HETATM    5  C   UNL     1      43.691 -18.303   2.861  1.00  0.00     0.001 A 
HETATM    6  C   UNL     1      43.934 -18.301   4.236  1.00  0.00     0.074 A 
HETATM    7  C   UNL     1      44.369 -19.448   4.894  1.00  0.00     0.044 A 
HETATM    8  C   UNL     1      44.561 -20.641   4.180  1.00  0.00    -0.053 A 
HETATM    9  C   UNL     1      44.338 -20.660   2.789  1.00  0.00    -0.055 A 
HETATM   10  C   UNL     1      45.014 -21.876   4.916  1.00  0.00     0.049 C 
HETATM   11  C   UNL     1      44.509 -21.921   1.983  1.00  0.00     0.049 C 
HETATM   12  C   UNL     1      43.903 -19.490   2.144  1.00  0.00     0.019 A 
BRANCH   6  13
HETATM   13  O   UNL     1      43.684 -17.150   4.934  1.00  0.00    -0.360 OA
HETATM   14  H   UNL     1      44.463 -16.567   4.828  1.00  0.00     0.217 HD
ENDBRANCH   6  13
ENDBRANCH   4   5
ENDBRANCH   1   4
BRANCH   1  15
HETATM   15  C   UNL     1      41.314 -15.398   2.700  1.00  0.00     0.312 C 
BRANCH  15  16
HETATM   16  C   UNL     1      40.834 -15.195   4.164  1.00  0.00     0.251 C 
HETATM   17  N   UNL     1      40.597 -16.322   4.902  1.00  0.00    -0.368 N 
HETATM   18  H   UNL     1      40.926 -17.247   4.646  1.00  0.00     0.159 HD
HETATM   19  H   UNL     1      40.321 -16.195   5.871  1.00  0.00     0.159 HD
HETATM   20  O   UNL     1      40.620 -14.088   4.652  1.00  0.00    -0.271 OA
ENDBRANCH  15  16
BRANCH  15  21
HETATM   21  C   UNL     1      40.386 -14.792   1.656  1.00  0.00    -0.016 A 
HETATM   22  C   UNL     1      38.995 -14.936   1.810  1.00  0.00     0.052 A 
HETATM   23  C   UNL     1      38.124 -14.392   0.871  1.00  0.00     0.117 A 
HETATM   24  F   UNL     1      36.805 -14.547   1.039  1.00  0.00    -0.206 F 
HETATM   25  C   UNL     1      38.600 -13.695  -0.228  1.00  0.00     0.042 A 
HETATM   26  C   UNL     1      39.975 -13.531  -0.390  1.00  0.00     0.004 A 
HETATM   27  C   UNL     1      40.862 -14.070   0.547  1.00  0.00     0.010 A 
ENDBRANCH  15  21
ENDBRANCH   1  15
TORSDOF 6
ENDMDL
MODEL 4
REMARK VINA RESULT:      -7.8      3.074      4.670
REMARK  6 active torsions:
REMARK  status: ('A' for Active; 'I' for Inactive)
REMARK    1  A    between atoms: C_6  and  O_7 
REMARK    2  A    between atoms: C_8  and  C_9 
REMARK    3  A    between atoms: C_9  and  N_10 
REMARK    4  A    between atoms: N_10  and  C_12 
REMARK    5  A    between atoms: C_12  and  C_13 
REMARK    6  A    between atoms: C_12  and  C_16 
REMARK       I    between atoms: C_13  and  N_14 
ROOT
HETATM    1  N   UNL     1      42.051 -15.718   2.892  1.00  0.00    -0.054 N 
HETATM    2  H   UNL     1      41.652 -16.598   3.251  1.00  0.00     0.281 HD
HETATM    3  C   UNL     1      41.282 -15.340   1.660  1.00  0.00     0.271 C 
ENDROOT
BRANCH   1   4
HETATM    4  C   UNL     1      43.481 -16.102   2.571  1.00  0.00     0.277 C 
BRANCH   4   5
HETATM    5  C   UNL     1      43.710 -17.590   2.660  1.00  0.00     0.001 A 
HETATM    6  C   UNL     1      43.717 -18.387   1.514  1.00  0.00     0.074 A 
HETATM    7  C   UNL     1      43.951 -19.758   1.589  1.00  0.00     0.044 A 
HETATM    8  C   UNL     1      44.198 -20.364   2.830  1.00  0.00    -0.053 A 
HETATM    9  C   UNL     1      44.178 -19.580   4.001  1.00  0.00    -0.055 A 
HETATM   10  C   UNL     1      44.468 -21.845   2.886  1.00  0.00     0.049 C 
HETATM   11  C   UNL     1      44.459 -20.180   5.354  1.00  0.00     0.049 C 
HETATM   12  C   UNL     1      43.935 -18.199   3.903  1.00  0.00     0.019 A 
BRANCH   6  13
HETATM   13  O   UNL     1      43.538 -17.777   0.302  1.00  0.00    -0.360 OA
HETATM   14  H   UNL     1      43.878 -16.862   0.379  1.00  0.00     0.217 HD
ENDBRANCH   6  13
ENDBRANCH   4   5
ENDBRANCH   1   4
BRANCH   1  15
HETATM   15  C   UNL     1      41.894 -14.684   4.015  1.00  0.00     0.312 C 
BRANCH  15  16
HETATM   16  C   UNL     1      42.174 -13.218   3.578  1.00  0.00     0.251 C 
HETATM   17  N   UNL     1      41.358 -12.250   4.097  1.00  0.00    -0.368 N 
HETATM   18  H   UNL     1      40.754 -12.388   4.900  1.00  0.00     0.159 HD
HETATM   19  H   UNL     1      41.561 -11.287   3.845  1.00  0.00     0.159 HD
HETATM   20  O   UNL     1      43.047 -12.914   2.769  1.00  0.00    -0.271 OA
ENDBRANCH  15  16
BRANCH  15  21
HETATM   21  C   UNL     1      42.619 -15.097   5.288  1.00  0.00    -0.016 A 
HETATM   22  C   UNL     1      42.155 -16.212   6.009  1.00  0.00     0.052 A 
HETATM   23  C   UNL     1      42.799 -16.612   7.177  1.00  0.00     0.117 A 
HETATM   24  F   UNL     1      42.334 -17.674   7.846  1.00  0.00    -0.206 F 
HETATM   25  C   UNL     1      43.907 -15.930   7.652  1.00  0.00     0.042 A 
HETATM   26  C   UNL     1      44.388 -14.830   6.945  1.00  0.00     0.004 A 
HETATM   27  C   UNL     1      43.754 -14.419   5.768  1.00  0.00     0.010 A 
ENDBRANCH  15  21
ENDBRANCH   1  15
TORSDOF 6
ENDMDL
MODEL 5
REMARK VINA RESULT:      -7.8      1.692      1.995
REMARK  6 active torsions:
REMARK  status: ('A' for Active; 'I' for Inactive)
REMARK    1  A    between atoms: C_6  and  O_7 
REMARK    2  A    between atoms: C_8  and  C_9 
REMARK    3  A    between atoms: C_9  and  N_10 
REMARK    4  A    between atoms: N_10  and  C_12 
REMARK    5  A    between atoms: C_12  and  C_13 
REMARK    6  A    between atoms: C_12  and  C_16 
REMARK       I    between atoms: C_13  and  N_14 
ROOT
HETATM    1  N   UNL     1      43.768 -15.828   5.496  1.00  0.00    -0.054 N 
HETATM    2  H   UNL     1      44.579 -16.340   5.116  1.00  0.00     0.281 HD
HETATM    3  C   UNL     1      44.248 -15.023   6.668  1.00  0.00     0.271 C 
ENDROOT
BRANCH   1   4
HETATM    4  C   UNL     1      42.834 -16.942   5.920  1.00  0.00     0.277 C 
BRANCH   4   5
HETATM    5  C   UNL     1      43.437 -18.309   5.711  1.00  0.00     0.001 A 
HETATM    6  C   UNL     1      43.683 -19.159   6.791  1.00  0.00     0.074 A 
HETATM    7  C   UNL     1      44.219 -20.430   6.602  1.00  0.00     0.044 A 
HETATM    8  C   UNL     1      44.513 -20.887   5.307  1.00  0.00    -0.053 A 
HETATM    9  C   UNL     1      44.287 -20.037   4.205  1.00  0.00    -0.055 A 
HETATM   10  C   UNL     1      45.074 -22.273   5.124  1.00  0.00     0.049 C 
HETATM   11  C   UNL     1      44.565 -20.489   2.795  1.00  0.00     0.049 C 
HETATM   12  C   UNL     1      43.750 -18.756   4.420  1.00  0.00     0.019 A 
BRANCH   6  13
HETATM   13  O   UNL     1      43.336 -18.730   8.044  1.00  0.00    -0.360 OA
HETATM   14  H   UNL     1      44.165 -18.540   8.530  1.00  0.00     0.217 HD
ENDBRANCH   6  13
ENDBRANCH   4   5
ENDBRANCH   1   4
BRANCH   1  15
HETATM   15  C   UNL     1      43.245 -14.942   4.357  1.00  0.00     0.312 C 
BRANCH  15  16
HETATM   16  C   UNL     1      42.280 -13.813   4.817  1.00  0.00     0.251 C 
HETATM   17  N   UNL     1      42.456 -12.579   4.254  1.00  0.00    -0.368 N 
HETATM   18  H   UNL     1      43.001 -12.411   3.416  1.00  0.00     0.159 HD
HETATM   19  H   UNL     1      41.804 -11.848   4.522  1.00  0.00     0.159 HD
HETATM   20  O   UNL     1      41.419 -13.976   5.678  1.00  0.00    -0.271 OA
ENDBRANCH  15  16
BRANCH  15  21
HETATM   21  C   UNL     1      42.726 -15.757   3.181  1.00  0.00    -0.016 A 
HETATM   22  C   UNL     1      41.342 -15.975   3.057  1.00  0.00     0.052 A 
HETATM   23  C   UNL     1      40.840 -16.716   1.991  1.00  0.00     0.117 A 
HETATM   24  F   UNL     1      39.519 -16.914   1.899  1.00  0.00    -0.206 F 
HETATM   25  C   UNL     1      41.684 -17.250   1.029  1.00  0.00     0.042 A 
HETATM   26  C   UNL     1      43.057 -17.033   1.130  1.00  0.00     0.004 A 
HETATM   27  C   UNL     1      43.575 -16.287   2.193  1.00  0.00     0.010 A 
ENDBRANCH  15  21
ENDBRANCH   1  15
TORSDOF 6
ENDMDL
MODEL 6
REMARK VINA RESULT:      -7.5      3.565      4.914
REMARK  6 active torsions:
REMARK  status: ('A' for Active; 'I' for Inactive)
REMARK    1  A    between atoms: C_6  and  O_7 
REMARK    2  A    between atoms: C_8  and  C_9 
REMARK    3  A    between atoms: C_9  and  N_10 
REMARK    4  A    between atoms: N_10  and  C_12 
REMARK    5  A    between atoms: C_12  and  C_13 
REMARK    6  A    between atoms: C_12  and  C_16 
REMARK       I    between atoms: C_13  and  N_14 
ROOT
HETATM    1  N   UNL     1      41.273 -16.010   2.452  1.00  0.00    -0.054 N 
HETATM    2  H   UNL     1      41.400 -16.167   3.463  1.00  0.00     0.281 HD
HETATM    3  C   UNL     1      40.182 -16.927   1.984  1.00  0.00     0.271 C 
ENDROOT
BRANCH   1   4
HETATM    4  C   UNL     1      42.621 -16.396   1.879  1.00  0.00     0.277 C 
BRANCH   4   5
HETATM    5  C   UNL     1      43.226 -17.583   2.586  1.00  0.00     0.001 A 
HETATM    6  C   UNL     1      43.647 -17.493   3.914  1.00  0.00     0.074 A 
HETATM    7  C   UNL     1      44.185 -18.592   4.578  1.00  0.00     0.044 A 
HETATM    8  C   UNL     1      44.303 -19.826   3.919  1.00  0.00    -0.053 A 
HETATM    9  C   UNL     1      43.900 -19.934   2.573  1.00  0.00    -0.055 A 
HETATM   10  C   UNL     1      44.870 -21.007   4.662  1.00  0.00     0.049 C 
HETATM   11  C   UNL     1      43.986 -21.241   1.829  1.00  0.00     0.049 C 
HETATM   12  C   UNL     1      43.364 -18.810   1.921  1.00  0.00     0.019 A 
BRANCH   6  13
HETATM   13  O   UNL     1      43.470 -16.303   4.568  1.00  0.00    -0.360 OA
HETATM   14  H   UNL     1      42.732 -15.833   4.129  1.00  0.00     0.217 HD
ENDBRANCH   6  13
ENDBRANCH   4   5
ENDBRANCH   1   4
BRANCH   1  15
HETATM   15  C   UNL     1      40.899 -14.531   2.288  1.00  0.00     0.312 C 
BRANCH  15  16
HETATM   16  C   UNL     1      41.998 -13.663   1.613  1.00  0.00     0.251 C 
HETATM   17  N   UNL     1      41.913 -13.496   0.259  1.00  0.00    -0.368 N 
HETATM   18  H   UNL     1      41.080 -13.696  -0.286  1.00  0.00     0.159 HD
HETATM   19  H   UNL     1      42.606 -12.899  -0.182  1.00  0.00     0.159 HD
HETATM   20  O   UNL     1      42.942 -13.176   2.232  1.00  0.00    -0.271 OA
ENDBRANCH  15  16
BRANCH  15  21
HETATM   21  C   UNL     1      40.339 -13.929   3.569  1.00  0.00    -0.016 A 
HETATM   22  C   UNL     1      39.598 -12.736   3.499  1.00  0.00     0.052 A 
HETATM   23  C   UNL     1      39.074 -12.164   4.655  1.00  0.00     0.117 A 
HETATM   24  F   UNL     1      38.377 -11.025   4.561  1.00  0.00    -0.206 F 
HETATM   25  C   UNL     1      39.264 -12.754   5.895  1.00  0.00     0.042 A 
HETATM   26  C   UNL     1      39.985 -13.944   5.982  1.00  0.00     0.004 A 
HETATM   27  C   UNL     1      40.513 -14.532   4.829  1.00  0.00     0.010 A 
ENDBRANCH  15  21
ENDBRANCH   1  15
TORSDOF 6
ENDMDL
MODEL 7
REMARK VINA RESULT:      -7.5      3.124      6.712
REMARK  6 active torsions:
REMARK  status: ('A' for Active; 'I' for Inactive)
REMARK    1  A    between atoms: C_6  and  O_7 
REMARK    2  A    between atoms: C_8  and  C_9 
REMARK    3  A    between atoms: C_9  and  N_10 
REMARK    4  A    between atoms: N_10  and  C_12 
REMARK    5  A    between atoms: C_12  and  C_13 
REMARK    6  A    between atoms: C_12  and  C_16 
REMARK       I    between atoms: C_13  and  N_14 
ROOT
HETATM    1  N   UNL     1      42.817 -16.942   1.873  1.00  0.00    -0.054 N 
HETATM    2  H   UNL     1      42.811 -16.015   2.326  1.00  0.00     0.281 HD
HETATM    3  C   UNL     1      44.222 -17.219   1.424  1.00  0.00     0.271 C 
ENDROOT
BRANCH   1   4
HETATM    4  C   UNL     1      41.877 -16.750   0.701  1.00  0.00     0.277 C 
BRANCH   4   5
HETATM    5  C   UNL     1      40.998 -15.535   0.862  1.00  0.00     0.001 A 
HETATM    6  C   UNL     1      39.796 -15.605   1.569  1.00  0.00     0.074 A 
HETATM    7  C   UNL     1      38.992 -14.481   1.740  1.00  0.00     0.044 A 
HETATM    8  C   UNL     1      39.388 -13.243   1.209  1.00  0.00    -0.053 A 
HETATM    9  C   UNL     1      40.590 -13.156   0.478  1.00  0.00    -0.055 A 
HETATM   10  C   UNL     1      38.512 -12.036   1.423  1.00  0.00     0.049 C 
HETATM   11  C   UNL     1      41.068 -11.846  -0.093  1.00  0.00     0.049 C 
HETATM   12  C   UNL     1      41.383 -14.303   0.313  1.00  0.00     0.019 A 
BRANCH   6  13
HETATM   13  O   UNL     1      39.449 -16.802   2.136  1.00  0.00    -0.360 OA
HETATM   14  H   UNL     1      40.270 -17.321   2.253  1.00  0.00     0.217 HD
ENDBRANCH   6  13
ENDBRANCH   4   5
ENDBRANCH   1   4
BRANCH   1  15
HETATM   15  C   UNL     1      42.337 -17.943   2.932  1.00  0.00     0.312 C 
BRANCH  15  16
HETATM   16  C   UNL     1      42.035 -17.311   4.320  1.00  0.00     0.251 C 
HETATM   17  N   UNL     1      40.830 -17.614   4.891  1.00  0.00    -0.368 N 
HETATM   18  H   UNL     1      40.238 -18.381   4.592  1.00  0.00     0.159 HD
HETATM   19  H   UNL     1      40.644 -17.235   5.815  1.00  0.00     0.159 HD
HETATM   20  O   UNL     1      42.801 -16.534   4.883  1.00  0.00    -0.271 OA
ENDBRANCH  15  16
BRANCH  15  21
HETATM   21  C   UNL     1      43.217 -19.183   2.997  1.00  0.00    -0.016 A 
HETATM   22  C   UNL     1      43.125 -20.143   1.972  1.00  0.00     0.052 A 
HETATM   23  C   UNL     1      43.918 -21.286   2.006  1.00  0.00     0.117 A 
HETATM   24  F   UNL     1      43.807 -22.186   1.021  1.00  0.00    -0.206 F 
HETATM   25  C   UNL     1      44.814 -21.505   3.040  1.00  0.00     0.042 A 
HETATM   26  C   UNL     1      44.928 -20.560   4.058  1.00  0.00     0.004 A 
HETATM   27  C   UNL     1      44.141 -19.404   4.035  1.00  0.00     0.010 A 
ENDBRANCH  15  21
ENDBRANCH   1  15
TORSDOF 6
ENDMDL
MODEL 8
REMARK VINA RESULT:      -7.5      2.583      3.177
REMARK  6 active torsions:
REMARK  status: ('A' for Active; 'I' for Inactive)
REMARK    1  A    between atoms: C_6  and  O_7 
REMARK    2  A    between atoms: C_8  and  C_9 
REMARK    3  A    between atoms: C_9  and  N_10 
REMARK    4  A    between atoms: N_10  and  C_12 
REMARK    5  A    between atoms: C_12  and  C_13 
REMARK    6  A    between atoms: C_12  and  C_16 
REMARK       I    between atoms: C_13  and  N_14 
ROOT
HETATM    1  N   UNL     1      42.054 -16.622   3.462  1.00  0.00    -0.054 N 
HETATM    2  H   UNL     1      41.934 -17.284   4.243  1.00  0.00     0.281 HD
HETATM    3  C   UNL     1      40.950 -16.877   2.477  1.00  0.00     0.271 C 
ENDROOT
BRANCH   1   4
HETATM    4  C   UNL     1      43.409 -17.002   2.903  1.00  0.00     0.277 C 
BRANCH   4   5
HETATM    5  C   UNL     1      43.867 -18.359   3.377  1.00  0.00     0.001 A 
HETATM    6  C   UNL     1      44.224 -18.572   4.710  1.00  0.00     0.074 A 
HETATM    7  C   UNL     1      44.625 -19.828   5.158  1.00  0.00     0.044 A 
HETATM    8  C   UNL     1      44.665 -20.914   4.270  1.00  0.00    -0.053 A 
HETATM    9  C   UNL     1      44.324 -20.716   2.917  1.00  0.00    -0.055 A 
HETATM   10  C   UNL     1      45.083 -22.268   4.781  1.00  0.00     0.049 C 
HETATM   11  C   UNL     1      44.330 -21.854   1.931  1.00  0.00     0.049 C 
HETATM   12  C   UNL     1      43.927 -19.439   2.485  1.00  0.00     0.019 A 
BRANCH   6  13
HETATM   13  O   UNL     1      44.122 -17.522   5.582  1.00  0.00    -0.360 OA
HETATM   14  H   UNL     1      45.020 -17.151   5.702  1.00  0.00     0.217 HD
ENDBRANCH   6  13
ENDBRANCH   4   5
ENDBRANCH   1   4
BRANCH   1  15
HETATM   15  C   UNL     1      41.975 -15.216   4.071  1.00  0.00     0.312 C 
BRANCH  15  16
HETATM   16  C   UNL     1      41.355 -15.170   5.496  1.00  0.00     0.251 C 
HETATM   17  N   UNL     1      41.682 -14.099   6.281  1.00  0.00    -0.368 N 
HETATM   18  H   UNL     1      42.099 -13.244   5.929  1.00  0.00     0.159 HD
HETATM   19  H   UNL     1      41.249 -14.044   7.199  1.00  0.00     0.159 HD
HETATM   20  O   UNL     1      40.639 -16.062   5.945  1.00  0.00    -0.271 OA
ENDBRANCH  15  16
BRANCH  15  21
HETATM   21  C   UNL     1      41.381 -14.199   3.107  1.00  0.00    -0.016 A 
HETATM   22  C   UNL     1      42.216 -13.591   2.153  1.00  0.00     0.052 A 
HETATM   23  C   UNL     1      41.699 -12.658   1.258  1.00  0.00     0.117 A 
HETATM   24  F   UNL     1      42.517 -12.090   0.364  1.00  0.00    -0.206 F 
HETATM   25  C   UNL     1      40.358 -12.311   1.282  1.00  0.00     0.042 A 
HETATM   26  C   UNL     1      39.513 -12.912   2.212  1.00  0.00     0.004 A 
HETATM   27  C   UNL     1      40.017 -13.854   3.114  1.00  0.00     0.010 A 
ENDBRANCH  15  21
ENDBRANCH   1  15
TORSDOF 6
ENDMDL
MODEL 9
REMARK VINA RESULT:      -7.4      2.587      5.711
REMARK  6 active torsions:
REMARK  status: ('A' for Active; 'I' for Inactive)
REMARK    1  A    between atoms: C_6  and  O_7 
REMARK    2  A    between atoms: C_8  and  C_9 
REMARK    3  A    between atoms: C_9  and  N_10 
REMARK    4  A    between atoms: N_10  and  C_12 
REMARK    5  A    between atoms: C_12  and  C_13 
REMARK    6  A    between atoms: C_12  and  C_16 
REMARK       I    between atoms: C_13  and  N_14 
ROOT
HETATM    1  N   UNL     1      42.362 -17.219   5.404  1.00  0.00    -0.054 N 
HETATM    2  H   UNL     1      42.098 -17.555   4.466  1.00  0.00     0.281 HD
HETATM    3  C   UNL     1      41.098 -16.863   6.131  1.00  0.00     0.271 C 
ENDROOT
BRANCH   1   4
HETATM    4  C   UNL     1      43.203 -15.995   5.100  1.00  0.00     0.277 C 
BRANCH   4   5
HETATM    5  C   UNL     1      42.779 -15.310   3.824  1.00  0.00     0.001 A 
HETATM    6  C   UNL     1      42.892 -13.926   3.679  1.00  0.00     0.074 A 
HETATM    7  C   UNL     1      42.524 -13.291   2.496  1.00  0.00     0.044 A 
HETATM    8  C   UNL     1      42.040 -14.043   1.414  1.00  0.00    -0.053 A 
HETATM    9  C   UNL     1      41.903 -15.439   1.546  1.00  0.00    -0.055 A 
HETATM   10  C   UNL     1      41.666 -13.338   0.136  1.00  0.00     0.049 C 
HETATM   11  C   UNL     1      41.409 -16.291   0.406  1.00  0.00     0.049 C 
HETATM   12  C   UNL     1      42.276 -16.059   2.751  1.00  0.00     0.019 A 
BRANCH   6  13
HETATM   13  O   UNL     1      43.423 -13.209   4.718  1.00  0.00    -0.360 OA
HETATM   14  H   UNL     1      42.697 -13.018   5.345  1.00  0.00     0.217 HD
ENDBRANCH   6  13
ENDBRANCH   4   5
ENDBRANCH   1   4
BRANCH   1  15
HETATM   15  C   UNL     1      43.117 -18.371   6.080  1.00  0.00     0.312 C 
BRANCH  15  16
HETATM   16  C   UNL     1      44.112 -17.923   7.187  1.00  0.00     0.251 C 
HETATM   17  N   UNL     1      43.607 -17.760   8.447  1.00  0.00    -0.368 N 
HETATM   18  H   UNL     1      42.710 -18.125   8.750  1.00  0.00     0.159 HD
HETATM   19  H   UNL     1      44.261 -17.505   9.181  1.00  0.00     0.159 HD
HETATM   20  O   UNL     1      45.294 -17.671   6.963  1.00  0.00    -0.271 OA
ENDBRANCH  15  16
BRANCH  15  21
HETATM   21  C   UNL     1      43.712 -19.344   5.072  1.00  0.00    -0.016 A 
HETATM   22  C   UNL     1      44.344 -20.511   5.537  1.00  0.00     0.052 A 
HETATM   23  C   UNL     1      44.897 -21.418   4.638  1.00  0.00     0.117 A 
HETATM   24  F   UNL     1      45.497 -22.519   5.107  1.00  0.00    -0.206 F 
HETATM   25  C   UNL     1      44.835 -21.198   3.270  1.00  0.00     0.042 A 
HETATM   26  C   UNL     1      44.202 -20.053   2.791  1.00  0.00     0.004 A 
HETATM   27  C   UNL     1      43.638 -19.135   3.683  1.00  0.00     0.010 A 
ENDBRANCH  15  21
ENDBRANCH   1  15
TORSDOF 6
ENDMDL
MODEL 10
REMARK VINA RESULT:      -7.3      3.424      4.756
REMARK  6 active torsions:
REMARK  status: ('A' for Active; 'I' for Inactive)
REMARK    1  A    between atoms: C_6  and  O_7 
REMARK    2  A    between atoms: C_8  and  C_9 
REMARK    3  A    between atoms: C_9  and  N_10 
REMARK    4  A    between atoms: N_10  and  C_12 
REMARK    5  A    between atoms: C_12  and  C_13 
REMARK    6  A    between atoms: C_12  and  C_16 
REMARK       I    between atoms: C_13  and  N_14 
ROOT
HETATM    1  N   UNL     1      40.215 -15.487   2.149  1.00  0.00    -0.054 N 
HETATM    2  H   UNL     1      40.328 -15.269   3.151  1.00  0.00     0.281 HD
HETATM    3  C   UNL     1      38.848 -15.023   1.736  1.00  0.00     0.271 C 
ENDROOT
BRANCH   1   4
HETATM    4  C   UNL     1      40.333 -16.997   2.117  1.00  0.00     0.277 C 
BRANCH   4   5
HETATM    5  C   UNL     1      41.483 -17.501   2.952  1.00  0.00     0.001 A 
HETATM    6  C   UNL     1      41.640 -17.097   4.279  1.00  0.00     0.074 A 
HETATM    7  C   UNL     1      42.687 -17.577   5.061  1.00  0.00     0.044 A 
HETATM    8  C   UNL     1      43.605 -18.494   4.525  1.00  0.00    -0.053 A 
HETATM    9  C   UNL     1      43.474 -18.902   3.182  1.00  0.00    -0.055 A 
HETATM   10  C   UNL     1      44.719 -19.016   5.395  1.00  0.00     0.049 C 
HETATM   11  C   UNL     1      44.420 -19.900   2.568  1.00  0.00     0.049 C 
HETATM   12  C   UNL     1      42.412 -18.401   2.410  1.00  0.00     0.019 A 
BRANCH   6  13
HETATM   13  O   UNL     1      40.705 -16.251   4.812  1.00  0.00    -0.360 OA
HETATM   14  H   UNL     1      40.449 -15.617   4.112  1.00  0.00     0.217 HD
ENDBRANCH   6  13
ENDBRANCH   4   5
ENDBRANCH   1   4
BRANCH   1  15
HETATM   15  C   UNL     1      41.331 -14.734   1.414  1.00  0.00     0.312 C 
BRANCH  15  16
HETATM   16  C   UNL     1      41.928 -13.538   2.209  1.00  0.00     0.251 C 
HETATM   17  N   UNL     1      41.562 -13.422   3.521  1.00  0.00    -0.368 N 
HETATM   18  H   UNL     1      41.130 -14.166   4.058  1.00  0.00     0.159 HD
HETATM   19  H   UNL     1      41.980 -12.665   4.055  1.00  0.00     0.159 HD
HETATM   20  O   UNL     1      42.658 -12.692   1.699  1.00  0.00    -0.271 OA
ENDBRANCH  15  16
BRANCH  15  21
HETATM   21  C   UNL     1      40.952 -14.393  -0.021  1.00  0.00    -0.016 A 
HETATM   22  C   UNL     1      41.165 -15.348  -1.031  1.00  0.00     0.052 A 
HETATM   23  C   UNL     1      40.828 -15.064  -2.351  1.00  0.00     0.117 A 
HETATM   24  F   UNL     1      41.045 -15.989  -3.293  1.00  0.00    -0.206 F 
HETATM   25  C   UNL     1      40.273 -13.842  -2.700  1.00  0.00     0.042 A 
HETATM   26  C   UNL     1      40.044 -12.888  -1.711  1.00  0.00     0.004 A 
HETATM   27  C   UNL     1      40.374 -13.162  -0.380  1.00  0.00     0.010 A 
ENDBRANCH  15  21
ENDBRANCH   1  15
TORSDOF 6
ENDMDL
