MODEL 1
REMARK VINA RESULT:      -8.7      0.000      0.000
REMARK  10 active torsions:
REMARK  status: ('A' for Active; 'I' for Inactive)
REMARK    1  A    between atoms: C_8  and  N_9 
REMARK    2  A    between atoms: C_10  and  S_11 
REMARK    3  A    between atoms: S_11  and  C_12 
REMARK    4  A    between atoms: C_12  and  C_13 
REMARK       I    between atoms: C_13  and  N_14 
REMARK    5  A    between atoms: N_14  and  C_15 
REMARK    6  A    between atoms: C_15  and  C_16 
REMARK    7  A    between atoms: C_16  and  C_17 
REMARK    8  A    between atoms: C_19  and  O_20 
REMARK    9  A    between atoms: C_22  and  O_23 
REMARK   10  A    between atoms: C_31  and  N_32 
ROOT
HETATM    1  N   UNL     1      41.462 -15.324   2.993  1.00  0.00    -0.275 N 
HETATM    2  C   UNL     1      42.173 -14.107   3.175  1.00  0.00     0.177 A 
HETATM    3  N   UNL     1      41.766 -12.919   2.799  1.00  0.00    -0.204 NA
HETATM    4  C   UNL     1      40.557 -12.919   2.199  1.00  0.00     0.162 A 
HETATM    5  C   UNL     1      39.728 -13.970   1.916  1.00  0.00     0.081 A 
HETATM    6  C   UNL     1      40.180 -15.273   2.303  1.00  0.00     0.124 A 
HETATM    7  N   UNL     1      39.901 -11.812   1.748  1.00  0.00    -0.260 N 
HETATM    8  H   UNL     1      40.205 -10.846   1.795  1.00  0.00     0.191 HD
HETATM    9  N   UNL     1      38.706 -12.100   1.186  1.00  0.00    -0.177 NA
HETATM   10  C   UNL     1      38.592 -13.434   1.294  1.00  0.00     0.068 A 
HETATM   11  C   UNL     1      37.372 -14.103   0.784  1.00  0.00     0.073 C 
ENDROOT
BRANCH   2  12
HETATM   12  S   UNL     1      43.755 -14.120   3.980  1.00  0.00    -0.082 SA
BRANCH  12  13
HETATM   13  C   UNL     1      43.218 -13.746   5.675  1.00  0.00     0.185 C 
BRANCH  13  14
HETATM   14  C   UNL     1      44.067 -14.462   6.716  1.00  0.00     0.227 C 
HETATM   15  N   UNL     1      44.392 -13.778   7.862  1.00  0.00    -0.360 N 
HETATM   16  H   UNL     1      45.008 -14.308   8.473  1.00  0.00     0.162 HD
HETATM   17  O   UNL     1      44.441 -15.629   6.612  1.00  0.00    -0.273 OA
BRANCH  15  18
HETATM   18  C   UNL     1      44.198 -12.361   8.108  1.00  0.00     0.127 C 
BRANCH  18  19
HETATM   19  C   UNL     1      44.938 -11.854   9.346  1.00  0.00     0.058 C 
BRANCH  19  20
HETATM   20  C   UNL     1      43.982 -11.128  10.261  1.00  0.00    -0.054 A 
HETATM   21  C   UNL     1      42.670 -10.852   9.844  1.00  0.00     0.046 A 
HETATM   22  C   UNL     1      41.805 -10.103  10.651  1.00  0.00     0.102 A 
HETATM   23  C   UNL     1      42.257  -9.619  11.894  1.00  0.00     0.101 A 
HETATM   24  C   UNL     1      43.557  -9.912  12.317  1.00  0.00     0.040 A 
HETATM   25  C   UNL     1      44.414 -10.659  11.504  1.00  0.00     0.010 A 
BRANCH  22  26
HETATM   26  O   UNL     1      40.518  -9.769  10.307  1.00  0.00    -0.353 OA
HETATM   27  C   UNL     1      39.741 -10.740   9.622  1.00  0.00     0.210 C 
ENDBRANCH  22  26
BRANCH  23  28
HETATM   28  O   UNL     1      41.356  -8.878  12.619  1.00  0.00    -0.353 OA
HETATM   29  C   UNL     1      41.654  -7.506  12.834  1.00  0.00     0.210 C 
ENDBRANCH  23  28
ENDBRANCH  19  20
ENDBRANCH  18  19
ENDBRANCH  15  18
ENDBRANCH  13  14
ENDBRANCH  12  13
ENDBRANCH   2  12
BRANCH   1  30
HETATM   30  C   UNL     1      41.961 -16.566   3.499  1.00  0.00     0.051 A 
HETATM   31  C   UNL     1      42.812 -17.387   2.721  1.00  0.00    -0.013 A 
HETATM   32  C   UNL     1      43.149 -17.035   1.293  1.00  0.00     0.052 C 
HETATM   33  C   UNL     1      43.361 -18.539   3.319  1.00  0.00     0.042 A 
HETATM   34 CL   UNL     1      44.475 -19.557   2.475  1.00  0.00    -0.084 Cl
HETATM   35  C   UNL     1      43.046 -18.887   4.635  1.00  0.00     0.024 A 
HETATM   36  C   UNL     1      42.191 -18.087   5.386  1.00  0.00     0.004 A 
HETATM   37  C   UNL     1      41.663 -16.927   4.826  1.00  0.00     0.031 A 
ENDBRANCH   1  30
BRANCH   6  38
HETATM   38  N   UNL     1      39.475 -16.354   2.024  1.00  0.00    -0.384 N 
HETATM   39  H   UNL     1      38.469 -16.329   1.948  1.00  0.00     0.157 HD
HETATM   40  H   UNL     1      39.945 -17.236   1.864  1.00  0.00     0.157 HD
ENDBRANCH   6  38
TORSDOF 10
ENDMDL
MODEL 2
REMARK VINA RESULT:      -8.7      4.465      6.808
REMARK  10 active torsions:
REMARK  status: ('A' for Active; 'I' for Inactive)
REMARK    1  A    between atoms: C_8  and  N_9 
REMARK    2  A    between atoms: C_10  and  S_11 
REMARK    3  A    between atoms: S_11  and  C_12 
REMARK    4  A    between atoms: C_12  and  C_13 
REMARK       I    between atoms: C_13  and  N_14 
REMARK    5  A    between atoms: N_14  and  C_15 
REMARK    6  A    between atoms: C_15  and  C_16 
REMARK    7  A    between atoms: C_16  and  C_17 
REMARK    8  A    between atoms: C_19  and  O_20 
REMARK    9  A    between atoms: C_22  and  O_23 
REMARK   10  A    between atoms: C_31  and  N_32 
ROOT
HETATM    1  N   UNL     1      41.480 -14.209   0.911  1.00  0.00    -0.275 N 
HETATM    2  C   UNL     1      41.308 -15.598   0.665  1.00  0.00     0.177 A 
HETATM    3  N   UNL     1      41.220 -16.162  -0.515  1.00  0.00    -0.204 NA
HETATM    4  C   UNL     1      41.314 -15.294  -1.545  1.00  0.00     0.162 A 
HETATM    5  C   UNL     1      41.463 -13.934  -1.523  1.00  0.00     0.081 A 
HETATM    6  C   UNL     1      41.534 -13.311  -0.235  1.00  0.00     0.124 A 
HETATM    7  N   UNL     1      41.286 -15.632  -2.866  1.00  0.00    -0.260 N 
HETATM    8  H   UNL     1      41.197 -16.557  -3.269  1.00  0.00     0.191 HD
HETATM    9  N   UNL     1      41.398 -14.563  -3.686  1.00  0.00    -0.177 NA
HETATM   10  C   UNL     1      41.514 -13.511  -2.859  1.00  0.00     0.068 A 
HETATM   11  C   UNL     1      41.675 -12.153  -3.429  1.00  0.00     0.073 C 
ENDROOT
BRANCH   2  12
HETATM   12  S   UNL     1      41.201 -16.730   2.028  1.00  0.00    -0.082 SA
BRANCH  12  13
HETATM   13  C   UNL     1      42.212 -18.083   1.358  1.00  0.00     0.185 C 
BRANCH  13  14
HETATM   14  C   UNL     1      43.699 -17.860   1.598  1.00  0.00     0.227 C 
HETATM   15  N   UNL     1      44.404 -18.853   2.234  1.00  0.00    -0.360 N 
HETATM   16  H   UNL     1      45.372 -18.597   2.405  1.00  0.00     0.162 HD
HETATM   17  O   UNL     1      44.313 -16.865   1.218  1.00  0.00    -0.273 OA
BRANCH  15  18
HETATM   18  C   UNL     1      43.849 -20.015   2.902  1.00  0.00     0.127 C 
BRANCH  18  19
HETATM   19  C   UNL     1      44.434 -20.250   4.295  1.00  0.00     0.058 C 
BRANCH  19  20
HETATM   20  C   UNL     1      44.234 -19.025   5.155  1.00  0.00    -0.054 A 
HETATM   21  C   UNL     1      43.050 -18.276   5.061  1.00  0.00     0.046 A 
HETATM   22  C   UNL     1      42.893 -17.091   5.791  1.00  0.00     0.102 A 
HETATM   23  C   UNL     1      43.935 -16.645   6.627  1.00  0.00     0.101 A 
HETATM   24  C   UNL     1      45.104 -17.403   6.736  1.00  0.00     0.040 A 
HETATM   25  C   UNL     1      45.253 -18.583   6.002  1.00  0.00     0.010 A 
BRANCH  22  26
HETATM   26  O   UNL     1      41.780 -16.289   5.737  1.00  0.00    -0.353 OA
HETATM   27  C   UNL     1      40.589 -16.763   6.346  1.00  0.00     0.210 C 
ENDBRANCH  22  26
BRANCH  23  28
HETATM   28  O   UNL     1      43.712 -15.466   7.295  1.00  0.00    -0.353 OA
HETATM   29  C   UNL     1      44.669 -14.429   7.136  1.00  0.00     0.210 C 
ENDBRANCH  23  28
ENDBRANCH  19  20
ENDBRANCH  18  19
ENDBRANCH  15  18
ENDBRANCH  13  14
ENDBRANCH  12  13
ENDBRANCH   2  12
BRANCH   1  30
HETATM   30  C   UNL     1      41.632 -13.696   2.238  1.00  0.00     0.051 A 
HETATM   31  C   UNL     1      40.518 -13.226   2.976  1.00  0.00    -0.013 A 
HETATM   32  C   UNL     1      39.143 -13.156   2.359  1.00  0.00     0.052 C 
HETATM   33  C   UNL     1      40.717 -12.842   4.316  1.00  0.00     0.042 A 
HETATM   34 CL   UNL     1      39.404 -12.335   5.320  1.00  0.00    -0.084 Cl
HETATM   35  C   UNL     1      41.987 -12.886   4.897  1.00  0.00     0.024 A 
HETATM   36  C   UNL     1      43.081 -13.327   4.159  1.00  0.00     0.004 A 
HETATM   37  C   UNL     1      42.902 -13.742   2.842  1.00  0.00     0.031 A 
ENDBRANCH   1  30
BRANCH   6  38
HETATM   38  N   UNL     1      41.623 -12.000  -0.112  1.00  0.00    -0.384 N 
HETATM   39  H   UNL     1      42.414 -11.484  -0.467  1.00  0.00     0.157 HD
HETATM   40  H   UNL     1      40.875 -11.482   0.333  1.00  0.00     0.157 HD
ENDBRANCH   6  38
TORSDOF 10
ENDMDL
MODEL 3
REMARK VINA RESULT:      -8.6      4.518      8.344
REMARK  10 active torsions:
REMARK  status: ('A' for Active; 'I' for Inactive)
REMARK    1  A    between atoms: C_8  and  N_9 
REMARK    2  A    between atoms: C_10  and  S_11 
REMARK    3  A    between atoms: S_11  and  C_12 
REMARK    4  A    between atoms: C_12  and  C_13 
REMARK       I    between atoms: C_13  and  N_14 
REMARK    5  A    between atoms: N_14  and  C_15 
REMARK    6  A    between atoms: C_15  and  C_16 
REMARK    7  A    between atoms: C_16  and  C_17 
REMARK    8  A    between atoms: C_19  and  O_20 
REMARK    9  A    between atoms: C_22  and  O_23 
REMARK   10  A    between atoms: C_31  and  N_32 
ROOT
HETATM    1  N   UNL     1      41.076 -13.048   4.752  1.00  0.00    -0.275 N 
HETATM    2  C   UNL     1      40.680 -12.933   3.393  1.00  0.00     0.177 A 
HETATM    3  N   UNL     1      40.438 -11.812   2.757  1.00  0.00    -0.204 NA
HETATM    4  C   UNL     1      40.602 -10.707   3.515  1.00  0.00     0.162 A 
HETATM    5  C   UNL     1      40.958 -10.602   4.832  1.00  0.00     0.081 A 
HETATM    6  C   UNL     1      41.199 -11.826   5.537  1.00  0.00     0.124 A 
HETATM    7  N   UNL     1      40.445  -9.424   3.082  1.00  0.00    -0.260 N 
HETATM    8  H   UNL     1      40.192  -9.108   2.152  1.00  0.00     0.191 HD
HETATM    9  N   UNL     1      40.671  -8.509   4.050  1.00  0.00    -0.177 NA
HETATM   10  C   UNL     1      40.995  -9.233   5.133  1.00  0.00     0.068 A 
HETATM   11  C   UNL     1      41.327  -8.540   6.400  1.00  0.00     0.073 C 
ENDROOT
BRANCH   2  12
HETATM   12  S   UNL     1      40.482 -14.394   2.404  1.00  0.00    -0.082 SA
BRANCH  12  13
HETATM   13  C   UNL     1      41.922 -14.200   1.313  1.00  0.00     0.185 C 
BRANCH  13  14
HETATM   14  C   UNL     1      41.763 -14.971   0.010  1.00  0.00     0.227 C 
HETATM   15  N   UNL     1      42.151 -16.289  -0.009  1.00  0.00    -0.360 N 
HETATM   16  H   UNL     1      42.065 -16.708  -0.931  1.00  0.00     0.162 HD
HETATM   17  O   UNL     1      41.267 -14.497  -1.011  1.00  0.00    -0.273 OA
BRANCH  15  18
HETATM   18  C   UNL     1      42.902 -16.984   1.018  1.00  0.00     0.127 C 
BRANCH  18  19
HETATM   19  C   UNL     1      42.045 -17.927   1.863  1.00  0.00     0.058 C 
BRANCH  19  20
HETATM   20  C   UNL     1      42.922 -18.926   2.577  1.00  0.00    -0.054 A 
HETATM   21  C   UNL     1      43.283 -18.724   3.919  1.00  0.00     0.046 A 
HETATM   22  C   UNL     1      44.167 -19.600   4.562  1.00  0.00     0.102 A 
HETATM   23  C   UNL     1      44.700 -20.695   3.854  1.00  0.00     0.101 A 
HETATM   24  C   UNL     1      44.322 -20.907   2.525  1.00  0.00     0.040 A 
HETATM   25  C   UNL     1      43.442 -20.027   1.891  1.00  0.00     0.010 A 
BRANCH  22  26
HETATM   26  O   UNL     1      44.589 -19.460   5.861  1.00  0.00    -0.353 OA
HETATM   27  C   UNL     1      43.712 -19.883   6.894  1.00  0.00     0.210 C 
ENDBRANCH  22  26
BRANCH  23  28
HETATM   28  O   UNL     1      45.572 -21.497   4.548  1.00  0.00    -0.353 OA
HETATM   29  C   UNL     1      45.084 -22.743   5.024  1.00  0.00     0.210 C 
ENDBRANCH  23  28
ENDBRANCH  19  20
ENDBRANCH  18  19
ENDBRANCH  15  18
ENDBRANCH  13  14
ENDBRANCH  12  13
ENDBRANCH   2  12
BRANCH   1  30
HETATM   30  C   UNL     1      41.382 -14.316   5.339  1.00  0.00     0.051 A 
HETATM   31  C   UNL     1      42.722 -14.720   5.556  1.00  0.00    -0.013 A 
HETATM   32  C   UNL     1      43.881 -13.874   5.091  1.00  0.00     0.052 C 
HETATM   33  C   UNL     1      42.953 -15.929   6.243  1.00  0.00     0.042 A 
HETATM   34 CL   UNL     1      44.552 -16.462   6.628  1.00  0.00    -0.084 Cl
HETATM   35  C   UNL     1      41.891 -16.731   6.666  1.00  0.00     0.024 A 
HETATM   36  C   UNL     1      40.578 -16.339   6.428  1.00  0.00     0.004 A 
HETATM   37  C   UNL     1      40.325 -15.133   5.781  1.00  0.00     0.031 A 
ENDBRANCH   1  30
BRANCH   6  38
HETATM   38  N   UNL     1      41.495 -11.829   6.823  1.00  0.00    -0.384 N 
HETATM   39  H   UNL     1      41.056 -11.193   7.472  1.00  0.00     0.157 HD
HETATM   40  H   UNL     1      42.166 -12.495   7.185  1.00  0.00     0.157 HD
ENDBRANCH   6  38
TORSDOF 10
ENDMDL
MODEL 4
REMARK VINA RESULT:      -8.4      4.518      8.301
REMARK  10 active torsions:
REMARK  status: ('A' for Active; 'I' for Inactive)
REMARK    1  A    between atoms: C_8  and  N_9 
REMARK    2  A    between atoms: C_10  and  S_11 
REMARK    3  A    between atoms: S_11  and  C_12 
REMARK    4  A    between atoms: C_12  and  C_13 
REMARK       I    between atoms: C_13  and  N_14 
REMARK    5  A    between atoms: N_14  and  C_15 
REMARK    6  A    between atoms: C_15  and  C_16 
REMARK    7  A    between atoms: C_16  and  C_17 
REMARK    8  A    between atoms: C_19  and  O_20 
REMARK    9  A    between atoms: C_22  and  O_23 
REMARK   10  A    between atoms: C_31  and  N_32 
ROOT
HETATM    1  N   UNL     1      41.015 -13.104   5.060  1.00  0.00    -0.275 N 
HETATM    2  C   UNL     1      41.273 -12.732   3.713  1.00  0.00     0.177 A 
HETATM    3  N   UNL     1      41.075 -11.543   3.195  1.00  0.00    -0.204 NA
HETATM    4  C   UNL     1      40.588 -10.639   4.071  1.00  0.00     0.162 A 
HETATM    5  C   UNL     1      40.259 -10.797   5.391  1.00  0.00     0.081 A 
HETATM    6  C   UNL     1      40.451 -12.101   5.954  1.00  0.00     0.124 A 
HETATM    7  N   UNL     1      40.329  -9.330   3.791  1.00  0.00    -0.260 N 
HETATM    8  H   UNL     1      40.460  -8.845   2.911  1.00  0.00     0.191 HD
HETATM    9  N   UNL     1      39.845  -8.649   4.853  1.00  0.00    -0.177 NA
HETATM   10  C   UNL     1      39.807  -9.551   5.847  1.00  0.00     0.068 A 
HETATM   11  C   UNL     1      39.333  -9.137   7.188  1.00  0.00     0.073 C 
ENDROOT
BRANCH   2  12
HETATM   12  S   UNL     1      41.927 -13.927   2.576  1.00  0.00    -0.082 SA
BRANCH  12  13
HETATM   13  C   UNL     1      40.367 -14.549   1.883  1.00  0.00     0.185 C 
BRANCH  13  14
HETATM   14  C   UNL     1      40.442 -14.732   0.373  1.00  0.00     0.227 C 
HETATM   15  N   UNL     1      40.814 -15.964  -0.107  1.00  0.00    -0.360 N 
HETATM   16  H   UNL     1      40.896 -15.980  -1.120  1.00  0.00     0.162 HD
HETATM   17  O   UNL     1      40.149 -13.857  -0.439  1.00  0.00    -0.273 OA
BRANCH  15  18
HETATM   18  C   UNL     1      41.356 -17.066   0.665  1.00  0.00     0.127 C 
BRANCH  18  19
HETATM   19  C   UNL     1      42.884 -17.102   0.680  1.00  0.00     0.058 C 
BRANCH  19  20
HETATM   20  C   UNL     1      43.372 -17.951   1.830  1.00  0.00    -0.054 A 
HETATM   21  C   UNL     1      43.446 -19.347   1.701  1.00  0.00     0.046 A 
HETATM   22  C   UNL     1      43.813 -20.148   2.790  1.00  0.00     0.102 A 
HETATM   23  C   UNL     1      44.110 -19.546   4.028  1.00  0.00     0.101 A 
HETATM   24  C   UNL     1      44.056 -18.154   4.148  1.00  0.00     0.040 A 
HETATM   25  C   UNL     1      43.686 -17.363   3.057  1.00  0.00     0.010 A 
BRANCH  22  26
HETATM   26  O   UNL     1      43.886 -21.518   2.755  1.00  0.00    -0.353 OA
HETATM   27  C   UNL     1      44.648 -22.117   1.718  1.00  0.00     0.210 C 
ENDBRANCH  22  26
BRANCH  23  28
HETATM   28  O   UNL     1      44.445 -20.398   5.051  1.00  0.00    -0.353 OA
HETATM   29  C   UNL     1      44.095 -20.011   6.372  1.00  0.00     0.210 C 
ENDBRANCH  23  28
ENDBRANCH  19  20
ENDBRANCH  18  19
ENDBRANCH  15  18
ENDBRANCH  13  14
ENDBRANCH  12  13
ENDBRANCH   2  12
BRANCH   1  30
HETATM   30  C   UNL     1      41.327 -14.412   5.549  1.00  0.00     0.051 A 
HETATM   31  C   UNL     1      42.616 -14.722   6.046  1.00  0.00    -0.013 A 
HETATM   32  C   UNL     1      43.740 -13.716   5.991  1.00  0.00     0.052 C 
HETATM   33  C   UNL     1      42.825 -15.992   6.619  1.00  0.00     0.042 A 
HETATM   34 CL   UNL     1      44.341 -16.431   7.326  1.00  0.00    -0.084 Cl
HETATM   35  C   UNL     1      41.800 -16.940   6.663  1.00  0.00     0.024 A 
HETATM   36  C   UNL     1      40.542 -16.636   6.151  1.00  0.00     0.004 A 
HETATM   37  C   UNL     1      40.304 -15.376   5.610  1.00  0.00     0.031 A 
ENDBRANCH   1  30
BRANCH   6  38
HETATM   38  N   UNL     1      40.113 -12.364   7.202  1.00  0.00    -0.384 N 
HETATM   39  H   UNL     1      40.799 -12.419   7.940  1.00  0.00     0.157 HD
HETATM   40  H   UNL     1      39.139 -12.501   7.443  1.00  0.00     0.157 HD
ENDBRANCH   6  38
TORSDOF 10
ENDMDL
MODEL 5
REMARK VINA RESULT:      -8.4      5.492      9.043
REMARK  10 active torsions:
REMARK  status: ('A' for Active; 'I' for Inactive)
REMARK    1  A    between atoms: C_8  and  N_9 
REMARK    2  A    between atoms: C_10  and  S_11 
REMARK    3  A    between atoms: S_11  and  C_12 
REMARK    4  A    between atoms: C_12  and  C_13 
REMARK       I    between atoms: C_13  and  N_14 
REMARK    5  A    between atoms: N_14  and  C_15 
REMARK    6  A    between atoms: C_15  and  C_16 
REMARK    7  A    between atoms: C_16  and  C_17 
REMARK    8  A    between atoms: C_19  and  O_20 
REMARK    9  A    between atoms: C_22  and  O_23 
REMARK   10  A    between atoms: C_31  and  N_32 
ROOT
HETATM    1  N   UNL     1      40.407 -13.400   2.463  1.00  0.00    -0.275 N 
HETATM    2  C   UNL     1      41.598 -13.078   1.759  1.00  0.00     0.177 A 
HETATM    3  N   UNL     1      42.821 -13.289   2.183  1.00  0.00    -0.204 NA
HETATM    4  C   UNL     1      42.885 -13.869   3.400  1.00  0.00     0.162 A 
HETATM    5  C   UNL     1      41.870 -14.240   4.241  1.00  0.00     0.081 A 
HETATM    6  C   UNL     1      40.533 -13.988   3.791  1.00  0.00     0.124 A 
HETATM    7  N   UNL     1      44.033 -14.222   4.046  1.00  0.00    -0.260 N 
HETATM    8  H   UNL     1      44.987 -14.111   3.723  1.00  0.00     0.191 HD
HETATM    9  N   UNL     1      43.807 -14.786   5.253  1.00  0.00    -0.177 NA
HETATM   10  C   UNL     1      42.470 -14.805   5.375  1.00  0.00     0.068 A 
HETATM   11  C   UNL     1      41.858 -15.381   6.595  1.00  0.00     0.073 C 
ENDROOT
BRANCH   2  12
HETATM   12  S   UNL     1      41.499 -12.328   0.153  1.00  0.00    -0.082 SA
BRANCH  12  13
HETATM   13  C   UNL     1      42.158 -13.696  -0.844  1.00  0.00     0.185 C 
BRANCH  13  14
HETATM   14  C   UNL     1      41.062 -14.644  -1.311  1.00  0.00     0.227 C 
HETATM   15  N   UNL     1      40.910 -15.833  -0.639  1.00  0.00    -0.360 N 
HETATM   16  H   UNL     1      40.198 -16.428  -1.053  1.00  0.00     0.162 HD
HETATM   17  O   UNL     1      40.279 -14.391  -2.225  1.00  0.00    -0.273 OA
BRANCH  15  18
HETATM   18  C   UNL     1      41.819 -16.393   0.342  1.00  0.00     0.127 C 
BRANCH  18  19
HETATM   19  C   UNL     1      41.134 -17.329   1.339  1.00  0.00     0.058 C 
BRANCH  19  20
HETATM   20  C   UNL     1      42.162 -17.975   2.236  1.00  0.00    -0.054 A 
HETATM   21  C   UNL     1      43.047 -18.938   1.724  1.00  0.00     0.046 A 
HETATM   22  C   UNL     1      43.944 -19.605   2.568  1.00  0.00     0.102 A 
HETATM   23  C   UNL     1      43.958 -19.308   3.944  1.00  0.00     0.101 A 
HETATM   24  C   UNL     1      43.091 -18.334   4.448  1.00  0.00     0.040 A 
HETATM   25  C   UNL     1      42.198 -17.675   3.600  1.00  0.00     0.010 A 
BRANCH  22  26
HETATM   26  O   UNL     1      44.823 -20.575   2.153  1.00  0.00    -0.353 OA
HETATM   27  C   UNL     1      44.302 -21.864   1.864  1.00  0.00     0.210 C 
ENDBRANCH  22  26
BRANCH  23  28
HETATM   28  O   UNL     1      44.853 -20.017   4.707  1.00  0.00    -0.353 OA
HETATM   29  C   UNL     1      44.328 -20.908   5.681  1.00  0.00     0.210 C 
ENDBRANCH  23  28
ENDBRANCH  19  20
ENDBRANCH  18  19
ENDBRANCH  15  18
ENDBRANCH  13  14
ENDBRANCH  12  13
ENDBRANCH   2  12
BRANCH   1  30
HETATM   30  C   UNL     1      39.115 -13.191   1.886  1.00  0.00     0.051 A 
HETATM   31  C   UNL     1      38.463 -11.938   1.979  1.00  0.00    -0.013 A 
HETATM   32  C   UNL     1      39.060 -10.801   2.772  1.00  0.00     0.052 C 
HETATM   33  C   UNL     1      37.246 -11.764   1.290  1.00  0.00     0.042 A 
HETATM   34 CL   UNL     1      36.420 -10.245   1.277  1.00  0.00    -0.084 Cl
HETATM   35  C   UNL     1      36.673 -12.811   0.564  1.00  0.00     0.024 A 
HETATM   36  C   UNL     1      37.308 -14.047   0.497  1.00  0.00     0.004 A 
HETATM   37  C   UNL     1      38.528 -14.232   1.143  1.00  0.00     0.031 A 
ENDBRANCH   1  30
BRANCH   6  38
HETATM   38  N   UNL     1      39.491 -14.261   4.553  1.00  0.00    -0.384 N 
HETATM   39  H   UNL     1      39.596 -14.605   5.496  1.00  0.00     0.157 HD
HETATM   40  H   UNL     1      38.554 -14.108   4.202  1.00  0.00     0.157 HD
ENDBRANCH   6  38
TORSDOF 10
ENDMDL
MODEL 6
REMARK VINA RESULT:      -8.2      4.594      7.852
REMARK  10 active torsions:
REMARK  status: ('A' for Active; 'I' for Inactive)
REMARK    1  A    between atoms: C_8  and  N_9 
REMARK    2  A    between atoms: C_10  and  S_11 
REMARK    3  A    between atoms: S_11  and  C_12 
REMARK    4  A    between atoms: C_12  and  C_13 
REMARK       I    between atoms: C_13  and  N_14 
REMARK    5  A    between atoms: N_14  and  C_15 
REMARK    6  A    between atoms: C_15  and  C_16 
REMARK    7  A    between atoms: C_16  and  C_17 
REMARK    8  A    between atoms: C_19  and  O_20 
REMARK    9  A    between atoms: C_22  and  O_23 
REMARK   10  A    between atoms: C_31  and  N_32 
ROOT
HETATM    1  N   UNL     1      39.568 -13.076   2.571  1.00  0.00    -0.275 N 
HETATM    2  C   UNL     1      39.726 -14.349   3.183  1.00  0.00     0.177 A 
HETATM    3  N   UNL     1      39.804 -14.576   4.472  1.00  0.00    -0.204 NA
HETATM    4  C   UNL     1      39.716 -13.461   5.229  1.00  0.00     0.162 A 
HETATM    5  C   UNL     1      39.580 -12.156   4.842  1.00  0.00     0.081 A 
HETATM    6  C   UNL     1      39.519 -11.902   3.433  1.00  0.00     0.124 A 
HETATM    7  N   UNL     1      39.736 -13.431   6.592  1.00  0.00    -0.260 N 
HETATM    8  H   UNL     1      39.814 -14.215   7.231  1.00  0.00     0.191 HD
HETATM    9  N   UNL     1      39.632 -12.181   7.094  1.00  0.00    -0.177 NA
HETATM   10  C   UNL     1      39.529 -11.389   6.014  1.00  0.00     0.068 A 
HETATM   11  C   UNL     1      39.380  -9.926   6.196  1.00  0.00     0.073 C 
ENDROOT
BRANCH   2  12
HETATM   12  S   UNL     1      39.825 -15.807   2.175  1.00  0.00    -0.082 SA
BRANCH  12  13
HETATM   13  C   UNL     1      41.633 -15.972   2.087  1.00  0.00     0.185 C 
BRANCH  13  14
HETATM   14  C   UNL     1      42.106 -16.346   0.689  1.00  0.00     0.227 C 
HETATM   15  N   UNL     1      43.203 -17.166   0.579  1.00  0.00    -0.360 N 
HETATM   16  H   UNL     1      43.485 -17.316  -0.386  1.00  0.00     0.162 HD
HETATM   17  O   UNL     1      41.540 -15.995  -0.344  1.00  0.00    -0.273 OA
BRANCH  15  18
HETATM   18  C   UNL     1      44.105 -17.551   1.648  1.00  0.00     0.127 C 
BRANCH  18  19
HETATM   19  C   UNL     1      44.063 -19.046   1.967  1.00  0.00     0.058 C 
BRANCH  19  20
HETATM   20  C   UNL     1      43.902 -19.255   3.454  1.00  0.00    -0.054 A 
HETATM   21  C   UNL     1      43.117 -18.374   4.215  1.00  0.00     0.046 A 
HETATM   22  C   UNL     1      43.034 -18.510   5.607  1.00  0.00     0.102 A 
HETATM   23  C   UNL     1      43.747 -19.540   6.250  1.00  0.00     0.101 A 
HETATM   24  C   UNL     1      44.512 -20.429   5.488  1.00  0.00     0.040 A 
HETATM   25  C   UNL     1      44.591 -20.285   4.100  1.00  0.00     0.010 A 
BRANCH  22  26
HETATM   26  O   UNL     1      42.310 -17.678   6.425  1.00  0.00    -0.353 OA
HETATM   27  C   UNL     1      42.349 -16.285   6.157  1.00  0.00     0.210 C 
ENDBRANCH  22  26
BRANCH  23  28
HETATM   28  O   UNL     1      43.629 -19.597   7.616  1.00  0.00    -0.353 OA
HETATM   29  C   UNL     1      44.403 -18.685   8.382  1.00  0.00     0.210 C 
ENDBRANCH  23  28
ENDBRANCH  19  20
ENDBRANCH  18  19
ENDBRANCH  15  18
ENDBRANCH  13  14
ENDBRANCH  12  13
ENDBRANCH   2  12
BRANCH   1  30
HETATM   30  C   UNL     1      39.425 -12.938   1.155  1.00  0.00     0.051 A 
HETATM   31  C   UNL     1      40.548 -12.713   0.321  1.00  0.00    -0.013 A 
HETATM   32  C   UNL     1      41.926 -12.513   0.902  1.00  0.00     0.052 C 
HETATM   33  C   UNL     1      40.355 -12.703  -1.074  1.00  0.00     0.042 A 
HETATM   34 CL   UNL     1      41.677 -12.518  -2.172  1.00  0.00    -0.084 Cl
HETATM   35  C   UNL     1      39.083 -12.871  -1.626  1.00  0.00     0.024 A 
HETATM   36  C   UNL     1      37.980 -13.068  -0.801  1.00  0.00     0.004 A 
HETATM   37  C   UNL     1      38.153 -13.115   0.580  1.00  0.00     0.031 A 
ENDBRANCH   1  30
BRANCH   6  38
HETATM   38  N   UNL     1      39.444 -10.672   2.961  1.00  0.00    -0.384 N 
HETATM   39  H   UNL     1      38.962 -10.460   2.100  1.00  0.00     0.157 HD
HETATM   40  H   UNL     1      39.862  -9.907   3.475  1.00  0.00     0.157 HD
ENDBRANCH   6  38
TORSDOF 10
ENDMDL
MODEL 7
REMARK VINA RESULT:      -8.1      2.621      4.671
REMARK  10 active torsions:
REMARK  status: ('A' for Active; 'I' for Inactive)
REMARK    1  A    between atoms: C_8  and  N_9 
REMARK    2  A    between atoms: C_10  and  S_11 
REMARK    3  A    between atoms: S_11  and  C_12 
REMARK    4  A    between atoms: C_12  and  C_13 
REMARK       I    between atoms: C_13  and  N_14 
REMARK    5  A    between atoms: N_14  and  C_15 
REMARK    6  A    between atoms: C_15  and  C_16 
REMARK    7  A    between atoms: C_16  and  C_17 
REMARK    8  A    between atoms: C_19  and  O_20 
REMARK    9  A    between atoms: C_22  and  O_23 
REMARK   10  A    between atoms: C_31  and  N_32 
ROOT
HETATM    1  N   UNL     1      42.584 -15.469   3.888  1.00  0.00    -0.275 N 
HETATM    2  C   UNL     1      43.268 -15.426   5.132  1.00  0.00     0.177 A 
HETATM    3  N   UNL     1      43.933 -16.417   5.676  1.00  0.00    -0.204 NA
HETATM    4  C   UNL     1      43.932 -17.547   4.937  1.00  0.00     0.162 A 
HETATM    5  C   UNL     1      43.328 -17.799   3.735  1.00  0.00     0.081 A 
HETATM    6  C   UNL     1      42.581 -16.726   3.150  1.00  0.00     0.124 A 
HETATM    7  N   UNL     1      44.577 -18.703   5.265  1.00  0.00    -0.260 N 
HETATM    8  H   UNL     1      45.141 -18.889   6.086  1.00  0.00     0.191 HD
HETATM    9  N   UNL     1      44.408 -19.679   4.346  1.00  0.00    -0.177 NA
HETATM   10  C   UNL     1      43.642 -19.122   3.394  1.00  0.00     0.068 A 
HETATM   11  C   UNL     1      43.267 -19.919   2.203  1.00  0.00     0.073 C 
ENDROOT
BRANCH   2  12
HETATM   12  S   UNL     1      43.273 -13.929   6.086  1.00  0.00    -0.082 SA
BRANCH  12  13
HETATM   13  C   UNL     1      44.583 -14.349   7.273  1.00  0.00     0.185 C 
BRANCH  13  14
HETATM   14  C   UNL     1      45.691 -13.305   7.298  1.00  0.00     0.227 C 
HETATM   15  N   UNL     1      45.796 -12.505   8.411  1.00  0.00    -0.360 N 
HETATM   16  H   UNL     1      46.521 -11.800   8.318  1.00  0.00     0.162 HD
HETATM   17  O   UNL     1      46.521 -13.165   6.403  1.00  0.00    -0.273 OA
BRANCH  15  18
HETATM   18  C   UNL     1      44.832 -12.393   9.489  1.00  0.00     0.127 C 
BRANCH  18  19
HETATM   19  C   UNL     1      45.185 -11.309  10.507  1.00  0.00     0.058 C 
BRANCH  19  20
HETATM   20  C   UNL     1      43.936 -10.591  10.956  1.00  0.00    -0.054 A 
HETATM   21  C   UNL     1      42.841 -10.457  10.085  1.00  0.00     0.046 A 
HETATM   22  C   UNL     1      41.713  -9.717  10.462  1.00  0.00     0.102 A 
HETATM   23  C   UNL     1      41.677  -9.100  11.728  1.00  0.00     0.101 A 
HETATM   24  C   UNL     1      42.758  -9.252  12.601  1.00  0.00     0.040 A 
HETATM   25  C   UNL     1      43.880  -9.990  12.216  1.00  0.00     0.010 A 
BRANCH  22  26
HETATM   26  O   UNL     1      40.615  -9.517   9.663  1.00  0.00    -0.353 OA
HETATM   27  C   UNL     1      40.107 -10.630   8.942  1.00  0.00     0.210 C 
ENDBRANCH  22  26
BRANCH  23  28
HETATM   28  O   UNL     1      40.545  -8.378  12.016  1.00  0.00    -0.353 OA
HETATM   29  C   UNL     1      40.675  -7.276  12.902  1.00  0.00     0.210 C 
ENDBRANCH  23  28
ENDBRANCH  19  20
ENDBRANCH  18  19
ENDBRANCH  15  18
ENDBRANCH  13  14
ENDBRANCH  12  13
ENDBRANCH   2  12
BRANCH   1  30
HETATM   30  C   UNL     1      41.942 -14.312   3.345  1.00  0.00     0.051 A 
HETATM   31  C   UNL     1      40.682 -13.878   3.824  1.00  0.00    -0.013 A 
HETATM   32  C   UNL     1      39.922 -14.673   4.858  1.00  0.00     0.052 C 
HETATM   33  C   UNL     1      40.158 -12.668   3.330  1.00  0.00     0.042 A 
HETATM   34 CL   UNL     1      38.668 -12.017   3.917  1.00  0.00    -0.084 Cl
HETATM   35  C   UNL     1      40.842 -11.929   2.362  1.00  0.00     0.024 A 
HETATM   36  C   UNL     1      42.069 -12.373   1.878  1.00  0.00     0.004 A 
HETATM   37  C   UNL     1      42.621 -13.550   2.377  1.00  0.00     0.031 A 
ENDBRANCH   1  30
BRANCH   6  38
HETATM   38  N   UNL     1      41.919 -16.889   2.020  1.00  0.00    -0.384 N 
HETATM   39  H   UNL     1      41.368 -17.715   1.839  1.00  0.00     0.157 HD
HETATM   40  H   UNL     1      41.942 -16.166   1.312  1.00  0.00     0.157 HD
ENDBRANCH   6  38
TORSDOF 10
ENDMDL
MODEL 8
REMARK VINA RESULT:      -8.1      2.116      2.968
REMARK  10 active torsions:
REMARK  status: ('A' for Active; 'I' for Inactive)
REMARK    1  A    between atoms: C_8  and  N_9 
REMARK    2  A    between atoms: C_10  and  S_11 
REMARK    3  A    between atoms: S_11  and  C_12 
REMARK    4  A    between atoms: C_12  and  C_13 
REMARK       I    between atoms: C_13  and  N_14 
REMARK    5  A    between atoms: N_14  and  C_15 
REMARK    6  A    between atoms: C_15  and  C_16 
REMARK    7  A    between atoms: C_16  and  C_17 
REMARK    8  A    between atoms: C_19  and  O_20 
REMARK    9  A    between atoms: C_22  and  O_23 
REMARK   10  A    between atoms: C_31  and  N_32 
ROOT
HETATM    1  N   UNL     1      41.852 -14.398   4.916  1.00  0.00    -0.275 N 
HETATM    2  C   UNL     1      42.697 -13.773   5.872  1.00  0.00     0.177 A 
HETATM    3  N   UNL     1      42.530 -12.574   6.375  1.00  0.00    -0.204 NA
HETATM    4  C   UNL     1      41.440 -11.931   5.906  1.00  0.00     0.162 A 
HETATM    5  C   UNL     1      40.518 -12.344   4.982  1.00  0.00     0.081 A 
HETATM    6  C   UNL     1      40.710 -13.644   4.413  1.00  0.00     0.124 A 
HETATM    7  N   UNL     1      41.028 -10.690   6.294  1.00  0.00    -0.260 N 
HETATM    8  H   UNL     1      41.460 -10.077   6.976  1.00  0.00     0.191 HD
HETATM    9  N   UNL     1      39.903 -10.286   5.664  1.00  0.00    -0.177 NA
HETATM   10  C   UNL     1      39.580 -11.310   4.856  1.00  0.00     0.068 A 
HETATM   11  C   UNL     1      38.367 -11.214   4.010  1.00  0.00     0.073 C 
ENDROOT
BRANCH   2  12
HETATM   12  S   UNL     1      44.120 -14.636   6.491  1.00  0.00    -0.082 SA
BRANCH  12  13
HETATM   13  C   UNL     1      44.427 -13.648   7.985  1.00  0.00     0.185 C 
BRANCH  13  14
HETATM   14  C   UNL     1      45.744 -12.886   7.907  1.00  0.00     0.227 C 
HETATM   15  N   UNL     1      46.180 -12.240   9.039  1.00  0.00    -0.360 N 
HETATM   16  H   UNL     1      47.033 -11.710   8.882  1.00  0.00     0.162 HD
HETATM   17  O   UNL     1      46.459 -12.853   6.908  1.00  0.00    -0.273 OA
BRANCH  15  18
HETATM   18  C   UNL     1      45.421 -12.017  10.254  1.00  0.00     0.127 C 
BRANCH  18  19
HETATM   19  C   UNL     1      45.046 -10.551  10.474  1.00  0.00     0.058 C 
BRANCH  19  20
HETATM   20  C   UNL     1      43.589 -10.438  10.851  1.00  0.00    -0.054 A 
HETATM   21  C   UNL     1      43.216 -10.146  12.173  1.00  0.00     0.046 A 
HETATM   22  C   UNL     1      41.867 -10.126  12.549  1.00  0.00     0.102 A 
HETATM   23  C   UNL     1      40.873 -10.405  11.591  1.00  0.00     0.101 A 
HETATM   24  C   UNL     1      41.245 -10.675  10.270  1.00  0.00     0.040 A 
HETATM   25  C   UNL     1      42.593 -10.695   9.905  1.00  0.00     0.010 A 
BRANCH  22  26
HETATM   26  O   UNL     1      41.421  -9.874  13.823  1.00  0.00    -0.353 OA
HETATM   27  C   UNL     1      42.374  -9.889  14.875  1.00  0.00     0.210 C 
ENDBRANCH  22  26
BRANCH  23  28
HETATM   28  O   UNL     1      39.576 -10.384  12.041  1.00  0.00    -0.353 OA
HETATM   29  C   UNL     1      38.724  -9.361  11.546  1.00  0.00     0.210 C 
ENDBRANCH  23  28
ENDBRANCH  19  20
ENDBRANCH  18  19
ENDBRANCH  15  18
ENDBRANCH  13  14
ENDBRANCH  12  13
ENDBRANCH   2  12
BRANCH   1  30
HETATM   30  C   UNL     1      42.081 -15.740   4.477  1.00  0.00     0.051 A 
HETATM   31  C   UNL     1      42.915 -16.017   3.367  1.00  0.00    -0.013 A 
HETATM   32  C   UNL     1      43.518 -14.906   2.544  1.00  0.00     0.052 C 
HETATM   33  C   UNL     1      43.193 -17.363   3.058  1.00  0.00     0.042 A 
HETATM   34 CL   UNL     1      44.266 -17.798   1.774  1.00  0.00    -0.084 Cl
HETATM   35  C   UNL     1      42.629 -18.404   3.801  1.00  0.00     0.024 A 
HETATM   36  C   UNL     1      41.792 -18.124   4.876  1.00  0.00     0.004 A 
HETATM   37  C   UNL     1      41.530 -16.801   5.220  1.00  0.00     0.031 A 
ENDBRANCH   1  30
BRANCH   6  38
HETATM   38  N   UNL     1      39.906 -14.108   3.475  1.00  0.00    -0.384 N 
HETATM   39  H   UNL     1      39.347 -13.494   2.901  1.00  0.00     0.157 HD
HETATM   40  H   UNL     1      39.850 -15.104   3.305  1.00  0.00     0.157 HD
ENDBRANCH   6  38
TORSDOF 10
ENDMDL
MODEL 9
REMARK VINA RESULT:      -8.0      6.132      8.558
REMARK  10 active torsions:
REMARK  status: ('A' for Active; 'I' for Inactive)
REMARK    1  A    between atoms: C_8  and  N_9 
REMARK    2  A    between atoms: C_10  and  S_11 
REMARK    3  A    between atoms: S_11  and  C_12 
REMARK    4  A    between atoms: C_12  and  C_13 
REMARK       I    between atoms: C_13  and  N_14 
REMARK    5  A    between atoms: N_14  and  C_15 
REMARK    6  A    between atoms: C_15  and  C_16 
REMARK    7  A    between atoms: C_16  and  C_17 
REMARK    8  A    between atoms: C_19  and  O_20 
REMARK    9  A    between atoms: C_22  and  O_23 
REMARK   10  A    between atoms: C_31  and  N_32 
ROOT
HETATM    1  N   UNL     1      40.682 -13.186  -1.530  1.00  0.00    -0.275 N 
HETATM    2  C   UNL     1      40.711 -13.236  -0.110  1.00  0.00     0.177 A 
HETATM    3  N   UNL     1      41.273 -12.350   0.677  1.00  0.00    -0.204 NA
HETATM    4  C   UNL     1      41.853 -11.324   0.018  1.00  0.00     0.162 A 
HETATM    5  C   UNL     1      41.950 -11.100  -1.329  1.00  0.00     0.081 A 
HETATM    6  C   UNL     1      41.359 -12.078  -2.192  1.00  0.00     0.124 A 
HETATM    7  N   UNL     1      42.472 -10.260   0.605  1.00  0.00    -0.260 N 
HETATM    8  H   UNL     1      42.588 -10.077   1.595  1.00  0.00     0.191 HD
HETATM    9  N   UNL     1      42.967  -9.378  -0.291  1.00  0.00    -0.177 NA
HETATM   10  C   UNL     1      42.640  -9.890  -1.488  1.00  0.00     0.068 A 
HETATM   11  C   UNL     1      43.020  -9.159  -2.720  1.00  0.00     0.073 C 
ENDROOT
BRANCH   2  12
HETATM   12  S   UNL     1      39.931 -14.583   0.743  1.00  0.00    -0.082 SA
BRANCH  12  13
HETATM   13  C   UNL     1      41.364 -15.690   0.902  1.00  0.00     0.185 C 
BRANCH  13  14
HETATM   14  C   UNL     1      41.003 -16.999   1.591  1.00  0.00     0.227 C 
HETATM   15  N   UNL     1      41.060 -17.040   2.963  1.00  0.00    -0.360 N 
HETATM   16  H   UNL     1      40.862 -17.965   3.335  1.00  0.00     0.162 HD
HETATM   17  O   UNL     1      40.623 -18.005   0.995  1.00  0.00    -0.273 OA
BRANCH  15  18
HETATM   18  C   UNL     1      41.635 -16.034   3.836  1.00  0.00     0.127 C 
BRANCH  18  19
HETATM   19  C   UNL     1      43.146 -16.179   4.014  1.00  0.00     0.058 C 
BRANCH  19  20
HETATM   20  C   UNL     1      43.486 -17.585   4.445  1.00  0.00    -0.054 A 
HETATM   21  C   UNL     1      43.387 -17.958   5.796  1.00  0.00     0.046 A 
HETATM   22  C   UNL     1      43.784 -19.234   6.217  1.00  0.00     0.102 A 
HETATM   23  C   UNL     1      44.289 -20.152   5.276  1.00  0.00     0.101 A 
HETATM   24  C   UNL     1      44.367 -19.786   3.929  1.00  0.00     0.040 A 
HETATM   25  C   UNL     1      43.971 -18.511   3.518  1.00  0.00     0.010 A 
BRANCH  22  26
HETATM   26  O   UNL     1      43.743 -19.668   7.519  1.00  0.00    -0.353 OA
HETATM   27  C   UNL     1      44.250 -18.802   8.524  1.00  0.00     0.210 C 
ENDBRANCH  22  26
BRANCH  23  28
HETATM   28  O   UNL     1      44.673 -21.374   5.769  1.00  0.00    -0.353 OA
HETATM   29  C   UNL     1      44.888 -22.423   4.836  1.00  0.00     0.210 C 
ENDBRANCH  23  28
ENDBRANCH  19  20
ENDBRANCH  18  19
ENDBRANCH  15  18
ENDBRANCH  13  14
ENDBRANCH  12  13
ENDBRANCH   2  12
BRANCH   1  30
HETATM   30  C   UNL     1      39.984 -14.169  -2.300  1.00  0.00     0.051 A 
HETATM   31  C   UNL     1      38.649 -13.959  -2.722  1.00  0.00    -0.013 A 
HETATM   32  C   UNL     1      37.877 -12.734  -2.297  1.00  0.00     0.052 C 
HETATM   33  C   UNL     1      38.058 -14.913  -3.575  1.00  0.00     0.042 A 
HETATM   34 CL   UNL     1      36.464 -14.700  -4.209  1.00  0.00    -0.084 Cl
HETATM   35  C   UNL     1      38.755 -16.060  -3.965  1.00  0.00     0.024 A 
HETATM   36  C   UNL     1      40.058 -16.271  -3.526  1.00  0.00     0.004 A 
HETATM   37  C   UNL     1      40.673 -15.325  -2.710  1.00  0.00     0.031 A 
ENDBRANCH   1  30
BRANCH   6  38
HETATM   38  N   UNL     1      41.448 -11.977  -3.504  1.00  0.00    -0.384 N 
HETATM   39  H   UNL     1      41.546 -12.789  -4.096  1.00  0.00     0.157 HD
HETATM   40  H   UNL     1      41.401 -11.067  -3.945  1.00  0.00     0.157 HD
ENDBRANCH   6  38
TORSDOF 10
ENDMDL
MODEL 10
REMARK VINA RESULT:      -8.0      4.685      8.240
REMARK  10 active torsions:
REMARK  status: ('A' for Active; 'I' for Inactive)
REMARK    1  A    between atoms: C_8  and  N_9 
REMARK    2  A    between atoms: C_10  and  S_11 
REMARK    3  A    between atoms: S_11  and  C_12 
REMARK    4  A    between atoms: C_12  and  C_13 
REMARK       I    between atoms: C_13  and  N_14 
REMARK    5  A    between atoms: N_14  and  C_15 
REMARK    6  A    between atoms: C_15  and  C_16 
REMARK    7  A    between atoms: C_16  and  C_17 
REMARK    8  A    between atoms: C_19  and  O_20 
REMARK    9  A    between atoms: C_22  and  O_23 
REMARK   10  A    between atoms: C_31  and  N_32 
ROOT
HETATM    1  N   UNL     1      41.282 -12.245   4.209  1.00  0.00    -0.275 N 
HETATM    2  C   UNL     1      41.346 -12.192   2.790  1.00  0.00     0.177 A 
HETATM    3  N   UNL     1      40.881 -11.224   2.038  1.00  0.00    -0.204 NA
HETATM    4  C   UNL     1      40.309 -10.218   2.733  1.00  0.00     0.162 A 
HETATM    5  C   UNL     1      40.134 -10.085   4.083  1.00  0.00     0.081 A 
HETATM    6  C   UNL     1      40.618 -11.152   4.907  1.00  0.00     0.124 A 
HETATM    7  N   UNL     1      39.783  -9.084   2.188  1.00  0.00    -0.260 N 
HETATM    8  H   UNL     1      39.742  -8.825   1.209  1.00  0.00     0.191 HD
HETATM    9  N   UNL     1      39.273  -8.242   3.114  1.00  0.00    -0.177 NA
HETATM   10  C   UNL     1      39.494  -8.854   4.289  1.00  0.00     0.068 A 
HETATM   11  C   UNL     1      39.069  -8.194   5.545  1.00  0.00     0.073 C 
ENDROOT
BRANCH   2  12
HETATM   12  S   UNL     1      42.114 -13.515   1.890  1.00  0.00    -0.082 SA
BRANCH  12  13
HETATM   13  C   UNL     1      40.632 -14.488   1.489  1.00  0.00     0.185 C 
BRANCH  13  14
HETATM   14  C   UNL     1      40.777 -15.235   0.170  1.00  0.00     0.227 C 
HETATM   15  N   UNL     1      41.120 -16.565   0.219  1.00  0.00    -0.360 N 
HETATM   16  H   UNL     1      41.252 -16.968  -0.704  1.00  0.00     0.162 HD
HETATM   17  O   UNL     1      40.562 -14.731  -0.930  1.00  0.00    -0.273 OA
BRANCH  15  18
HETATM   18  C   UNL     1      41.575 -17.298   1.384  1.00  0.00     0.127 C 
BRANCH  18  19
HETATM   19  C   UNL     1      43.077 -17.163   1.637  1.00  0.00     0.058 C 
BRANCH  19  20
HETATM   20  C   UNL     1      43.565 -18.311   2.488  1.00  0.00    -0.054 A 
HETATM   21  C   UNL     1      43.720 -18.152   3.875  1.00  0.00     0.046 A 
HETATM   22  C   UNL     1      44.255 -19.183   4.658  1.00  0.00     0.102 A 
HETATM   23  C   UNL     1      44.644 -20.391   4.047  1.00  0.00     0.101 A 
HETATM   24  C   UNL     1      44.469 -20.555   2.670  1.00  0.00     0.040 A 
HETATM   25  C   UNL     1      43.937 -19.520   1.896  1.00  0.00     0.010 A 
BRANCH  22  26
HETATM   26  O   UNL     1      44.462 -19.100   6.013  1.00  0.00    -0.353 OA
HETATM   27  C   UNL     1      45.421 -18.164   6.482  1.00  0.00     0.210 C 
ENDBRANCH  22  26
BRANCH  23  28
HETATM   28  O   UNL     1      45.176 -21.345   4.879  1.00  0.00    -0.353 OA
HETATM   29  C   UNL     1      44.707 -22.678   4.736  1.00  0.00     0.210 C 
ENDBRANCH  23  28
ENDBRANCH  19  20
ENDBRANCH  18  19
ENDBRANCH  15  18
ENDBRANCH  13  14
ENDBRANCH  12  13
ENDBRANCH   2  12
BRANCH   1  30
HETATM   30  C   UNL     1      41.879 -13.316   4.946  1.00  0.00     0.051 A 
HETATM   31  C   UNL     1      41.125 -14.450   5.334  1.00  0.00    -0.013 A 
HETATM   32  C   UNL     1      39.642 -14.532   5.071  1.00  0.00     0.052 C 
HETATM   33  C   UNL     1      41.798 -15.521   5.955  1.00  0.00     0.042 A 
HETATM   34 CL   UNL     1      40.978 -16.979   6.389  1.00  0.00    -0.084 Cl
HETATM   35  C   UNL     1      43.168 -15.454   6.220  1.00  0.00     0.024 A 
HETATM   36  C   UNL     1      43.898 -14.326   5.857  1.00  0.00     0.004 A 
HETATM   37  C   UNL     1      43.260 -13.270   5.212  1.00  0.00     0.031 A 
ENDBRANCH   1  30
BRANCH   6  38
HETATM   38  N   UNL     1      40.446 -11.140   6.215  1.00  0.00    -0.384 N 
HETATM   39  H   UNL     1      39.951 -10.395   6.681  1.00  0.00     0.157 HD
HETATM   40  H   UNL     1      40.802 -11.902   6.778  1.00  0.00     0.157 HD
ENDBRANCH   6  38
TORSDOF 10
ENDMDL
