MODEL 1
REMARK VINA RESULT:      -9.2      0.000      0.000
REMARK  8 active torsions:
REMARK  status: ('A' for Active; 'I' for Inactive)
REMARK    1  A    between atoms: N_2  and  C_4 
REMARK    2  A    between atoms: N_2  and  C_27 
REMARK    3  A    between atoms: C_4  and  C_5 
REMARK    4  A    between atoms: C_8  and  C_9 
REMARK    5  A    between atoms: C_9  and  N_10 
REMARK       I    between atoms: N_10  and  C_11 
REMARK    6  A    between atoms: C_11  and  C_12 
REMARK    7  A    between atoms: C_27  and  C_28 
REMARK    8  A    between atoms: C_28  and  C_29 
ROOT
HETATM    1  C   UNL     1      42.380 -15.209   4.703  1.00  0.00     0.041 C 
HETATM    2  C   UNL     1      40.875 -15.492   4.413  1.00  0.00    -0.004 C 
HETATM    3  C   UNL     1      40.730 -16.336   3.120  1.00  0.00     0.040 C 
HETATM    4  C   UNL     1      41.152 -15.506   1.892  1.00  0.00     0.206 C 
HETATM    5  N   UNL     1      41.917 -14.304   2.441  1.00  0.00    -0.065 N 
HETATM    6  H   UNL     1      42.397 -13.842   1.642  1.00  0.00     0.280 HD
HETATM    7  C   UNL     1      43.019 -14.682   3.410  1.00  0.00     0.242 C 
HETATM    8  C   UNL     1      40.192 -14.122   4.167  1.00  0.00     0.032 C 
HETATM    9  C   UNL     1      40.943 -13.339   3.080  1.00  0.00     0.236 C 
ENDROOT
BRANCH   4  10
HETATM   10  C   UNL     1      41.944 -16.306   0.828  1.00  0.00     0.156 C 
BRANCH  10  11
HETATM   11  N   UNL     1      42.376 -17.627   1.271  1.00  0.00    -0.355 N 
HETATM   12  C   UNL     1      43.694 -17.921   1.551  1.00  0.00     0.251 C 
HETATM   13  O   UNL     1      44.602 -17.145   1.267  1.00  0.00    -0.268 OA
HETATM   14  H   UNL     1      41.670 -18.236   1.680  1.00  0.00     0.162 HD
BRANCH  12  15
HETATM   15  C   UNL     1      43.975 -19.235   2.178  1.00  0.00     0.034 A 
HETATM   16  C   UNL     1      44.416 -19.319   3.505  1.00  0.00     0.056 A 
HETATM   17  C   UNL     1      44.607 -20.580   4.028  1.00  0.00     0.106 A 
HETATM   18  C   UNL     1      44.385 -21.718   3.292  1.00  0.00     0.105 A 
HETATM   19  O   UNL     1      45.010 -20.853   5.297  1.00  0.00    -0.323 OA
HETATM   20  O   UNL     1      44.626 -22.850   4.003  1.00  0.00    -0.323 OA
HETATM   21  C   UNL     1      43.951 -21.666   1.985  1.00  0.00     0.041 A 
HETATM   22  C   UNL     1      45.008 -22.300   5.282  1.00  0.00     0.352 A 
HETATM   23  C   UNL     1      43.735 -20.403   1.423  1.00  0.00     0.020 A 
ENDBRANCH  12  15
ENDBRANCH  10  11
ENDBRANCH   4  10
BRANCH   1  24
HETATM   24  C   UNL     1      43.110 -16.428   5.305  1.00  0.00     0.241 C 
BRANCH  24  25
HETATM   25  N   UNL     1      44.303 -16.088   6.170  1.00  0.00    -0.074 N 
HETATM   26  C   UNL     1      44.851 -17.334   6.839  1.00  0.00     0.269 C 
HETATM   27  H   UNL     1      45.091 -15.735   5.584  1.00  0.00     0.279 HD
BRANCH  25  28
HETATM   28  C   UNL     1      44.075 -14.963   7.180  1.00  0.00     0.240 C 
BRANCH  28  29
HETATM   29  C   UNL     1      45.161 -13.879   7.113  1.00  0.00     0.087 C 
BRANCH  29  30
HETATM   30  C   UNL     1      45.239 -13.000   8.343  1.00  0.00     0.035 A 
HETATM   31  N   UNL     1      44.382 -13.263   9.375  1.00  0.00    -0.266 NA
HETATM   32  C   UNL     1      44.422 -12.400  10.428  1.00  0.00     0.117 A 
HETATM   33  C   UNL     1      45.264 -11.306  10.507  1.00  0.00     0.019 A 
HETATM   34  C   UNL     1      46.122 -11.061   9.443  1.00  0.00     0.003 A 
HETATM   35  C   UNL     1      46.107 -11.910   8.342  1.00  0.00     0.027 A 
ENDBRANCH  29  30
ENDBRANCH  28  29
ENDBRANCH  25  28
ENDBRANCH  24  25
ENDBRANCH   1  24
TORSDOF 8
ENDMDL
MODEL 2
REMARK VINA RESULT:      -8.6      2.458      4.036
REMARK  8 active torsions:
REMARK  status: ('A' for Active; 'I' for Inactive)
REMARK    1  A    between atoms: N_2  and  C_4 
REMARK    2  A    between atoms: N_2  and  C_27 
REMARK    3  A    between atoms: C_4  and  C_5 
REMARK    4  A    between atoms: C_8  and  C_9 
REMARK    5  A    between atoms: C_9  and  N_10 
REMARK       I    between atoms: N_10  and  C_11 
REMARK    6  A    between atoms: C_11  and  C_12 
REMARK    7  A    between atoms: C_27  and  C_28 
REMARK    8  A    between atoms: C_28  and  C_29 
ROOT
HETATM    1  C   UNL     1      39.608 -13.109   2.347  1.00  0.00     0.041 C 
HETATM    2  C   UNL     1      38.959 -14.513   2.149  1.00  0.00    -0.004 C 
HETATM    3  C   UNL     1      40.026 -15.531   1.669  1.00  0.00     0.040 C 
HETATM    4  C   UNL     1      40.494 -15.180   0.244  1.00  0.00     0.206 C 
HETATM    5  N   UNL     1      40.024 -13.750  -0.013  1.00  0.00    -0.065 N 
HETATM    6  H   UNL     1      40.503 -13.408  -0.871  1.00  0.00     0.280 HD
HETATM    7  C   UNL     1      40.416 -12.781   1.084  1.00  0.00     0.242 C 
HETATM    8  C   UNL     1      37.897 -14.371   1.027  1.00  0.00     0.032 C 
HETATM    9  C   UNL     1      38.526 -13.745  -0.227  1.00  0.00     0.236 C 
ENDROOT
BRANCH   4  10
HETATM   10  C   UNL     1      42.012 -15.380   0.008  1.00  0.00     0.156 C 
BRANCH  10  11
HETATM   11  N   UNL     1      42.562 -16.579   0.631  1.00  0.00    -0.355 N 
HETATM   12  C   UNL     1      43.218 -16.551   1.843  1.00  0.00     0.251 C 
HETATM   13  O   UNL     1      43.539 -15.492   2.378  1.00  0.00    -0.268 OA
HETATM   14  H   UNL     1      42.184 -17.476   0.331  1.00  0.00     0.162 HD
BRANCH  12  15
HETATM   15  C   UNL     1      43.555 -17.855   2.461  1.00  0.00     0.034 A 
HETATM   16  C   UNL     1      43.548 -19.033   1.703  1.00  0.00     0.056 A 
HETATM   17  C   UNL     1      43.921 -20.197   2.340  1.00  0.00     0.106 A 
HETATM   18  C   UNL     1      44.282 -20.221   3.666  1.00  0.00     0.105 A 
HETATM   19  O   UNL     1      43.993 -21.424   1.761  1.00  0.00    -0.323 OA
HETATM   20  O   UNL     1      44.621 -21.466   4.087  1.00  0.00    -0.323 OA
HETATM   21  C   UNL     1      44.299 -19.078   4.436  1.00  0.00     0.041 A 
HETATM   22  C   UNL     1      44.452 -22.228   2.873  1.00  0.00     0.352 A 
HETATM   23  C   UNL     1      43.936 -17.875   3.819  1.00  0.00     0.020 A 
ENDBRANCH  12  15
ENDBRANCH  10  11
ENDBRANCH   4  10
BRANCH   1  24
HETATM   24  C   UNL     1      40.425 -13.010   3.652  1.00  0.00     0.241 C 
BRANCH  24  25
HETATM   25  N   UNL     1      39.614 -13.164   4.920  1.00  0.00    -0.074 N 
HETATM   26  C   UNL     1      39.797 -11.959   5.821  1.00  0.00     0.269 C 
HETATM   27  H   UNL     1      38.594 -13.180   4.702  1.00  0.00     0.279 HD
BRANCH  25  28
HETATM   28  C   UNL     1      39.838 -14.472   5.680  1.00  0.00     0.240 C 
BRANCH  28  29
HETATM   29  C   UNL     1      40.936 -15.342   5.051  1.00  0.00     0.087 C 
BRANCH  29  30
HETATM   30  C   UNL     1      41.982 -15.828   6.030  1.00  0.00     0.035 A 
HETATM   31  N   UNL     1      43.171 -15.155   6.085  1.00  0.00    -0.266 NA
HETATM   32  C   UNL     1      44.120 -15.671   6.915  1.00  0.00     0.117 A 
HETATM   33  C   UNL     1      43.946 -16.806   7.686  1.00  0.00     0.019 A 
HETATM   34  C   UNL     1      42.731 -17.472   7.607  1.00  0.00     0.003 A 
HETATM   35  C   UNL     1      41.737 -16.986   6.765  1.00  0.00     0.027 A 
ENDBRANCH  29  30
ENDBRANCH  28  29
ENDBRANCH  25  28
ENDBRANCH  24  25
ENDBRANCH   1  24
TORSDOF 8
ENDMDL
MODEL 3
REMARK VINA RESULT:      -8.5      4.287      9.514
REMARK  8 active torsions:
REMARK  status: ('A' for Active; 'I' for Inactive)
REMARK    1  A    between atoms: N_2  and  C_4 
REMARK    2  A    between atoms: N_2  and  C_27 
REMARK    3  A    between atoms: C_4  and  C_5 
REMARK    4  A    between atoms: C_8  and  C_9 
REMARK    5  A    between atoms: C_9  and  N_10 
REMARK       I    between atoms: N_10  and  C_11 
REMARK    6  A    between atoms: C_11  and  C_12 
REMARK    7  A    between atoms: C_27  and  C_28 
REMARK    8  A    between atoms: C_28  and  C_29 
ROOT
HETATM    1  C   UNL     1      43.039 -16.808   5.361  1.00  0.00     0.041 C 
HETATM    2  C   UNL     1      43.204 -15.617   4.367  1.00  0.00    -0.004 C 
HETATM    3  C   UNL     1      44.183 -14.566   4.952  1.00  0.00     0.040 C 
HETATM    4  C   UNL     1      43.557 -13.883   6.183  1.00  0.00     0.206 C 
HETATM    5  N   UNL     1      42.379 -14.761   6.597  1.00  0.00    -0.065 N 
HETATM    6  H   UNL     1      42.069 -14.452   7.541  1.00  0.00     0.280 HD
HETATM    7  C   UNL     1      42.742 -16.225   6.750  1.00  0.00     0.242 C 
HETATM    8  C   UNL     1      41.814 -14.947   4.223  1.00  0.00     0.032 C 
HETATM    9  C   UNL     1      41.249 -14.586   5.605  1.00  0.00     0.236 C 
ENDROOT
BRANCH   4  10
HETATM   10  C   UNL     1      44.557 -13.612   7.335  1.00  0.00     0.156 C 
BRANCH  10  11
HETATM   11  N   UNL     1      43.981 -12.901   8.472  1.00  0.00    -0.355 N 
HETATM   12  C   UNL     1      44.564 -11.776   9.015  1.00  0.00     0.251 C 
HETATM   13  O   UNL     1      45.694 -11.416   8.694  1.00  0.00    -0.268 OA
HETATM   14  H   UNL     1      42.991 -13.045   8.659  1.00  0.00     0.162 HD
BRANCH  12  15
HETATM   15  C   UNL     1      43.784 -11.036  10.036  1.00  0.00     0.034 A 
HETATM   16  C   UNL     1      42.430 -10.744   9.832  1.00  0.00     0.056 A 
HETATM   17  C   UNL     1      41.763 -10.096  10.851  1.00  0.00     0.106 A 
HETATM   18  C   UNL     1      42.388  -9.739  12.022  1.00  0.00     0.105 A 
HETATM   19  O   UNL     1      40.448  -9.753  10.839  1.00  0.00    -0.323 OA
HETATM   20  O   UNL     1      41.546  -9.121  12.890  1.00  0.00    -0.323 OA
HETATM   21  C   UNL     1      43.719 -10.014  12.249  1.00  0.00     0.041 A 
HETATM   22  C   UNL     1      40.310  -9.143  12.144  1.00  0.00     0.352 A 
HETATM   23  C   UNL     1      44.425 -10.681  11.241  1.00  0.00     0.020 A 
ENDBRANCH  12  15
ENDBRANCH  10  11
ENDBRANCH   4  10
BRANCH   1  24
HETATM   24  C   UNL     1      44.241 -17.775   5.336  1.00  0.00     0.241 C 
BRANCH  24  25
HETATM   25  N   UNL     1      43.878 -19.231   5.151  1.00  0.00    -0.074 N 
HETATM   26  C   UNL     1      43.721 -19.917   6.494  1.00  0.00     0.269 C 
HETATM   27  H   UNL     1      42.944 -19.321   4.697  1.00  0.00     0.279 HD
BRANCH  25  28
HETATM   28  C   UNL     1      44.805 -20.020   4.225  1.00  0.00     0.240 C 
BRANCH  28  29
HETATM   29  C   UNL     1      44.203 -20.233   2.828  1.00  0.00     0.087 C 
BRANCH  29  30
HETATM   30  C   UNL     1      43.517 -19.013   2.253  1.00  0.00     0.035 A 
HETATM   31  N   UNL     1      42.152 -18.954   2.318  1.00  0.00    -0.266 NA
HETATM   32  C   UNL     1      41.564 -17.883   1.715  1.00  0.00     0.117 A 
HETATM   33  C   UNL     1      42.257 -16.879   1.064  1.00  0.00     0.019 A 
HETATM   34  C   UNL     1      43.641 -16.966   1.009  1.00  0.00     0.003 A 
HETATM   35  C   UNL     1      44.283 -18.048   1.602  1.00  0.00     0.027 A 
ENDBRANCH  29  30
ENDBRANCH  28  29
ENDBRANCH  25  28
ENDBRANCH  24  25
ENDBRANCH   1  24
TORSDOF 8
ENDMDL
MODEL 4
REMARK VINA RESULT:      -8.5      3.619      7.648
REMARK  8 active torsions:
REMARK  status: ('A' for Active; 'I' for Inactive)
REMARK    1  A    between atoms: N_2  and  C_4 
REMARK    2  A    between atoms: N_2  and  C_27 
REMARK    3  A    between atoms: C_4  and  C_5 
REMARK    4  A    between atoms: C_8  and  C_9 
REMARK    5  A    between atoms: C_9  and  N_10 
REMARK       I    between atoms: N_10  and  C_11 
REMARK    6  A    between atoms: C_11  and  C_12 
REMARK    7  A    between atoms: C_27  and  C_28 
REMARK    8  A    between atoms: C_28  and  C_29 
ROOT
HETATM    1  C   UNL     1      41.087 -13.194   0.560  1.00  0.00     0.041 C 
HETATM    2  C   UNL     1      40.394 -12.942   1.934  1.00  0.00    -0.004 C 
HETATM    3  C   UNL     1      41.330 -13.377   3.092  1.00  0.00     0.040 C 
HETATM    4  C   UNL     1      41.508 -14.907   3.088  1.00  0.00     0.206 C 
HETATM    5  N   UNL     1      41.015 -15.383   1.724  1.00  0.00    -0.065 N 
HETATM    6  H   UNL     1      41.316 -16.372   1.605  1.00  0.00     0.280 HD
HETATM    7  C   UNL     1      41.631 -14.630   0.562  1.00  0.00     0.242 C 
HETATM    8  C   UNL     1      39.131 -13.842   1.979  1.00  0.00     0.032 C 
HETATM    9  C   UNL     1      39.504 -15.301   1.680  1.00  0.00     0.236 C 
ENDROOT
BRANCH   4  10
HETATM   10  C   UNL     1      42.945 -15.379   3.421  1.00  0.00     0.156 C 
BRANCH  10  11
HETATM   11  N   UNL     1      43.104 -16.829   3.466  1.00  0.00    -0.355 N 
HETATM   12  C   UNL     1      43.659 -17.547   2.429  1.00  0.00     0.251 C 
HETATM   13  O   UNL     1      43.883 -17.033   1.336  1.00  0.00    -0.268 OA
HETATM   14  H   UNL     1      43.100 -17.270   4.384  1.00  0.00     0.162 HD
BRANCH  12  15
HETATM   15  C   UNL     1      43.943 -18.981   2.675  1.00  0.00     0.034 A 
HETATM   16  C   UNL     1      44.442 -19.413   3.910  1.00  0.00     0.056 A 
HETATM   17  C   UNL     1      44.633 -20.769   4.074  1.00  0.00     0.106 A 
HETATM   18  C   UNL     1      44.355 -21.672   3.077  1.00  0.00     0.105 A 
HETATM   19  O   UNL     1      45.088 -21.369   5.206  1.00  0.00    -0.323 OA
HETATM   20  O   UNL     1      44.607 -22.952   3.454  1.00  0.00    -0.323 OA
HETATM   21  C   UNL     1      43.863 -21.275   1.852  1.00  0.00     0.041 A 
HETATM   22  C   UNL     1      45.057 -22.761   4.812  1.00  0.00     0.352 A 
HETATM   23  C   UNL     1      43.647 -19.907   1.652  1.00  0.00     0.020 A 
ENDBRANCH  12  15
ENDBRANCH  10  11
ENDBRANCH   4  10
BRANCH   1  24
HETATM   24  C   UNL     1      42.150 -12.126   0.226  1.00  0.00     0.241 C 
BRANCH  24  25
HETATM   25  N   UNL     1      42.464 -11.986  -1.247  1.00  0.00    -0.074 N 
HETATM   26  C   UNL     1      43.308 -10.752  -1.498  1.00  0.00     0.269 C 
HETATM   27  H   UNL     1      43.054 -12.781  -1.573  1.00  0.00     0.279 HD
BRANCH  25  28
HETATM   28  C   UNL     1      41.252 -12.034  -2.178  1.00  0.00     0.240 C 
BRANCH  28  29
HETATM   29  C   UNL     1      41.372 -13.128  -3.249  1.00  0.00     0.087 C 
BRANCH  29  30
HETATM   30  C   UNL     1      40.139 -13.994  -3.396  1.00  0.00     0.035 A 
HETATM   31  N   UNL     1      40.302 -15.265  -3.875  1.00  0.00    -0.266 NA
HETATM   32  C   UNL     1      39.164 -15.985  -4.074  1.00  0.00     0.117 A 
HETATM   33  C   UNL     1      37.889 -15.514  -3.819  1.00  0.00     0.019 A 
HETATM   34  C   UNL     1      37.753 -14.219  -3.337  1.00  0.00     0.003 A 
HETATM   35  C   UNL     1      38.888 -13.443  -3.129  1.00  0.00     0.027 A 
ENDBRANCH  29  30
ENDBRANCH  28  29
ENDBRANCH  25  28
ENDBRANCH  24  25
ENDBRANCH   1  24
TORSDOF 8
ENDMDL
MODEL 5
REMARK VINA RESULT:      -8.5      3.581      7.924
REMARK  8 active torsions:
REMARK  status: ('A' for Active; 'I' for Inactive)
REMARK    1  A    between atoms: N_2  and  C_4 
REMARK    2  A    between atoms: N_2  and  C_27 
REMARK    3  A    between atoms: C_4  and  C_5 
REMARK    4  A    between atoms: C_8  and  C_9 
REMARK    5  A    between atoms: C_9  and  N_10 
REMARK       I    between atoms: N_10  and  C_11 
REMARK    6  A    between atoms: C_11  and  C_12 
REMARK    7  A    between atoms: C_27  and  C_28 
REMARK    8  A    between atoms: C_28  and  C_29 
ROOT
HETATM    1  C   UNL     1      42.132 -17.083   4.508  1.00  0.00     0.041 C 
HETATM    2  C   UNL     1      41.271 -16.724   5.757  1.00  0.00    -0.004 C 
HETATM    3  C   UNL     1      40.894 -15.220   5.732  1.00  0.00     0.040 C 
HETATM    4  C   UNL     1      42.151 -14.353   5.938  1.00  0.00     0.206 C 
HETATM    5  N   UNL     1      43.342 -15.277   5.703  1.00  0.00    -0.065 N 
HETATM    6  H   UNL     1      44.193 -14.684   5.621  1.00  0.00     0.280 HD
HETATM    7  C   UNL     1      43.261 -16.048   4.400  1.00  0.00     0.242 C 
HETATM    8  C   UNL     1      42.155 -16.974   7.007  1.00  0.00     0.032 C 
HETATM    9  C   UNL     1      43.486 -16.220   6.878  1.00  0.00     0.236 C 
ENDROOT
BRANCH   4  10
HETATM   10  C   UNL     1      42.186 -13.071   5.068  1.00  0.00     0.156 C 
BRANCH  10  11
HETATM   11  N   UNL     1      41.261 -13.088   3.939  1.00  0.00    -0.355 N 
HETATM   12  C   UNL     1      41.687 -13.201   2.633  1.00  0.00     0.251 C 
HETATM   13  O   UNL     1      42.874 -13.108   2.332  1.00  0.00    -0.268 OA
HETATM   14  H   UNL     1      40.293 -13.339   4.134  1.00  0.00     0.162 HD
BRANCH  12  15
HETATM   15  C   UNL     1      40.646 -13.404   1.598  1.00  0.00     0.034 A 
HETATM   16  C   UNL     1      40.953 -13.279   0.237  1.00  0.00     0.056 A 
HETATM   17  C   UNL     1      39.940 -13.532  -0.664  1.00  0.00     0.106 A 
HETATM   18  C   UNL     1      38.675 -13.887  -0.262  1.00  0.00     0.105 A 
HETATM   19  O   UNL     1      40.059 -13.480  -2.017  1.00  0.00    -0.323 OA
HETATM   20  O   UNL     1      37.838 -14.097  -1.310  1.00  0.00    -0.323 OA
HETATM   21  C   UNL     1      38.346 -14.017   1.070  1.00  0.00     0.041 A 
HETATM   22  C   UNL     1      38.722 -13.854  -2.426  1.00  0.00     0.352 A 
HETATM   23  C   UNL     1      39.351 -13.779   2.014  1.00  0.00     0.020 A 
ENDBRANCH  12  15
ENDBRANCH  10  11
ENDBRANCH   4  10
BRANCH   1  24
HETATM   24  C   UNL     1      41.289 -17.220   3.223  1.00  0.00     0.241 C 
BRANCH  24  25
HETATM   25  N   UNL     1      42.085 -17.514   1.971  1.00  0.00    -0.074 N 
HETATM   26  C   UNL     1      41.348 -17.022   0.741  1.00  0.00     0.269 C 
HETATM   27  H   UNL     1      42.981 -16.980   1.974  1.00  0.00     0.279 HD
BRANCH  25  28
HETATM   28  C   UNL     1      42.533 -18.967   1.812  1.00  0.00     0.240 C 
BRANCH  28  29
HETATM   29  C   UNL     1      44.033 -19.156   2.080  1.00  0.00     0.087 C 
BRANCH  29  30
HETATM   30  C   UNL     1      44.358 -20.286   3.034  1.00  0.00     0.035 A 
HETATM   31  N   UNL     1      44.408 -21.556   2.530  1.00  0.00    -0.266 NA
HETATM   32  C   UNL     1      44.618 -22.555   3.431  1.00  0.00     0.117 A 
HETATM   33  C   UNL     1      44.784 -22.357   4.790  1.00  0.00     0.019 A 
HETATM   34  C   UNL     1      44.724 -21.057   5.275  1.00  0.00     0.003 A 
HETATM   35  C   UNL     1      44.501 -20.007   4.391  1.00  0.00     0.027 A 
ENDBRANCH  29  30
ENDBRANCH  28  29
ENDBRANCH  25  28
ENDBRANCH  24  25
ENDBRANCH   1  24
TORSDOF 8
ENDMDL
MODEL 6
REMARK VINA RESULT:      -8.5      1.556      2.252
REMARK  8 active torsions:
REMARK  status: ('A' for Active; 'I' for Inactive)
REMARK    1  A    between atoms: N_2  and  C_4 
REMARK    2  A    between atoms: N_2  and  C_27 
REMARK    3  A    between atoms: C_4  and  C_5 
REMARK    4  A    between atoms: C_8  and  C_9 
REMARK    5  A    between atoms: C_9  and  N_10 
REMARK       I    between atoms: N_10  and  C_11 
REMARK    6  A    between atoms: C_11  and  C_12 
REMARK    7  A    between atoms: C_27  and  C_28 
REMARK    8  A    between atoms: C_28  and  C_29 
ROOT
HETATM    1  C   UNL     1      42.389 -13.460   5.070  1.00  0.00     0.041 C 
HETATM    2  C   UNL     1      41.110 -14.042   5.747  1.00  0.00    -0.004 C 
HETATM    3  C   UNL     1      40.461 -15.110   4.830  1.00  0.00     0.040 C 
HETATM    4  C   UNL     1      39.890 -14.449   3.561  1.00  0.00     0.206 C 
HETATM    5  N   UNL     1      40.515 -13.057   3.497  1.00  0.00    -0.065 N 
HETATM    6  H   UNL     1      40.323 -12.666   2.551  1.00  0.00     0.280 HD
HETATM    7  C   UNL     1      42.024 -13.066   3.632  1.00  0.00     0.242 C 
HETATM    8  C   UNL     1      40.104 -12.872   5.902  1.00  0.00     0.032 C 
HETATM    9  C   UNL     1      39.884 -12.174   4.552  1.00  0.00     0.236 C 
ENDROOT
BRANCH   4  10
HETATM   10  C   UNL     1      40.096 -15.275   2.267  1.00  0.00     0.156 C 
BRANCH  10  11
HETATM   11  N   UNL     1      40.841 -16.514   2.461  1.00  0.00    -0.355 N 
HETATM   12  C   UNL     1      42.202 -16.601   2.255  1.00  0.00     0.251 C 
HETATM   13  O   UNL     1      42.833 -15.692   1.721  1.00  0.00    -0.268 OA
HETATM   14  H   UNL     1      40.417 -17.227   3.052  1.00  0.00     0.162 HD
BRANCH  12  15
HETATM   15  C   UNL     1      42.870 -17.856   2.673  1.00  0.00     0.034 A 
HETATM   16  C   UNL     1      42.848 -18.991   1.852  1.00  0.00     0.056 A 
HETATM   17  C   UNL     1      43.535 -20.102   2.291  1.00  0.00     0.106 A 
HETATM   18  C   UNL     1      44.215 -20.116   3.485  1.00  0.00     0.105 A 
HETATM   19  O   UNL     1      43.640 -21.279   1.620  1.00  0.00    -0.323 OA
HETATM   20  O   UNL     1      44.827 -21.306   3.718  1.00  0.00    -0.323 OA
HETATM   21  C   UNL     1      44.254 -19.015   4.313  1.00  0.00     0.041 A 
HETATM   22  C   UNL     1      44.475 -22.040   2.526  1.00  0.00     0.352 A 
HETATM   23  C   UNL     1      43.577 -17.864   3.895  1.00  0.00     0.020 A 
ENDBRANCH  12  15
ENDBRANCH  10  11
ENDBRANCH   4  10
BRANCH   1  24
HETATM   24  C   UNL     1      43.599 -14.413   5.166  1.00  0.00     0.241 C 
BRANCH  24  25
HETATM   25  N   UNL     1      44.332 -14.373   6.488  1.00  0.00    -0.074 N 
HETATM   26  C   UNL     1      44.027 -15.612   7.307  1.00  0.00     0.269 C 
HETATM   27  H   UNL     1      45.364 -14.404   6.336  1.00  0.00     0.279 HD
BRANCH  25  28
HETATM   28  C   UNL     1      44.129 -13.097   7.307  1.00  0.00     0.240 C 
BRANCH  28  29
HETATM   29  C   UNL     1      45.246 -12.871   8.337  1.00  0.00     0.087 C 
BRANCH  29  30
HETATM   30  C   UNL     1      44.782 -12.229   9.627  1.00  0.00     0.035 A 
HETATM   31  N   UNL     1      44.440 -13.051  10.664  1.00  0.00    -0.266 NA
HETATM   32  C   UNL     1      43.947 -12.443  11.779  1.00  0.00     0.117 A 
HETATM   33  C   UNL     1      43.785 -11.076  11.914  1.00  0.00     0.019 A 
HETATM   34  C   UNL     1      44.138 -10.266  10.843  1.00  0.00     0.003 A 
HETATM   35  C   UNL     1      44.636 -10.845   9.681  1.00  0.00     0.027 A 
ENDBRANCH  29  30
ENDBRANCH  28  29
ENDBRANCH  25  28
ENDBRANCH  24  25
ENDBRANCH   1  24
TORSDOF 8
ENDMDL
MODEL 7
REMARK VINA RESULT:      -8.4      2.517      6.959
REMARK  8 active torsions:
REMARK  status: ('A' for Active; 'I' for Inactive)
REMARK    1  A    between atoms: N_2  and  C_4 
REMARK    2  A    between atoms: N_2  and  C_27 
REMARK    3  A    between atoms: C_4  and  C_5 
REMARK    4  A    between atoms: C_8  and  C_9 
REMARK    5  A    between atoms: C_9  and  N_10 
REMARK       I    between atoms: N_10  and  C_11 
REMARK    6  A    between atoms: C_11  and  C_12 
REMARK    7  A    between atoms: C_27  and  C_28 
REMARK    8  A    between atoms: C_28  and  C_29 
ROOT
HETATM    1  C   UNL     1      41.241 -14.713   4.067  1.00  0.00     0.041 C 
HETATM    2  C   UNL     1      42.366 -13.678   3.759  1.00  0.00    -0.004 C 
HETATM    3  C   UNL     1      43.636 -14.009   4.584  1.00  0.00     0.040 C 
HETATM    4  C   UNL     1      43.374 -13.773   6.084  1.00  0.00     0.206 C 
HETATM    5  N   UNL     1      41.857 -13.677   6.234  1.00  0.00    -0.065 N 
HETATM    6  H   UNL     1      41.635 -13.733   7.249  1.00  0.00     0.280 HD
HETATM    7  C   UNL     1      41.113 -14.830   5.593  1.00  0.00     0.242 C 
HETATM    8  C   UNL     1      41.847 -12.291   4.217  1.00  0.00     0.032 C 
HETATM    9  C   UNL     1      41.381 -12.351   5.680  1.00  0.00     0.236 C 
ENDROOT
BRANCH   4  10
HETATM   10  C   UNL     1      44.018 -14.831   7.014  1.00  0.00     0.156 C 
BRANCH  10  11
HETATM   11  N   UNL     1      44.354 -16.086   6.351  1.00  0.00    -0.355 N 
HETATM   12  C   UNL     1      43.663 -17.256   6.583  1.00  0.00     0.251 C 
HETATM   13  O   UNL     1      42.847 -17.353   7.496  1.00  0.00    -0.268 OA
HETATM   14  H   UNL     1      44.886 -16.027   5.484  1.00  0.00     0.162 HD
BRANCH  12  15
HETATM   15  C   UNL     1      43.974 -18.410   5.706  1.00  0.00     0.034 A 
HETATM   16  C   UNL     1      44.214 -19.679   6.247  1.00  0.00     0.056 A 
HETATM   17  C   UNL     1      44.446 -20.710   5.360  1.00  0.00     0.106 A 
HETATM   18  C   UNL     1      44.451 -20.516   4.000  1.00  0.00     0.105 A 
HETATM   19  O   UNL     1      44.676 -22.005   5.701  1.00  0.00    -0.323 OA
HETATM   20  O   UNL     1      44.692 -21.664   3.315  1.00  0.00    -0.323 OA
HETATM   21  C   UNL     1      44.218 -19.278   3.440  1.00  0.00     0.041 A 
HETATM   22  C   UNL     1      44.819 -22.613   4.395  1.00  0.00     0.352 A 
HETATM   23  C   UNL     1      43.968 -18.210   4.309  1.00  0.00     0.020 A 
ENDBRANCH  12  15
ENDBRANCH  10  11
ENDBRANCH   4  10
BRANCH   1  24
HETATM   24  C   UNL     1      41.465 -16.064   3.356  1.00  0.00     0.241 C 
BRANCH  24  25
HETATM   25  N   UNL     1      40.481 -16.367   2.248  1.00  0.00    -0.074 N 
HETATM   26  C   UNL     1      40.983 -17.509   1.386  1.00  0.00     0.269 C 
HETATM   27  H   UNL     1      39.579 -16.711   2.643  1.00  0.00     0.279 HD
BRANCH  25  28
HETATM   28  C   UNL     1      40.067 -15.164   1.400  1.00  0.00     0.240 C 
BRANCH  28  29
HETATM   29  C   UNL     1      41.054 -14.877   0.259  1.00  0.00     0.087 C 
BRANCH  29  30
HETATM   30  C   UNL     1      40.415 -14.793  -1.111  1.00  0.00     0.035 A 
HETATM   31  N   UNL     1      39.279 -14.044  -1.244  1.00  0.00    -0.266 NA
HETATM   32  C   UNL     1      38.685 -14.061  -2.469  1.00  0.00     0.117 A 
HETATM   33  C   UNL     1      39.161 -14.771  -3.556  1.00  0.00     0.019 A 
HETATM   34  C   UNL     1      40.315 -15.526  -3.392  1.00  0.00     0.003 A 
HETATM   35  C   UNL     1      40.949 -15.546  -2.154  1.00  0.00     0.027 A 
ENDBRANCH  29  30
ENDBRANCH  28  29
ENDBRANCH  25  28
ENDBRANCH  24  25
ENDBRANCH   1  24
TORSDOF 8
ENDMDL
MODEL 8
REMARK VINA RESULT:      -8.2      3.258      7.233
REMARK  8 active torsions:
REMARK  status: ('A' for Active; 'I' for Inactive)
REMARK    1  A    between atoms: N_2  and  C_4 
REMARK    2  A    between atoms: N_2  and  C_27 
REMARK    3  A    between atoms: C_4  and  C_5 
REMARK    4  A    between atoms: C_8  and  C_9 
REMARK    5  A    between atoms: C_9  and  N_10 
REMARK       I    between atoms: N_10  and  C_11 
REMARK    6  A    between atoms: C_11  and  C_12 
REMARK    7  A    between atoms: C_27  and  C_28 
REMARK    8  A    between atoms: C_28  and  C_29 
ROOT
HETATM    1  C   UNL     1      39.957 -12.829   3.277  1.00  0.00     0.041 C 
HETATM    2  C   UNL     1      40.901 -12.499   4.473  1.00  0.00    -0.004 C 
HETATM    3  C   UNL     1      42.329 -13.031   4.189  1.00  0.00     0.040 C 
HETATM    4  C   UNL     1      42.333 -14.571   4.183  1.00  0.00     0.206 C 
HETATM    5  N   UNL     1      40.870 -14.994   4.073  1.00  0.00    -0.065 N 
HETATM    6  H   UNL     1      40.849 -16.010   3.851  1.00  0.00     0.280 HD
HETATM    7  C   UNL     1      40.130 -14.317   2.937  1.00  0.00     0.242 C 
HETATM    8  C   UNL     1      40.349 -13.252   5.711  1.00  0.00     0.032 C 
HETATM    9  C   UNL     1      40.175 -14.745   5.394  1.00  0.00     0.236 C 
ENDROOT
BRANCH   4  10
HETATM   10  C   UNL     1      43.238 -15.199   3.093  1.00  0.00     0.156 C 
BRANCH  10  11
HETATM   11  N   UNL     1      43.550 -16.608   3.313  1.00  0.00    -0.355 N 
HETATM   12  C   UNL     1      42.853 -17.626   2.698  1.00  0.00     0.251 C 
HETATM   13  O   UNL     1      41.816 -17.414   2.075  1.00  0.00    -0.268 OA
HETATM   14  H   UNL     1      44.479 -16.830   3.666  1.00  0.00     0.162 HD
BRANCH  12  15
HETATM   15  C   UNL     1      43.390 -18.999   2.849  1.00  0.00     0.034 A 
HETATM   16  C   UNL     1      43.982 -19.412   4.049  1.00  0.00     0.056 A 
HETATM   17  C   UNL     1      44.411 -20.720   4.125  1.00  0.00     0.106 A 
HETATM   18  C   UNL     1      44.277 -21.595   3.075  1.00  0.00     0.105 A 
HETATM   19  O   UNL     1      44.987 -21.298   5.212  1.00  0.00    -0.323 OA
HETATM   20  O   UNL     1      44.757 -22.831   3.367  1.00  0.00    -0.323 OA
HETATM   21  C   UNL     1      43.699 -21.217   1.882  1.00  0.00     0.041 A 
HETATM   22  C   UNL     1      45.194 -22.647   4.730  1.00  0.00     0.352 A 
HETATM   23  C   UNL     1      43.241 -19.899   1.772  1.00  0.00     0.020 A 
ENDBRANCH  12  15
ENDBRANCH  10  11
ENDBRANCH   4  10
BRANCH   1  24
HETATM   24  C   UNL     1      40.170 -11.887   2.073  1.00  0.00     0.241 C 
BRANCH  24  25
HETATM   25  N   UNL     1      40.475 -12.587   0.768  1.00  0.00    -0.074 N 
HETATM   26  C   UNL     1      41.956 -12.505   0.452  1.00  0.00     0.269 C 
HETATM   27  H   UNL     1      40.277 -13.608   0.845  1.00  0.00     0.279 HD
BRANCH  25  28
HETATM   28  C   UNL     1      39.623 -12.145  -0.422  1.00  0.00     0.240 C 
BRANCH  28  29
HETATM   29  C   UNL     1      38.488 -13.131  -0.735  1.00  0.00     0.087 C 
BRANCH  29  30
HETATM   30  C   UNL     1      38.810 -14.124  -1.831  1.00  0.00     0.035 A 
HETATM   31  N   UNL     1      40.088 -14.606  -1.903  1.00  0.00    -0.266 NA
HETATM   32  C   UNL     1      40.363 -15.431  -2.952  1.00  0.00     0.117 A 
HETATM   33  C   UNL     1      39.443 -15.800  -3.916  1.00  0.00     0.019 A 
HETATM   34  C   UNL     1      38.155 -15.292  -3.820  1.00  0.00     0.003 A 
HETATM   35  C   UNL     1      37.832 -14.437  -2.772  1.00  0.00     0.027 A 
ENDBRANCH  29  30
ENDBRANCH  28  29
ENDBRANCH  25  28
ENDBRANCH  24  25
ENDBRANCH   1  24
TORSDOF 8
ENDMDL
MODEL 9
REMARK VINA RESULT:      -8.1      4.339      8.081
REMARK  8 active torsions:
REMARK  status: ('A' for Active; 'I' for Inactive)
REMARK    1  A    between atoms: N_2  and  C_4 
REMARK    2  A    between atoms: N_2  and  C_27 
REMARK    3  A    between atoms: C_4  and  C_5 
REMARK    4  A    between atoms: C_8  and  C_9 
REMARK    5  A    between atoms: C_9  and  N_10 
REMARK       I    between atoms: N_10  and  C_11 
REMARK    6  A    between atoms: C_11  and  C_12 
REMARK    7  A    between atoms: C_27  and  C_28 
REMARK    8  A    between atoms: C_28  and  C_29 
ROOT
HETATM    1  C   UNL     1      41.170 -14.600   3.392  1.00  0.00     0.041 C 
HETATM    2  C   UNL     1      39.980 -13.816   4.025  1.00  0.00    -0.004 C 
HETATM    3  C   UNL     1      39.635 -12.578   3.157  1.00  0.00     0.040 C 
HETATM    4  C   UNL     1      40.779 -11.547   3.220  1.00  0.00     0.206 C 
HETATM    5  N   UNL     1      41.982 -12.291   3.794  1.00  0.00    -0.065 N 
HETATM    6  H   UNL     1      42.822 -11.693   3.651  1.00  0.00     0.280 HD
HETATM    7  C   UNL     1      42.286 -13.592   3.079  1.00  0.00     0.242 C 
HETATM    8  C   UNL     1      40.454 -13.309   5.412  1.00  0.00     0.032 C 
HETATM    9  C   UNL     1      41.768 -12.526   5.274  1.00  0.00     0.236 C 
ENDROOT
BRANCH   4  10
HETATM   10  C   UNL     1      41.075 -10.846   1.871  1.00  0.00     0.156 C 
BRANCH  10  11
HETATM   11  N   UNL     1      40.678 -11.616   0.696  1.00  0.00    -0.355 N 
HETATM   12  C   UNL     1      41.590 -12.085  -0.225  1.00  0.00     0.251 C 
HETATM   13  O   UNL     1      42.764 -11.726  -0.211  1.00  0.00    -0.268 OA
HETATM   14  H   UNL     1      39.771 -12.078   0.727  1.00  0.00     0.162 HD
BRANCH  12  15
HETATM   15  C   UNL     1      41.084 -13.016  -1.263  1.00  0.00     0.034 A 
HETATM   16  C   UNL     1      39.730 -13.372  -1.311  1.00  0.00     0.056 A 
HETATM   17  C   UNL     1      39.332 -14.203  -2.336  1.00  0.00     0.106 A 
HETATM   18  C   UNL     1      40.214 -14.677  -3.277  1.00  0.00     0.105 A 
HETATM   19  O   UNL     1      38.061 -14.634  -2.553  1.00  0.00    -0.323 OA
HETATM   20  O   UNL     1      39.610 -15.470  -4.199  1.00  0.00    -0.323 OA
HETATM   21  C   UNL     1      41.551 -14.343  -3.254  1.00  0.00     0.041 A 
HETATM   22  C   UNL     1      38.240 -15.431  -3.747  1.00  0.00     0.352 A 
HETATM   23  C   UNL     1      41.990 -13.492  -2.234  1.00  0.00     0.020 A 
ENDBRANCH  12  15
ENDBRANCH  10  11
ENDBRANCH   4  10
BRANCH   1  24
HETATM   24  C   UNL     1      40.743 -15.452   2.179  1.00  0.00     0.241 C 
BRANCH  24  25
HETATM   25  N   UNL     1      41.856 -16.262   1.552  1.00  0.00    -0.074 N 
HETATM   26  C   UNL     1      41.607 -16.454   0.069  1.00  0.00     0.269 C 
HETATM   27  H   UNL     1      42.760 -15.744   1.604  1.00  0.00     0.279 HD
BRANCH  25  28
HETATM   28  C   UNL     1      42.163 -17.591   2.244  1.00  0.00     0.240 C 
BRANCH  28  29
HETATM   29  C   UNL     1      43.404 -18.286   1.665  1.00  0.00     0.087 C 
BRANCH  29  30
HETATM   30  C   UNL     1      43.796 -19.559   2.383  1.00  0.00     0.035 A 
HETATM   31  N   UNL     1      44.353 -19.448   3.627  1.00  0.00    -0.266 NA
HETATM   32  C   UNL     1      44.772 -20.607   4.207  1.00  0.00     0.117 A 
HETATM   33  C   UNL     1      44.661 -21.855   3.622  1.00  0.00     0.019 A 
HETATM   34  C   UNL     1      44.095 -21.938   2.356  1.00  0.00     0.003 A 
HETATM   35  C   UNL     1      43.664 -20.778   1.722  1.00  0.00     0.027 A 
ENDBRANCH  29  30
ENDBRANCH  28  29
ENDBRANCH  25  28
ENDBRANCH  24  25
ENDBRANCH   1  24
TORSDOF 8
ENDMDL
MODEL 10
REMARK VINA RESULT:      -8.0      4.665      9.494
REMARK  8 active torsions:
REMARK  status: ('A' for Active; 'I' for Inactive)
REMARK    1  A    between atoms: N_2  and  C_4 
REMARK    2  A    between atoms: N_2  and  C_27 
REMARK    3  A    between atoms: C_4  and  C_5 
REMARK    4  A    between atoms: C_8  and  C_9 
REMARK    5  A    between atoms: C_9  and  N_10 
REMARK       I    between atoms: N_10  and  C_11 
REMARK    6  A    between atoms: C_11  and  C_12 
REMARK    7  A    between atoms: C_27  and  C_28 
REMARK    8  A    between atoms: C_28  and  C_29 
ROOT
HETATM    1  C   UNL     1      41.921 -15.251   5.085  1.00  0.00     0.041 C 
HETATM    2  C   UNL     1      42.417 -13.888   4.511  1.00  0.00    -0.004 C 
HETATM    3  C   UNL     1      41.849 -12.716   5.353  1.00  0.00     0.040 C 
HETATM    4  C   UNL     1      40.323 -12.616   5.167  1.00  0.00     0.206 C 
HETATM    5  N   UNL     1      39.890 -13.937   4.535  1.00  0.00    -0.065 N 
HETATM    6  H   UNL     1      38.852 -13.992   4.593  1.00  0.00     0.280 HD
HETATM    7  C   UNL     1      40.400 -15.157   5.277  1.00  0.00     0.242 C 
HETATM    8  C   UNL     1      41.846 -13.764   3.074  1.00  0.00     0.032 C 
HETATM    9  C   UNL     1      40.323 -13.966   3.086  1.00  0.00     0.236 C 
ENDROOT
BRANCH   4  10
HETATM   10  C   UNL     1      39.547 -12.271   6.463  1.00  0.00     0.156 C 
BRANCH  10  11
HETATM   11  N   UNL     1      40.389 -11.792   7.554  1.00  0.00    -0.355 N 
HETATM   12  C   UNL     1      39.893 -11.041   8.598  1.00  0.00     0.251 C 
HETATM   13  O   UNL     1      38.756 -10.576   8.575  1.00  0.00    -0.268 OA
HETATM   14  H   UNL     1      41.270 -12.278   7.712  1.00  0.00     0.162 HD
BRANCH  12  15
HETATM   15  C   UNL     1      40.804 -10.783   9.739  1.00  0.00     0.034 A 
HETATM   16  C   UNL     1      40.357 -10.911  11.059  1.00  0.00     0.056 A 
HETATM   17  C   UNL     1      41.280 -10.702  12.062  1.00  0.00     0.106 A 
HETATM   18  C   UNL     1      42.587 -10.376  11.795  1.00  0.00     0.105 A 
HETATM   19  O   UNL     1      41.031 -10.803  13.395  1.00  0.00    -0.323 OA
HETATM   20  O   UNL     1      43.324 -10.225  12.926  1.00  0.00    -0.323 OA
HETATM   21  C   UNL     1      43.055 -10.244  10.506  1.00  0.00     0.041 A 
HETATM   22  C   UNL     1      42.339 -10.511  13.942  1.00  0.00     0.352 A 
HETATM   23  C   UNL     1      42.150 -10.459   9.461  1.00  0.00     0.020 A 
ENDBRANCH  12  15
ENDBRANCH  10  11
ENDBRANCH   4  10
BRANCH   1  24
HETATM   24  C   UNL     1      42.684 -15.673   6.358  1.00  0.00     0.241 C 
BRANCH  24  25
HETATM   25  N   UNL     1      43.079 -17.132   6.404  1.00  0.00    -0.074 N 
HETATM   26  C   UNL     1      44.555 -17.276   6.718  1.00  0.00     0.269 C 
HETATM   27  H   UNL     1      42.593 -17.618   7.188  1.00  0.00     0.279 HD
BRANCH  25  28
HETATM   28  C   UNL     1      42.685 -17.952   5.175  1.00  0.00     0.240 C 
BRANCH  28  29
HETATM   29  C   UNL     1      43.855 -18.159   4.202  1.00  0.00     0.087 C 
BRANCH  29  30
HETATM   30  C   UNL     1      43.988 -19.574   3.680  1.00  0.00     0.035 A 
HETATM   31  N   UNL     1      44.566 -20.506   4.496  1.00  0.00    -0.266 NA
HETATM   32  C   UNL     1      44.747 -21.746   3.963  1.00  0.00     0.117 A 
HETATM   33  C   UNL     1      44.382 -22.102   2.677  1.00  0.00     0.019 A 
HETATM   34  C   UNL     1      43.801 -21.134   1.869  1.00  0.00     0.003 A 
HETATM   35  C   UNL     1      43.607 -19.851   2.369  1.00  0.00     0.027 A 
ENDBRANCH  29  30
ENDBRANCH  28  29
ENDBRANCH  25  28
ENDBRANCH  24  25
ENDBRANCH   1  24
TORSDOF 8
ENDMDL
