MODEL 1
REMARK VINA RESULT:      -8.4      0.000      0.000
REMARK  3 active torsions:
REMARK  status: ('A' for Active; 'I' for Inactive)
REMARK    1  A    between atoms: C_6  and  O_7 
REMARK    2  A    between atoms: O_7  and  C_8 
REMARK       I    between atoms: N_10  and  C_11 
REMARK       I    between atoms: C_11  and  N_12 
REMARK    3  A    between atoms: N_12  and  C_13 
ROOT
HETATM    1  C   UNL     1      41.701 -13.276   1.458  1.00  0.00     0.148 C 
HETATM    2  C   UNL     1      42.638 -14.296   2.118  1.00  0.00     0.160 C 
HETATM    3  N   UNL     1      41.825 -14.946   3.137  1.00  0.00    -0.331 N 
HETATM    4  C   UNL     1      42.007 -16.197   3.694  1.00  0.00     0.323 C 
HETATM    5  N   UNL     1      43.242 -16.745   3.437  1.00  0.00    -0.309 N 
HETATM    6  O   UNL     1      41.113 -16.729   4.344  1.00  0.00    -0.247 OA
HETATM    7  C   UNL     1      40.569 -14.241   3.320  1.00  0.00     0.130 C 
HETATM    8  C   UNL     1      40.773 -12.910   2.619  1.00  0.00     0.054 C 
HETATM    9  H   UNL     1      43.965 -16.087   3.196  1.00  0.00     0.170 HD
ENDROOT
BRANCH   5  10
HETATM   10  C   UNL     1      43.658 -18.072   3.673  1.00  0.00     0.037 A 
HETATM   11  C   UNL     1      43.580 -19.085   2.708  1.00  0.00     0.043 A 
HETATM   12  C   UNL     1      44.056 -20.379   3.010  1.00  0.00    -0.006 A 
HETATM   13  C   UNL     1      44.595 -20.623   4.271  1.00  0.00     0.042 A 
HETATM   14  C   UNL     1      44.133 -21.597   2.278  1.00  0.00     0.030 A 
HETATM   15  N   UNL     1      44.979 -21.944   4.299  1.00  0.00    -0.365 N 
HETATM   16  C   UNL     1      44.687 -19.632   5.253  1.00  0.00     0.033 A 
HETATM   17  H   UNL     1      45.403 -22.402   5.094  1.00  0.00     0.165 HD
HETATM   18  C   UNL     1      44.707 -22.542   3.097  1.00  0.00     0.089 A 
HETATM   19  C   UNL     1      44.212 -18.355   4.927  1.00  0.00     0.032 A 
ENDBRANCH   5  10
BRANCH   1  20
HETATM   20  O   UNL     1      42.450 -12.159   0.995  1.00  0.00    -0.344 OA
BRANCH  20  21
HETATM   21  C   UNL     1      42.474 -11.899  -0.347  1.00  0.00     0.070 A 
HETATM   22  C   UNL     1      41.992 -12.940  -1.145  1.00  0.00     0.060 A 
HETATM   23  C   UNL     1      41.958 -12.806  -2.533  1.00  0.00     0.036 A 
HETATM   24  C   UNL     1      42.402 -11.634  -3.138  1.00  0.00     0.024 A 
HETATM   25 CL   UNL     1      41.366 -14.097  -3.504  1.00  0.00    -0.084 Cl
HETATM   26  C   UNL     1      42.882 -10.591  -2.348  1.00  0.00     0.004 A 
HETATM   27  C   UNL     1      42.919 -10.723  -0.956  1.00  0.00     0.037 A 
ENDBRANCH  20  21
ENDBRANCH   1  20
TORSDOF 3
ENDMDL
MODEL 2
REMARK VINA RESULT:      -8.3      7.579      9.797
REMARK  3 active torsions:
REMARK  status: ('A' for Active; 'I' for Inactive)
REMARK    1  A    between atoms: C_6  and  O_7 
REMARK    2  A    between atoms: O_7  and  C_8 
REMARK       I    between atoms: N_10  and  C_11 
REMARK       I    between atoms: C_11  and  N_12 
REMARK    3  A    between atoms: N_12  and  C_13 
ROOT
HETATM    1  C   UNL     1      44.491 -11.409  10.108  1.00  0.00     0.148 C 
HETATM    2  C   UNL     1      43.714 -11.768   8.835  1.00  0.00     0.160 C 
HETATM    3  N   UNL     1      44.656 -12.526   8.023  1.00  0.00    -0.331 N 
HETATM    4  C   UNL     1      44.370 -13.444   7.031  1.00  0.00     0.323 C 
HETATM    5  N   UNL     1      43.062 -13.415   6.607  1.00  0.00    -0.309 N 
HETATM    6  O   UNL     1      45.240 -14.199   6.607  1.00  0.00    -0.247 OA
HETATM    7  C   UNL     1      45.996 -12.439   8.574  1.00  0.00     0.130 C 
HETATM    8  C   UNL     1      45.923 -11.303   9.578  1.00  0.00     0.054 C 
HETATM    9  H   UNL     1      42.569 -12.555   6.786  1.00  0.00     0.170 HD
ENDROOT
BRANCH   5  10
HETATM   10  C   UNL     1      42.407 -14.351   5.779  1.00  0.00     0.037 A 
HETATM   11  C   UNL     1      41.932 -14.044   4.497  1.00  0.00     0.043 A 
HETATM   12  C   UNL     1      41.324 -15.048   3.715  1.00  0.00    -0.006 A 
HETATM   13  C   UNL     1      41.208 -16.333   4.239  1.00  0.00     0.042 A 
HETATM   14  C   UNL     1      40.760 -15.074   2.409  1.00  0.00     0.030 A 
HETATM   15  N   UNL     1      40.588 -17.106   3.283  1.00  0.00    -0.365 N 
HETATM   16  C   UNL     1      41.673 -16.671   5.513  1.00  0.00     0.033 A 
HETATM   17  H   UNL     1      40.370 -18.087   3.390  1.00  0.00     0.165 HD
HETATM   18  C   UNL     1      40.316 -16.355   2.170  1.00  0.00     0.089 A 
HETATM   19  C   UNL     1      42.277 -15.657   6.268  1.00  0.00     0.032 A 
ENDBRANCH   5  10
BRANCH   1  20
HETATM   20  O   UNL     1      44.018 -10.174  10.632  1.00  0.00    -0.344 OA
BRANCH  20  21
HETATM   21  C   UNL     1      43.325 -10.187  11.810  1.00  0.00     0.070 A 
HETATM   22  C   UNL     1      42.179 -10.989  11.796  1.00  0.00     0.060 A 
HETATM   23  C   UNL     1      41.380 -11.093  12.933  1.00  0.00     0.036 A 
HETATM   24  C   UNL     1      41.713 -10.403  14.096  1.00  0.00     0.024 A 
HETATM   25 CL   UNL     1      39.971 -12.080  12.902  1.00  0.00    -0.084 Cl
HETATM   26  C   UNL     1      42.854  -9.604  14.116  1.00  0.00     0.004 A 
HETATM   27  C   UNL     1      43.659  -9.495  12.977  1.00  0.00     0.037 A 
ENDBRANCH  20  21
ENDBRANCH   1  20
TORSDOF 3
ENDMDL
MODEL 3
REMARK VINA RESULT:      -8.2      2.317      2.675
REMARK  3 active torsions:
REMARK  status: ('A' for Active; 'I' for Inactive)
REMARK    1  A    between atoms: C_6  and  O_7 
REMARK    2  A    between atoms: O_7  and  C_8 
REMARK       I    between atoms: N_10  and  C_11 
REMARK       I    between atoms: C_11  and  N_12 
REMARK    3  A    between atoms: N_12  and  C_13 
ROOT
HETATM    1  C   UNL     1      39.403 -14.204   0.995  1.00  0.00     0.148 C 
HETATM    2  C   UNL     1      40.676 -15.034   1.209  1.00  0.00     0.160 C 
HETATM    3  N   UNL     1      40.785 -15.186   2.654  1.00  0.00    -0.331 N 
HETATM    4  C   UNL     1      41.448 -16.176   3.353  1.00  0.00     0.323 C 
HETATM    5  N   UNL     1      42.307 -16.921   2.580  1.00  0.00    -0.309 N 
HETATM    6  O   UNL     1      41.246 -16.337   4.553  1.00  0.00    -0.247 OA
HETATM    7  C   UNL     1      39.842 -14.317   3.335  1.00  0.00     0.130 C 
HETATM    8  C   UNL     1      39.372 -13.349   2.264  1.00  0.00     0.054 C 
HETATM    9  H   UNL     1      42.617 -16.479   1.730  1.00  0.00     0.170 HD
ENDROOT
BRANCH   5  10
HETATM   10  C   UNL     1      42.957 -18.122   2.934  1.00  0.00     0.037 A 
HETATM   11  C   UNL     1      42.951 -19.267   2.128  1.00  0.00     0.043 A 
HETATM   12  C   UNL     1      43.661 -20.416   2.535  1.00  0.00    -0.006 A 
HETATM   13  C   UNL     1      44.358 -20.387   3.740  1.00  0.00     0.042 A 
HETATM   14  C   UNL     1      43.863 -21.704   1.964  1.00  0.00     0.030 A 
HETATM   15  N   UNL     1      44.955 -21.618   3.894  1.00  0.00    -0.365 N 
HETATM   16  C   UNL     1      44.384 -19.260   4.566  1.00  0.00     0.033 A 
HETATM   17  H   UNL     1      45.526 -21.885   4.683  1.00  0.00     0.165 HD
HETATM   18  C   UNL     1      44.665 -22.421   2.822  1.00  0.00     0.089 A 
HETATM   19  C   UNL     1      43.675 -18.130   4.137  1.00  0.00     0.032 A 
ENDBRANCH   5  10
BRANCH   1  20
HETATM   20  O   UNL     1      39.530 -13.417  -0.183  1.00  0.00    -0.344 OA
BRANCH  20  21
HETATM   21  C   UNL     1      39.546 -14.050  -1.394  1.00  0.00     0.070 A 
HETATM   22  C   UNL     1      38.302 -14.113  -2.029  1.00  0.00     0.060 A 
HETATM   23  C   UNL     1      38.178 -14.731  -3.272  1.00  0.00     0.036 A 
HETATM   24  C   UNL     1      39.289 -15.291  -3.896  1.00  0.00     0.024 A 
HETATM   25 CL   UNL     1      36.640 -14.803  -4.041  1.00  0.00    -0.084 Cl
HETATM   26  C   UNL     1      40.532 -15.230  -3.269  1.00  0.00     0.004 A 
HETATM   27  C   UNL     1      40.661 -14.613  -2.020  1.00  0.00     0.037 A 
ENDBRANCH  20  21
ENDBRANCH   1  20
TORSDOF 3
ENDMDL
MODEL 4
REMARK VINA RESULT:      -8.2      3.378      9.285
REMARK  3 active torsions:
REMARK  status: ('A' for Active; 'I' for Inactive)
REMARK    1  A    between atoms: C_6  and  O_7 
REMARK    2  A    between atoms: O_7  and  C_8 
REMARK       I    between atoms: N_10  and  C_11 
REMARK       I    between atoms: C_11  and  N_12 
REMARK    3  A    between atoms: N_12  and  C_13 
ROOT
HETATM    1  C   UNL     1      42.099 -17.367   1.809  1.00  0.00     0.148 C 
HETATM    2  C   UNL     1      42.192 -16.528   0.528  1.00  0.00     0.160 C 
HETATM    3  N   UNL     1      41.082 -15.589   0.614  1.00  0.00    -0.331 N 
HETATM    4  C   UNL     1      40.963 -14.361  -0.007  1.00  0.00     0.323 C 
HETATM    5  N   UNL     1      41.878 -14.156  -1.012  1.00  0.00    -0.309 N 
HETATM    6  O   UNL     1      40.105 -13.559   0.351  1.00  0.00    -0.247 OA
HETATM    7  C   UNL     1      40.186 -15.950   1.698  1.00  0.00     0.130 C 
HETATM    8  C   UNL     1      40.592 -17.363   2.074  1.00  0.00     0.054 C 
HETATM    9  H   UNL     1      42.278 -14.990  -1.410  1.00  0.00     0.170 HD
ENDROOT
BRANCH   5  10
HETATM   10  C   UNL     1      42.160 -12.947  -1.683  1.00  0.00     0.037 A 
HETATM   11  C   UNL     1      41.976 -12.771  -3.061  1.00  0.00     0.043 A 
HETATM   12  C   UNL     1      42.243 -11.518  -3.649  1.00  0.00    -0.006 A 
HETATM   13  C   UNL     1      42.687 -10.473  -2.842  1.00  0.00     0.042 A 
HETATM   14  C   UNL     1      42.154 -11.013  -4.977  1.00  0.00     0.030 A 
HETATM   15  N   UNL     1      42.867  -9.378  -3.657  1.00  0.00    -0.365 N 
HETATM   16  C   UNL     1      42.879 -10.617  -1.465  1.00  0.00     0.033 A 
HETATM   17  H   UNL     1      43.188  -8.474  -3.341  1.00  0.00     0.165 HD
HETATM   18  C   UNL     1      42.543  -9.693  -4.950  1.00  0.00     0.089 A 
HETATM   19  C   UNL     1      42.603 -11.871  -0.903  1.00  0.00     0.032 A 
ENDBRANCH   5  10
BRANCH   1  20
HETATM   20  O   UNL     1      42.601 -18.676   1.569  1.00  0.00    -0.344 OA
BRANCH  20  21
HETATM   21  C   UNL     1      43.395 -19.256   2.519  1.00  0.00     0.070 A 
HETATM   22  C   UNL     1      43.636 -18.453   3.638  1.00  0.00     0.060 A 
HETATM   23  C   UNL     1      44.430 -18.924   4.683  1.00  0.00     0.036 A 
HETATM   24  C   UNL     1      44.990 -20.197   4.625  1.00  0.00     0.024 A 
HETATM   25 CL   UNL     1      44.721 -17.925   6.053  1.00  0.00    -0.084 Cl
HETATM   26  C   UNL     1      44.752 -21.002   3.513  1.00  0.00     0.004 A 
HETATM   27  C   UNL     1      43.957 -20.533   2.461  1.00  0.00     0.037 A 
ENDBRANCH  20  21
ENDBRANCH   1  20
TORSDOF 3
ENDMDL
MODEL 5
REMARK VINA RESULT:      -8.2      1.399      2.056
REMARK  3 active torsions:
REMARK  status: ('A' for Active; 'I' for Inactive)
REMARK    1  A    between atoms: C_6  and  O_7 
REMARK    2  A    between atoms: O_7  and  C_8 
REMARK       I    between atoms: N_10  and  C_11 
REMARK       I    between atoms: C_11  and  N_12 
REMARK    3  A    between atoms: N_12  and  C_13 
ROOT
HETATM    1  C   UNL     1      41.623 -13.574   1.270  1.00  0.00     0.148 C 
HETATM    2  C   UNL     1      42.557 -14.662   1.814  1.00  0.00     0.160 C 
HETATM    3  N   UNL     1      41.758 -15.386   2.794  1.00  0.00    -0.331 N 
HETATM    4  C   UNL     1      41.932 -16.684   3.236  1.00  0.00     0.323 C 
HETATM    5  N   UNL     1      43.150 -17.226   2.901  1.00  0.00    -0.309 N 
HETATM    6  O   UNL     1      41.045 -17.256   3.860  1.00  0.00    -0.247 OA
HETATM    7  C   UNL     1      40.520 -14.680   3.069  1.00  0.00     0.130 C 
HETATM    8  C   UNL     1      40.729 -13.297   2.481  1.00  0.00     0.054 C 
HETATM    9  H   UNL     1      43.879 -16.560   2.699  1.00  0.00     0.170 HD
ENDROOT
BRANCH   5  10
HETATM   10  C   UNL     1      43.549 -18.575   3.010  1.00  0.00     0.037 A 
HETATM   11  C   UNL     1      44.027 -19.141   4.199  1.00  0.00     0.043 A 
HETATM   12  C   UNL     1      44.367 -20.509   4.236  1.00  0.00    -0.006 A 
HETATM   13  C   UNL     1      44.220 -21.274   3.082  1.00  0.00     0.042 A 
HETATM   14  C   UNL     1      44.858 -21.376   5.253  1.00  0.00     0.030 A 
HETATM   15  N   UNL     1      44.615 -22.556   3.390  1.00  0.00    -0.365 N 
HETATM   16  C   UNL     1      43.745 -20.737   1.881  1.00  0.00     0.033 A 
HETATM   17  H   UNL     1      44.616 -23.329   2.739  1.00  0.00     0.165 HD
HETATM   18  C   UNL     1      44.999 -22.630   4.703  1.00  0.00     0.089 A 
HETATM   19  C   UNL     1      43.409 -19.377   1.871  1.00  0.00     0.032 A 
ENDBRANCH   5  10
BRANCH   1  20
HETATM   20  O   UNL     1      42.379 -12.433   0.886  1.00  0.00    -0.344 OA
BRANCH  20  21
HETATM   21  C   UNL     1      42.404 -12.079  -0.434  1.00  0.00     0.070 A 
HETATM   22  C   UNL     1      42.691 -10.731  -0.665  1.00  0.00     0.060 A 
HETATM   23  C   UNL     1      42.749 -10.237  -1.967  1.00  0.00     0.036 A 
HETATM   24  C   UNL     1      42.524 -11.080  -3.052  1.00  0.00     0.024 A 
HETATM   25 CL   UNL     1      43.100  -8.574  -2.237  1.00  0.00    -0.084 Cl
HETATM   26  C   UNL     1      42.239 -12.425  -2.829  1.00  0.00     0.004 A 
HETATM   27  C   UNL     1      42.178 -12.925  -1.523  1.00  0.00     0.037 A 
ENDBRANCH  20  21
ENDBRANCH   1  20
TORSDOF 3
ENDMDL
MODEL 6
REMARK VINA RESULT:      -8.1      1.287      1.926
REMARK  3 active torsions:
REMARK  status: ('A' for Active; 'I' for Inactive)
REMARK    1  A    between atoms: C_6  and  O_7 
REMARK    2  A    between atoms: O_7  and  C_8 
REMARK       I    between atoms: N_10  and  C_11 
REMARK       I    between atoms: C_11  and  N_12 
REMARK    3  A    between atoms: N_12  and  C_13 
ROOT
HETATM    1  C   UNL     1      40.801 -14.363   1.234  1.00  0.00     0.148 C 
HETATM    2  C   UNL     1      41.912 -15.318   1.691  1.00  0.00     0.160 C 
HETATM    3  N   UNL     1      41.401 -15.928   2.911  1.00  0.00    -0.331 N 
HETATM    4  C   UNL     1      41.765 -17.140   3.467  1.00  0.00     0.323 C 
HETATM    5  N   UNL     1      42.920 -17.669   2.939  1.00  0.00    -0.309 N 
HETATM    6  O   UNL     1      41.081 -17.656   4.345  1.00  0.00    -0.247 OA
HETATM    7  C   UNL     1      40.203 -15.247   3.364  1.00  0.00     0.130 C 
HETATM    8  C   UNL     1      40.174 -13.955   2.569  1.00  0.00     0.054 C 
HETATM    9  H   UNL     1      43.534 -17.007   2.493  1.00  0.00     0.170 HD
ENDROOT
BRANCH   5  10
HETATM   10  C   UNL     1      43.434 -18.969   3.130  1.00  0.00     0.037 A 
HETATM   11  C   UNL     1      43.842 -19.458   4.378  1.00  0.00     0.043 A 
HETATM   12  C   UNL     1      44.307 -20.785   4.493  1.00  0.00    -0.006 A 
HETATM   13  C   UNL     1      44.352 -21.585   3.354  1.00  0.00     0.042 A 
HETATM   14  C   UNL     1      44.774 -21.575   5.580  1.00  0.00     0.030 A 
HETATM   15  N   UNL     1      44.836 -22.815   3.741  1.00  0.00    -0.365 N 
HETATM   16  C   UNL     1      43.951 -21.126   2.096  1.00  0.00     0.033 A 
HETATM   17  H   UNL     1      44.978 -23.598   3.118  1.00  0.00     0.165 HD
HETATM   18  C   UNL     1      45.091 -22.821   5.087  1.00  0.00     0.089 A 
HETATM   19  C   UNL     1      43.488 -19.806   2.009  1.00  0.00     0.032 A 
ENDBRANCH   5  10
BRANCH   1  20
HETATM   20  O   UNL     1      41.368 -13.255   0.544  1.00  0.00    -0.344 OA
BRANCH  20  21
HETATM   21  C   UNL     1      41.497 -13.329  -0.815  1.00  0.00     0.070 A 
HETATM   22  C   UNL     1      40.776 -14.369  -1.408  1.00  0.00     0.060 A 
HETATM   23  C   UNL     1      40.819 -14.557  -2.789  1.00  0.00     0.036 A 
HETATM   24  C   UNL     1      41.577 -13.710  -3.592  1.00  0.00     0.024 A 
HETATM   25 CL   UNL     1      39.929 -15.844  -3.505  1.00  0.00    -0.084 Cl
HETATM   26  C   UNL     1      42.296 -12.671  -3.007  1.00  0.00     0.004 A 
HETATM   27  C   UNL     1      42.258 -12.480  -1.622  1.00  0.00     0.037 A 
ENDBRANCH  20  21
ENDBRANCH   1  20
TORSDOF 3
ENDMDL
MODEL 7
REMARK VINA RESULT:      -8.0      3.090      9.178
REMARK  3 active torsions:
REMARK  status: ('A' for Active; 'I' for Inactive)
REMARK    1  A    between atoms: C_6  and  O_7 
REMARK    2  A    between atoms: O_7  and  C_8 
REMARK       I    between atoms: N_10  and  C_11 
REMARK       I    between atoms: C_11  and  N_12 
REMARK    3  A    between atoms: N_12  and  C_13 
ROOT
HETATM    1  C   UNL     1      42.928 -16.374   2.577  1.00  0.00     0.148 C 
HETATM    2  C   UNL     1      41.971 -15.706   1.580  1.00  0.00     0.160 C 
HETATM    3  N   UNL     1      42.221 -14.278   1.721  1.00  0.00    -0.331 N 
HETATM    4  C   UNL     1      41.986 -13.282   0.792  1.00  0.00     0.323 C 
HETATM    5  N   UNL     1      41.185 -13.676  -0.254  1.00  0.00    -0.309 N 
HETATM    6  O   UNL     1      42.478 -12.167   0.933  1.00  0.00    -0.247 OA
HETATM    7  C   UNL     1      43.052 -14.014   2.881  1.00  0.00     0.130 C 
HETATM    8  C   UNL     1      43.028 -15.309   3.671  1.00  0.00     0.054 C 
HETATM    9  H   UNL     1      40.599 -14.475  -0.072  1.00  0.00     0.170 HD
ENDROOT
BRANCH   5  10
HETATM   10  C   UNL     1      40.937 -12.979  -1.455  1.00  0.00     0.037 A 
HETATM   11  C   UNL     1      41.951 -12.417  -2.241  1.00  0.00     0.043 A 
HETATM   12  C   UNL     1      41.623 -11.771  -3.451  1.00  0.00    -0.006 A 
HETATM   13  C   UNL     1      40.288 -11.703  -3.840  1.00  0.00     0.042 A 
HETATM   14  C   UNL     1      42.388 -11.122  -4.461  1.00  0.00     0.030 A 
HETATM   15  N   UNL     1      40.248 -11.031  -5.041  1.00  0.00    -0.365 N 
HETATM   16  C   UNL     1      39.254 -12.254  -3.078  1.00  0.00     0.033 A 
HETATM   17  H   UNL     1      39.405 -10.831  -5.560  1.00  0.00     0.165 HD
HETATM   18  C   UNL     1      41.514 -10.678  -5.428  1.00  0.00     0.089 A 
HETATM   19  C   UNL     1      39.606 -12.896  -1.883  1.00  0.00     0.032 A 
ENDBRANCH   5  10
BRANCH   1  20
HETATM   20  O   UNL     1      42.360 -17.587   3.055  1.00  0.00    -0.344 OA
BRANCH  20  21
HETATM   21  C   UNL     1      43.198 -18.619   3.373  1.00  0.00     0.070 A 
HETATM   22  C   UNL     1      43.283 -19.616   2.396  1.00  0.00     0.060 A 
HETATM   23  C   UNL     1      44.103 -20.726   2.593  1.00  0.00     0.036 A 
HETATM   24  C   UNL     1      44.848 -20.854   3.762  1.00  0.00     0.024 A 
HETATM   25 CL   UNL     1      44.196 -21.946   1.384  1.00  0.00    -0.084 Cl
HETATM   26  C   UNL     1      44.768 -19.863   4.739  1.00  0.00     0.004 A 
HETATM   27  C   UNL     1      43.945 -18.749   4.546  1.00  0.00     0.037 A 
ENDBRANCH  20  21
ENDBRANCH   1  20
TORSDOF 3
ENDMDL
MODEL 8
REMARK VINA RESULT:      -8.0      2.007      2.460
REMARK  3 active torsions:
REMARK  status: ('A' for Active; 'I' for Inactive)
REMARK    1  A    between atoms: C_6  and  O_7 
REMARK    2  A    between atoms: O_7  and  C_8 
REMARK       I    between atoms: N_10  and  C_11 
REMARK       I    between atoms: C_11  and  N_12 
REMARK    3  A    between atoms: N_12  and  C_13 
ROOT
HETATM    1  C   UNL     1      41.433 -13.149  -0.727  1.00  0.00     0.148 C 
HETATM    2  C   UNL     1      42.142 -13.980   0.352  1.00  0.00     0.160 C 
HETATM    3  N   UNL     1      41.093 -14.804   0.937  1.00  0.00    -0.331 N 
HETATM    4  C   UNL     1      41.235 -16.008   1.600  1.00  0.00     0.323 C 
HETATM    5  N   UNL     1      42.530 -16.293   1.964  1.00  0.00    -0.309 N 
HETATM    6  O   UNL     1      40.261 -16.724   1.813  1.00  0.00    -0.247 OA
HETATM    7  C   UNL     1      39.784 -14.368   0.488  1.00  0.00     0.130 C 
HETATM    8  C   UNL     1      40.029 -13.006  -0.136  1.00  0.00     0.054 C 
HETATM    9  H   UNL     1      43.145 -15.498   2.030  1.00  0.00     0.170 HD
ENDROOT
BRANCH   5  10
HETATM   10  C   UNL     1      43.036 -17.516   2.452  1.00  0.00     0.037 A 
HETATM   11  C   UNL     1      43.043 -18.699   1.701  1.00  0.00     0.043 A 
HETATM   12  C   UNL     1      43.605 -19.872   2.247  1.00  0.00    -0.006 A 
HETATM   13  C   UNL     1      44.142 -19.830   3.530  1.00  0.00     0.042 A 
HETATM   14  C   UNL     1      43.778 -21.199   1.763  1.00  0.00     0.030 A 
HETATM   15  N   UNL     1      44.618 -21.090   3.814  1.00  0.00    -0.365 N 
HETATM   16  C   UNL     1      44.150 -18.665   4.304  1.00  0.00     0.033 A 
HETATM   17  H   UNL     1      45.062 -21.355   4.682  1.00  0.00     0.165 HD
HETATM   18  C   UNL     1      44.406 -21.926   2.749  1.00  0.00     0.089 A 
HETATM   19  C   UNL     1      43.591 -17.511   3.737  1.00  0.00     0.032 A 
ENDBRANCH   5  10
BRANCH   1  20
HETATM   20  O   UNL     1      42.085 -11.894  -0.878  1.00  0.00    -0.344 OA
BRANCH  20  21
HETATM   21  C   UNL     1      42.210 -11.370  -2.134  1.00  0.00     0.070 A 
HETATM   22  C   UNL     1      42.367  -9.981  -2.167  1.00  0.00     0.060 A 
HETATM   23  C   UNL     1      42.506  -9.318  -3.385  1.00  0.00     0.036 A 
HETATM   24  C   UNL     1      42.493 -10.030  -4.582  1.00  0.00     0.024 A 
HETATM   25 CL   UNL     1      42.695  -7.608  -3.412  1.00  0.00    -0.084 Cl
HETATM   26  C   UNL     1      42.339 -11.414  -4.555  1.00  0.00     0.004 A 
HETATM   27  C   UNL     1      42.197 -12.084  -3.335  1.00  0.00     0.037 A 
ENDBRANCH  20  21
ENDBRANCH   1  20
TORSDOF 3
ENDMDL
MODEL 9
REMARK VINA RESULT:      -8.0      3.539      9.467
REMARK  3 active torsions:
REMARK  status: ('A' for Active; 'I' for Inactive)
REMARK    1  A    between atoms: C_6  and  O_7 
REMARK    2  A    between atoms: O_7  and  C_8 
REMARK       I    between atoms: N_10  and  C_11 
REMARK       I    between atoms: C_11  and  N_12 
REMARK    3  A    between atoms: N_12  and  C_13 
ROOT
HETATM    1  C   UNL     1      42.814 -17.317   2.008  1.00  0.00     0.148 C 
HETATM    2  C   UNL     1      42.826 -16.541   0.685  1.00  0.00     0.160 C 
HETATM    3  N   UNL     1      41.500 -15.946   0.587  1.00  0.00    -0.331 N 
HETATM    4  C   UNL     1      41.126 -14.827  -0.132  1.00  0.00     0.323 C 
HETATM    5  N   UNL     1      42.063 -14.418  -1.051  1.00  0.00    -0.309 N 
HETATM    6  O   UNL     1      40.046 -14.282   0.076  1.00  0.00    -0.247 OA
HETATM    7  C   UNL     1      40.615 -16.495   1.598  1.00  0.00     0.130 C 
HETATM    8  C   UNL     1      41.342 -17.722   2.117  1.00  0.00     0.054 C 
HETATM    9  H   UNL     1      42.718 -15.125  -1.343  1.00  0.00     0.170 HD
ENDROOT
BRANCH   5  10
HETATM   10  C   UNL     1      42.082 -13.209  -1.778  1.00  0.00     0.037 A 
HETATM   11  C   UNL     1      42.531 -11.996  -1.240  1.00  0.00     0.043 A 
HETATM   12  C   UNL     1      42.557 -10.839  -2.045  1.00  0.00    -0.006 A 
HETATM   13  C   UNL     1      42.131 -10.927  -3.368  1.00  0.00     0.042 A 
HETATM   14  C   UNL     1      42.952  -9.490  -1.821  1.00  0.00     0.030 A 
HETATM   15  N   UNL     1      42.260  -9.673  -3.921  1.00  0.00    -0.365 N 
HETATM   16  C   UNL     1      41.679 -12.123  -3.934  1.00  0.00     0.033 A 
HETATM   17  H   UNL     1      42.021  -9.438  -4.874  1.00  0.00     0.165 HD
HETATM   18  C   UNL     1      42.760  -8.796  -2.994  1.00  0.00     0.089 A 
HETATM   19  C   UNL     1      41.667 -13.259  -3.114  1.00  0.00     0.032 A 
ENDBRANCH   5  10
BRANCH   1  20
HETATM   20  O   UNL     1      43.678 -18.443   1.918  1.00  0.00    -0.344 OA
BRANCH  20  21
HETATM   21  C   UNL     1      44.003 -19.110   3.066  1.00  0.00     0.070 A 
HETATM   22  C   UNL     1      44.228 -20.479   2.894  1.00  0.00     0.060 A 
HETATM   23  C   UNL     1      44.569 -21.278   3.984  1.00  0.00     0.036 A 
HETATM   24  C   UNL     1      44.694 -20.722   5.254  1.00  0.00     0.024 A 
HETATM   25 CL   UNL     1      44.839 -22.962   3.759  1.00  0.00    -0.084 Cl
HETATM   26  C   UNL     1      44.473 -19.358   5.432  1.00  0.00     0.004 A 
HETATM   27  C   UNL     1      44.128 -18.553   4.341  1.00  0.00     0.037 A 
ENDBRANCH  20  21
ENDBRANCH   1  20
TORSDOF 3
ENDMDL
MODEL 10
REMARK VINA RESULT:      -7.9      4.515      9.044
REMARK  3 active torsions:
REMARK  status: ('A' for Active; 'I' for Inactive)
REMARK    1  A    between atoms: C_6  and  O_7 
REMARK    2  A    between atoms: O_7  and  C_8 
REMARK       I    between atoms: N_10  and  C_11 
REMARK       I    between atoms: C_11  and  N_12 
REMARK    3  A    between atoms: N_12  and  C_13 
ROOT
HETATM    1  C   UNL     1      42.451 -17.672   3.173  1.00  0.00     0.148 C 
HETATM    2  C   UNL     1      42.516 -16.200   3.602  1.00  0.00     0.160 C 
HETATM    3  N   UNL     1      41.297 -15.602   3.074  1.00  0.00    -0.331 N 
HETATM    4  C   UNL     1      40.644 -14.472   3.527  1.00  0.00     0.323 C 
HETATM    5  N   UNL     1      41.393 -13.706   4.388  1.00  0.00    -0.309 N 
HETATM    6  O   UNL     1      39.498 -14.225   3.167  1.00  0.00    -0.247 OA
HETATM    7  C   UNL     1      40.633 -16.512   2.159  1.00  0.00     0.130 C 
HETATM    8  C   UNL     1      41.671 -17.578   1.860  1.00  0.00     0.054 C 
HETATM    9  H   UNL     1      42.390 -13.836   4.328  1.00  0.00     0.170 HD
ENDROOT
BRANCH   5  10
HETATM   10  C   UNL     1      40.951 -12.626   5.182  1.00  0.00     0.037 A 
HETATM   11  C   UNL     1      40.261 -12.792   6.390  1.00  0.00     0.043 A 
HETATM   12  C   UNL     1      39.889 -11.661   7.146  1.00  0.00    -0.006 A 
HETATM   13  C   UNL     1      40.218 -10.394   6.672  1.00  0.00     0.042 A 
HETATM   14  C   UNL     1      39.209 -11.482   8.383  1.00  0.00     0.030 A 
HETATM   15  N   UNL     1      39.747  -9.482   7.589  1.00  0.00    -0.365 N 
HETATM   16  C   UNL     1      40.907 -10.196   5.471  1.00  0.00     0.033 A 
HETATM   17  H   UNL     1      39.842  -8.479   7.503  1.00  0.00     0.165 HD
HETATM   18  C   UNL     1      39.138 -10.130   8.631  1.00  0.00     0.089 A 
HETATM   19  C   UNL     1      41.270 -11.336   4.741  1.00  0.00     0.032 A 
ENDBRANCH   5  10
BRANCH   1  20
HETATM   20  O   UNL     1      43.766 -18.180   2.984  1.00  0.00    -0.344 OA
BRANCH  20  21
HETATM   21  C   UNL     1      43.932 -19.531   2.857  1.00  0.00     0.070 A 
HETATM   22  C   UNL     1      44.434 -20.161   3.999  1.00  0.00     0.060 A 
HETATM   23  C   UNL     1      44.650 -21.538   4.005  1.00  0.00     0.036 A 
HETATM   24  C   UNL     1      44.367 -22.301   2.876  1.00  0.00     0.024 A 
HETATM   25 CL   UNL     1      45.271 -22.301   5.417  1.00  0.00    -0.084 Cl
HETATM   26  C   UNL     1      43.865 -21.680   1.735  1.00  0.00     0.004 A 
HETATM   27  C   UNL     1      43.648 -20.297   1.724  1.00  0.00     0.037 A 
ENDBRANCH  20  21
ENDBRANCH   1  20
TORSDOF 3
ENDMDL
