MODEL 1
REMARK VINA RESULT:      -7.6      0.000      0.000
REMARK  5 active torsions:
REMARK  status: ('A' for Active; 'I' for Inactive)
REMARK    1  A    between atoms: C_7  and  C_8 
REMARK    2  A    between atoms: C_8  and  N_9 
REMARK    3  A    between atoms: N_9  and  C_12 
REMARK    4  A    between atoms: C_15  and  O_16 
REMARK    5  A    between atoms: O_16  and  C_17 
ROOT
HETATM    1  C   UNL     1      43.055 -18.002   2.981  1.00  0.00     0.164 A 
HETATM    2  N   UNL     1      43.318 -18.017   4.304  1.00  0.00    -0.236 NA
HETATM    3  C   UNL     1      43.930 -19.128   4.789  1.00  0.00     0.142 A 
HETATM    4  C   UNL     1      44.282 -20.222   4.010  1.00  0.00     0.062 A 
HETATM    5  C   UNL     1      44.928 -21.352   4.597  1.00  0.00     0.101 C 
HETATM    6  N   UNL     1      45.452 -22.268   5.078  1.00  0.00    -0.191 NA
HETATM    7  C   UNL     1      43.984 -20.179   2.649  1.00  0.00     0.028 A 
HETATM    8  C   UNL     1      43.353 -19.051   2.125  1.00  0.00     0.059 A 
ENDROOT
BRANCH   1   9
HETATM    9  O   UNL     1      42.419 -16.914   2.423  1.00  0.00    -0.329 OA
BRANCH   9  10
HETATM   10  C   UNL     1      41.519 -17.232   1.354  1.00  0.00     0.130 C 
HETATM   11  C   UNL     1      40.119 -16.808   1.823  1.00  0.00     0.034 C 
HETATM   12  C   UNL     1      40.018 -15.295   2.038  1.00  0.00     0.035 C 
HETATM   13  C   UNL     1      40.435 -14.484   0.807  1.00  0.00     0.186 C 
HETATM   14  C   UNL     1      41.802 -14.937   0.280  1.00  0.00     0.035 C 
HETATM   15  C   UNL     1      41.905 -16.454   0.087  1.00  0.00     0.034 C 
BRANCH  13  16
HETATM   16  N   UNL     1      39.424 -14.631  -0.300  1.00  0.00    -0.067 N 
HETATM   17  H   UNL     1      38.475 -14.406   0.022  1.00  0.00     0.278 HD
HETATM   18  H   UNL     1      39.381 -15.622  -0.577  1.00  0.00     0.278 HD
BRANCH  16  19
HETATM   19  C   UNL     1      39.702 -13.861  -1.554  1.00  0.00     0.280 C 
BRANCH  19  20
HETATM   20  C   UNL     1      38.742 -14.231  -2.623  1.00  0.00     0.034 A 
HETATM   21  C   UNL     1      38.756 -15.315  -3.485  1.00  0.00     0.046 A 
HETATM   22  C   UNL     1      39.760 -16.411  -3.552  1.00  0.00     0.071 C 
HETATM   23  N   UNL     1      37.701 -15.351  -4.374  1.00  0.00    -0.250 NA
HETATM   24  C   UNL     1      36.882 -14.342  -4.175  1.00  0.00     0.072 A 
HETATM   25  C   UNL     1      35.621 -14.114  -4.932  1.00  0.00     0.078 C 
HETATM   26  S   UNL     1      37.367 -13.253  -2.940  1.00  0.00    -0.076 SA
ENDBRANCH  19  20
ENDBRANCH  16  19
ENDBRANCH  13  16
ENDBRANCH   9  10
ENDBRANCH   1   9
TORSDOF 5
ENDMDL
MODEL 2
REMARK VINA RESULT:      -7.4      6.075      9.031
REMARK  5 active torsions:
REMARK  status: ('A' for Active; 'I' for Inactive)
REMARK    1  A    between atoms: C_7  and  C_8 
REMARK    2  A    between atoms: C_8  and  N_9 
REMARK    3  A    between atoms: N_9  and  C_12 
REMARK    4  A    between atoms: C_15  and  O_16 
REMARK    5  A    between atoms: O_16  and  C_17 
ROOT
HETATM    1  C   UNL     1      43.066 -17.454   3.501  1.00  0.00     0.164 A 
HETATM    2  N   UNL     1      43.817 -18.191   4.345  1.00  0.00    -0.236 NA
HETATM    3  C   UNL     1      44.169 -19.431   3.919  1.00  0.00     0.142 A 
HETATM    4  C   UNL     1      43.796 -19.965   2.692  1.00  0.00     0.062 A 
HETATM    5  C   UNL     1      44.211 -21.278   2.316  1.00  0.00     0.101 C 
HETATM    6  N   UNL     1      44.550 -22.346   2.015  1.00  0.00    -0.191 NA
HETATM    7  C   UNL     1      43.008 -19.181   1.851  1.00  0.00     0.028 A 
HETATM    8  C   UNL     1      42.630 -17.904   2.264  1.00  0.00     0.059 A 
ENDROOT
BRANCH   1   9
HETATM    9  O   UNL     1      42.657 -16.192   3.876  1.00  0.00    -0.329 OA
BRANCH   9  10
HETATM   10  C   UNL     1      42.610 -15.976   5.293  1.00  0.00     0.130 C 
HETATM   11  C   UNL     1      43.637 -14.877   5.601  1.00  0.00     0.034 C 
HETATM   12  C   UNL     1      43.266 -13.543   4.947  1.00  0.00     0.035 C 
HETATM   13  C   UNL     1      41.855 -13.068   5.309  1.00  0.00     0.186 C 
HETATM   14  C   UNL     1      40.820 -14.174   5.073  1.00  0.00     0.035 C 
HETATM   15  C   UNL     1      41.206 -15.513   5.711  1.00  0.00     0.034 C 
BRANCH  13  16
HETATM   16  N   UNL     1      41.785 -12.649   6.754  1.00  0.00    -0.067 N 
HETATM   17  H   UNL     1      42.213 -13.349   7.373  1.00  0.00     0.278 HD
HETATM   18  H   UNL     1      40.796 -12.614   7.040  1.00  0.00     0.278 HD
BRANCH  16  19
HETATM   19  C   UNL     1      42.359 -11.304   7.079  1.00  0.00     0.280 C 
BRANCH  19  20
HETATM   20  C   UNL     1      42.925 -11.291   8.451  1.00  0.00     0.034 A 
HETATM   21  C   UNL     1      44.070 -11.899   8.940  1.00  0.00     0.046 A 
HETATM   22  C   UNL     1      45.048 -12.733   8.189  1.00  0.00     0.071 C 
HETATM   23  N   UNL     1      44.299 -11.687  10.284  1.00  0.00    -0.250 NA
HETATM   24  C   UNL     1      43.375 -10.908  10.803  1.00  0.00     0.072 A 
HETATM   25  C   UNL     1      43.356 -10.446  12.217  1.00  0.00     0.078 C 
HETATM   26  S   UNL     1      42.138 -10.433   9.712  1.00  0.00    -0.076 SA
ENDBRANCH  19  20
ENDBRANCH  16  19
ENDBRANCH  13  16
ENDBRANCH   9  10
ENDBRANCH   1   9
TORSDOF 5
ENDMDL
MODEL 3
REMARK VINA RESULT:      -7.3      1.623      2.199
REMARK  5 active torsions:
REMARK  status: ('A' for Active; 'I' for Inactive)
REMARK    1  A    between atoms: C_7  and  C_8 
REMARK    2  A    between atoms: C_8  and  N_9 
REMARK    3  A    between atoms: N_9  and  C_12 
REMARK    4  A    between atoms: C_15  and  O_16 
REMARK    5  A    between atoms: O_16  and  C_17 
ROOT
HETATM    1  C   UNL     1      43.147 -18.118   2.939  1.00  0.00     0.164 A 
HETATM    2  N   UNL     1      43.363 -18.111   4.271  1.00  0.00    -0.236 NA
HETATM    3  C   UNL     1      43.944 -19.219   4.797  1.00  0.00     0.142 A 
HETATM    4  C   UNL     1      44.310 -20.331   4.051  1.00  0.00     0.062 A 
HETATM    5  C   UNL     1      44.923 -21.458   4.681  1.00  0.00     0.101 C 
HETATM    6  N   UNL     1      45.419 -22.370   5.197  1.00  0.00    -0.191 NA
HETATM    7  C   UNL     1      44.061 -20.311   2.680  1.00  0.00     0.028 A 
HETATM    8  C   UNL     1      43.462 -19.186   2.113  1.00  0.00     0.059 A 
ENDROOT
BRANCH   1   9
HETATM    9  O   UNL     1      42.544 -17.033   2.339  1.00  0.00    -0.329 OA
BRANCH   9  10
HETATM   10  C   UNL     1      41.510 -17.367   1.403  1.00  0.00     0.130 C 
HETATM   11  C   UNL     1      40.190 -16.886   2.022  1.00  0.00     0.034 C 
HETATM   12  C   UNL     1      40.151 -15.364   2.185  1.00  0.00     0.035 C 
HETATM   13  C   UNL     1      40.431 -14.613   0.879  1.00  0.00     0.186 C 
HETATM   14  C   UNL     1      41.711 -15.124   0.208  1.00  0.00     0.035 C 
HETATM   15  C   UNL     1      41.754 -16.649   0.067  1.00  0.00     0.034 C 
BRANCH  13  16
HETATM   16  N   UNL     1      39.288 -14.774  -0.087  1.00  0.00    -0.067 N 
HETATM   17  H   UNL     1      38.453 -15.157   0.374  1.00  0.00     0.278 HD
HETATM   18  H   UNL     1      39.548 -15.480  -0.791  1.00  0.00     0.278 HD
BRANCH  16  19
HETATM   19  C   UNL     1      38.894 -13.548  -0.853  1.00  0.00     0.280 C 
BRANCH  19  20
HETATM   20  C   UNL     1      39.831 -13.306  -1.977  1.00  0.00     0.034 A 
HETATM   21  C   UNL     1      40.130 -14.107  -3.067  1.00  0.00     0.046 A 
HETATM   22  C   UNL     1      39.564 -15.443  -3.395  1.00  0.00     0.071 C 
HETATM   23  N   UNL     1      41.067 -13.573  -3.928  1.00  0.00    -0.250 NA
HETATM   24  C   UNL     1      41.449 -12.380  -3.529  1.00  0.00     0.072 A 
HETATM   25  C   UNL     1      42.413 -11.512  -4.259  1.00  0.00     0.078 C 
HETATM   26  S   UNL     1      40.744 -11.854  -2.054  1.00  0.00    -0.076 SA
ENDBRANCH  19  20
ENDBRANCH  16  19
ENDBRANCH  13  16
ENDBRANCH   9  10
ENDBRANCH   1   9
TORSDOF 5
ENDMDL
MODEL 4
REMARK VINA RESULT:      -7.3      6.148      8.907
REMARK  5 active torsions:
REMARK  status: ('A' for Active; 'I' for Inactive)
REMARK    1  A    between atoms: C_7  and  C_8 
REMARK    2  A    between atoms: C_8  and  N_9 
REMARK    3  A    between atoms: N_9  and  C_12 
REMARK    4  A    between atoms: C_15  and  O_16 
REMARK    5  A    between atoms: O_16  and  C_17 
ROOT
HETATM    1  C   UNL     1      43.502 -17.537   3.561  1.00  0.00     0.164 A 
HETATM    2  N   UNL     1      43.947 -18.392   4.504  1.00  0.00    -0.236 NA
HETATM    3  C   UNL     1      44.210 -19.661   4.098  1.00  0.00     0.142 A 
HETATM    4  C   UNL     1      44.038 -20.109   2.796  1.00  0.00     0.062 A 
HETATM    5  C   UNL     1      44.341 -21.461   2.448  1.00  0.00     0.101 C 
HETATM    6  N   UNL     1      44.587 -22.560   2.170  1.00  0.00    -0.191 NA
HETATM    7  C   UNL     1      43.562 -19.203   1.849  1.00  0.00     0.028 A 
HETATM    8  C   UNL     1      43.282 -17.894   2.240  1.00  0.00     0.059 A 
ENDROOT
BRANCH   1   9
HETATM    9  O   UNL     1      43.198 -16.237   3.907  1.00  0.00    -0.329 OA
BRANCH   9  10
HETATM   10  C   UNL     1      42.689 -16.077   5.237  1.00  0.00     0.130 C 
HETATM   11  C   UNL     1      43.666 -15.145   5.968  1.00  0.00     0.034 C 
HETATM   12  C   UNL     1      43.701 -13.746   5.346  1.00  0.00     0.035 C 
HETATM   13  C   UNL     1      42.317 -13.095   5.250  1.00  0.00     0.186 C 
HETATM   14  C   UNL     1      41.307 -14.036   4.582  1.00  0.00     0.035 C 
HETATM   15  C   UNL     1      41.291 -15.441   5.194  1.00  0.00     0.034 C 
BRANCH  13  16
HETATM   16  N   UNL     1      41.800 -12.731   6.617  1.00  0.00    -0.067 N 
HETATM   17  H   UNL     1      42.387 -13.126   7.362  1.00  0.00     0.278 HD
HETATM   18  H   UNL     1      40.877 -13.169   6.748  1.00  0.00     0.278 HD
BRANCH  16  19
HETATM   19  C   UNL     1      41.608 -11.269   6.881  1.00  0.00     0.280 C 
BRANCH  19  20
HETATM   20  C   UNL     1      41.822 -10.961   8.317  1.00  0.00     0.034 A 
HETATM   21  C   UNL     1      40.911 -10.556   9.279  1.00  0.00     0.046 A 
HETATM   22  C   UNL     1      39.450 -10.330   9.109  1.00  0.00     0.071 C 
HETATM   23  N   UNL     1      41.457 -10.346  10.528  1.00  0.00    -0.250 NA
HETATM   24  C   UNL     1      42.743 -10.617  10.533  1.00  0.00     0.072 A 
HETATM   25  C   UNL     1      43.620 -10.539  11.734  1.00  0.00     0.078 C 
HETATM   26  S   UNL     1      43.387 -11.085   9.012  1.00  0.00    -0.076 SA
ENDBRANCH  19  20
ENDBRANCH  16  19
ENDBRANCH  13  16
ENDBRANCH   9  10
ENDBRANCH   1   9
TORSDOF 5
ENDMDL
MODEL 5
REMARK VINA RESULT:      -7.3      5.885      7.975
REMARK  5 active torsions:
REMARK  status: ('A' for Active; 'I' for Inactive)
REMARK    1  A    between atoms: C_7  and  C_8 
REMARK    2  A    between atoms: C_8  and  N_9 
REMARK    3  A    between atoms: N_9  and  C_12 
REMARK    4  A    between atoms: C_15  and  O_16 
REMARK    5  A    between atoms: O_16  and  C_17 
ROOT
HETATM    1  C   UNL     1      43.574 -17.393   3.682  1.00  0.00     0.164 A 
HETATM    2  N   UNL     1      44.037 -18.351   4.512  1.00  0.00    -0.236 NA
HETATM    3  C   UNL     1      44.213 -19.585   3.976  1.00  0.00     0.142 A 
HETATM    4  C   UNL     1      43.939 -19.903   2.652  1.00  0.00     0.062 A 
HETATM    5  C   UNL     1      44.156 -21.228   2.164  1.00  0.00     0.101 C 
HETATM    6  N   UNL     1      44.332 -22.305   1.772  1.00  0.00    -0.191 NA
HETATM    7  C   UNL     1      43.449 -18.893   1.825  1.00  0.00     0.028 A 
HETATM    8  C   UNL     1      43.257 -17.615   2.350  1.00  0.00     0.059 A 
ENDROOT
BRANCH   1   9
HETATM    9  O   UNL     1      43.355 -16.120   4.162  1.00  0.00    -0.329 OA
BRANCH   9  10
HETATM   10  C   UNL     1      42.801 -16.068   5.484  1.00  0.00     0.130 C 
HETATM   11  C   UNL     1      43.199 -14.706   6.070  1.00  0.00     0.034 C 
HETATM   12  C   UNL     1      42.577 -13.542   5.294  1.00  0.00     0.035 C 
HETATM   13  C   UNL     1      41.053 -13.645   5.175  1.00  0.00     0.186 C 
HETATM   14  C   UNL     1      40.629 -15.022   4.654  1.00  0.00     0.035 C 
HETATM   15  C   UNL     1      41.270 -16.184   5.420  1.00  0.00     0.034 C 
BRANCH  13  16
HETATM   16  N   UNL     1      40.395 -13.415   6.510  1.00  0.00    -0.067 N 
HETATM   17  H   UNL     1      41.081 -13.403   7.274  1.00  0.00     0.278 HD
HETATM   18  H   UNL     1      39.782 -14.216   6.718  1.00  0.00     0.278 HD
BRANCH  16  19
HETATM   19  C   UNL     1      39.534 -12.194   6.619  1.00  0.00     0.280 C 
BRANCH  19  20
HETATM   20  C   UNL     1      40.256 -11.102   7.318  1.00  0.00     0.034 A 
HETATM   21  C   UNL     1      41.109 -10.138   6.807  1.00  0.00     0.046 A 
HETATM   22  C   UNL     1      41.521  -9.948   5.389  1.00  0.00     0.071 C 
HETATM   23  N   UNL     1      41.621  -9.270   7.749  1.00  0.00    -0.250 NA
HETATM   24  C   UNL     1      41.144  -9.538   8.945  1.00  0.00     0.072 A 
HETATM   25  C   UNL     1      41.457  -8.760  10.175  1.00  0.00     0.078 C 
HETATM   26  S   UNL     1      40.094 -10.894   9.015  1.00  0.00    -0.076 SA
ENDBRANCH  19  20
ENDBRANCH  16  19
ENDBRANCH  13  16
ENDBRANCH   9  10
ENDBRANCH   1   9
TORSDOF 5
ENDMDL
MODEL 6
REMARK VINA RESULT:      -7.0      2.833      9.321
REMARK  5 active torsions:
REMARK  status: ('A' for Active; 'I' for Inactive)
REMARK    1  A    between atoms: C_7  and  C_8 
REMARK    2  A    between atoms: C_8  and  N_9 
REMARK    3  A    between atoms: N_9  and  C_12 
REMARK    4  A    between atoms: C_15  and  O_16 
REMARK    5  A    between atoms: O_16  and  C_17 
ROOT
HETATM    1  C   UNL     1      40.573 -15.042  -0.998  1.00  0.00     0.164 A 
HETATM    2  N   UNL     1      39.502 -14.265  -0.738  1.00  0.00    -0.236 NA
HETATM    3  C   UNL     1      38.568 -14.170  -1.718  1.00  0.00     0.142 A 
HETATM    4  C   UNL     1      38.664 -14.810  -2.946  1.00  0.00     0.062 A 
HETATM    5  C   UNL     1      37.634 -14.662  -3.925  1.00  0.00     0.101 C 
HETATM    6  N   UNL     1      36.796 -14.538  -4.717  1.00  0.00    -0.191 NA
HETATM    7  C   UNL     1      39.791 -15.594  -3.188  1.00  0.00     0.028 A 
HETATM    8  C   UNL     1      40.768 -15.707  -2.199  1.00  0.00     0.059 A 
ENDROOT
BRANCH   1   9
HETATM    9  O   UNL     1      41.570 -15.170  -0.055  1.00  0.00    -0.329 OA
BRANCH   9  10
HETATM   10  C   UNL     1      41.739 -16.498   0.458  1.00  0.00     0.130 C 
HETATM   11  C   UNL     1      43.112 -16.529   1.144  1.00  0.00     0.034 C 
HETATM   12  C   UNL     1      43.173 -15.588   2.351  1.00  0.00     0.035 C 
HETATM   13  C   UNL     1      42.062 -15.849   3.373  1.00  0.00     0.186 C 
HETATM   14  C   UNL     1      40.686 -15.889   2.699  1.00  0.00     0.035 C 
HETATM   15  C   UNL     1      40.636 -16.816   1.479  1.00  0.00     0.034 C 
BRANCH  13  16
HETATM   16  N   UNL     1      42.284 -17.157   4.084  1.00  0.00    -0.067 N 
HETATM   17  H   UNL     1      42.189 -17.957   3.446  1.00  0.00     0.278 HD
HETATM   18  H   UNL     1      41.536 -17.285   4.781  1.00  0.00     0.278 HD
BRANCH  16  19
HETATM   19  C   UNL     1      43.575 -17.291   4.832  1.00  0.00     0.280 C 
BRANCH  19  20
HETATM   20  C   UNL     1      43.914 -18.719   5.047  1.00  0.00     0.034 A 
HETATM   21  C   UNL     1      44.008 -19.437   6.228  1.00  0.00     0.046 A 
HETATM   22  C   UNL     1      43.779 -18.941   7.613  1.00  0.00     0.071 C 
HETATM   23  N   UNL     1      44.357 -20.761   6.065  1.00  0.00    -0.250 NA
HETATM   24  C   UNL     1      44.492 -21.061   4.792  1.00  0.00     0.072 A 
HETATM   25  C   UNL     1      44.816 -22.417   4.272  1.00  0.00     0.078 C 
HETATM   26  S   UNL     1      44.264 -19.744   3.715  1.00  0.00    -0.076 SA
ENDBRANCH  19  20
ENDBRANCH  16  19
ENDBRANCH  13  16
ENDBRANCH   9  10
ENDBRANCH   1   9
TORSDOF 5
ENDMDL
MODEL 7
REMARK VINA RESULT:      -6.9      2.068      2.603
REMARK  5 active torsions:
REMARK  status: ('A' for Active; 'I' for Inactive)
REMARK    1  A    between atoms: C_7  and  C_8 
REMARK    2  A    between atoms: C_8  and  N_9 
REMARK    3  A    between atoms: N_9  and  C_12 
REMARK    4  A    between atoms: C_15  and  O_16 
REMARK    5  A    between atoms: O_16  and  C_17 
ROOT
HETATM    1  C   UNL     1      43.276 -17.953   2.587  1.00  0.00     0.164 A 
HETATM    2  N   UNL     1      43.461 -17.882   3.922  1.00  0.00    -0.236 NA
HETATM    3  C   UNL     1      43.984 -18.982   4.521  1.00  0.00     0.142 A 
HETATM    4  C   UNL     1      44.321 -20.147   3.846  1.00  0.00     0.062 A 
HETATM    5  C   UNL     1      44.871 -21.261   4.550  1.00  0.00     0.101 C 
HETATM    6  N   UNL     1      45.317 -22.164   5.126  1.00  0.00    -0.191 NA
HETATM    7  C   UNL     1      44.103 -20.192   2.469  1.00  0.00     0.028 A 
HETATM    8  C   UNL     1      43.565 -19.077   1.828  1.00  0.00     0.059 A 
ENDROOT
BRANCH   1   9
HETATM    9  O   UNL     1      42.732 -16.879   1.915  1.00  0.00    -0.329 OA
BRANCH   9  10
HETATM   10  C   UNL     1      41.557 -17.185   1.153  1.00  0.00     0.130 C 
HETATM   11  C   UNL     1      40.362 -16.988   2.097  1.00  0.00     0.034 C 
HETATM   12  C   UNL     1      40.219 -15.531   2.547  1.00  0.00     0.035 C 
HETATM   13  C   UNL     1      40.141 -14.545   1.376  1.00  0.00     0.186 C 
HETATM   14  C   UNL     1      41.288 -14.769   0.385  1.00  0.00     0.035 C 
HETATM   15  C   UNL     1      41.441 -16.232  -0.046  1.00  0.00     0.034 C 
BRANCH  13  16
HETATM   16  N   UNL     1      38.836 -14.692   0.639  1.00  0.00    -0.067 N 
HETATM   17  H   UNL     1      38.432 -15.628   0.766  1.00  0.00     0.278 HD
HETATM   18  H   UNL     1      39.019 -14.619  -0.372  1.00  0.00     0.278 HD
BRANCH  16  19
HETATM   19  C   UNL     1      37.786 -13.669   0.946  1.00  0.00     0.280 C 
BRANCH  19  20
HETATM   20  C   UNL     1      37.515 -12.820  -0.240  1.00  0.00     0.034 A 
HETATM   21  C   UNL     1      36.673 -11.728  -0.371  1.00  0.00     0.046 A 
HETATM   22  C   UNL     1      35.812 -11.113   0.676  1.00  0.00     0.071 C 
HETATM   23  N   UNL     1      36.653 -11.171  -1.633  1.00  0.00    -0.250 NA
HETATM   24  C   UNL     1      37.484 -11.796  -2.438  1.00  0.00     0.072 A 
HETATM   25  C   UNL     1      37.737 -11.415  -3.855  1.00  0.00     0.078 C 
HETATM   26  S   UNL     1      38.297 -13.134  -1.736  1.00  0.00    -0.076 SA
ENDBRANCH  19  20
ENDBRANCH  16  19
ENDBRANCH  13  16
ENDBRANCH   9  10
ENDBRANCH   1   9
TORSDOF 5
ENDMDL
MODEL 8
REMARK VINA RESULT:      -6.7      1.618      2.112
REMARK  5 active torsions:
REMARK  status: ('A' for Active; 'I' for Inactive)
REMARK    1  A    between atoms: C_7  and  C_8 
REMARK    2  A    between atoms: C_8  and  N_9 
REMARK    3  A    between atoms: N_9  and  C_12 
REMARK    4  A    between atoms: C_15  and  O_16 
REMARK    5  A    between atoms: O_16  and  C_17 
ROOT
HETATM    1  C   UNL     1      42.522 -17.570   3.201  1.00  0.00     0.164 A 
HETATM    2  N   UNL     1      42.591 -17.796   4.529  1.00  0.00    -0.236 NA
HETATM    3  C   UNL     1      43.313 -18.875   4.924  1.00  0.00     0.142 A 
HETATM    4  C   UNL     1      43.959 -19.739   4.050  1.00  0.00     0.062 A 
HETATM    5  C   UNL     1      44.703 -20.852   4.547  1.00  0.00     0.101 C 
HETATM    6  N   UNL     1      45.306 -21.755   4.955  1.00  0.00    -0.191 NA
HETATM    7  C   UNL     1      43.856 -19.484   2.684  1.00  0.00     0.028 A 
HETATM    8  C   UNL     1      43.118 -18.383   2.249  1.00  0.00     0.059 A 
ENDROOT
BRANCH   1   9
HETATM    9  O   UNL     1      41.791 -16.501   2.727  1.00  0.00    -0.329 OA
BRANCH   9  10
HETATM   10  C   UNL     1      42.433 -15.755   1.685  1.00  0.00     0.130 C 
HETATM   11  C   UNL     1      41.462 -15.745   0.495  1.00  0.00     0.034 C 
HETATM   12  C   UNL     1      40.161 -15.004   0.820  1.00  0.00     0.035 C 
HETATM   13  C   UNL     1      40.393 -13.578   1.329  1.00  0.00     0.186 C 
HETATM   14  C   UNL     1      41.412 -13.556   2.475  1.00  0.00     0.035 C 
HETATM   15  C   UNL     1      42.703 -14.317   2.152  1.00  0.00     0.034 C 
BRANCH  13  16
HETATM   16  N   UNL     1      40.898 -12.690   0.223  1.00  0.00    -0.067 N 
HETATM   17  H   UNL     1      41.748 -13.071  -0.210  1.00  0.00     0.278 HD
HETATM   18  H   UNL     1      41.191 -11.790   0.630  1.00  0.00     0.278 HD
BRANCH  16  19
HETATM   19  C   UNL     1      39.915 -12.358  -0.857  1.00  0.00     0.280 C 
BRANCH  19  20
HETATM   20  C   UNL     1      39.997 -13.343  -1.964  1.00  0.00     0.034 A 
HETATM   21  C   UNL     1      41.069 -13.671  -2.777  1.00  0.00     0.046 A 
HETATM   22  C   UNL     1      42.446 -13.106  -2.738  1.00  0.00     0.071 C 
HETATM   23  N   UNL     1      40.793 -14.636  -3.725  1.00  0.00    -0.250 NA
HETATM   24  C   UNL     1      39.554 -15.062  -3.616  1.00  0.00     0.072 A 
HETATM   25  C   UNL     1      38.953 -16.135  -4.455  1.00  0.00     0.078 C 
HETATM   26  S   UNL     1      38.627 -14.280  -2.402  1.00  0.00    -0.076 SA
ENDBRANCH  19  20
ENDBRANCH  16  19
ENDBRANCH  13  16
ENDBRANCH   9  10
ENDBRANCH   1   9
TORSDOF 5
ENDMDL
MODEL 9
REMARK VINA RESULT:      -6.7      3.106      4.040
REMARK  5 active torsions:
REMARK  status: ('A' for Active; 'I' for Inactive)
REMARK    1  A    between atoms: C_7  and  C_8 
REMARK    2  A    between atoms: C_8  and  N_9 
REMARK    3  A    between atoms: N_9  and  C_12 
REMARK    4  A    between atoms: C_15  and  O_16 
REMARK    5  A    between atoms: O_16  and  C_17 
ROOT
HETATM    1  C   UNL     1      43.154 -17.548   3.358  1.00  0.00     0.164 A 
HETATM    2  N   UNL     1      44.007 -18.180   4.189  1.00  0.00    -0.236 NA
HETATM    3  C   UNL     1      44.360 -19.446   3.850  1.00  0.00     0.142 A 
HETATM    4  C   UNL     1      43.891 -20.107   2.723  1.00  0.00     0.062 A 
HETATM    5  C   UNL     1      44.315 -21.440   2.434  1.00  0.00     0.101 C 
HETATM    6  N   UNL     1      44.661 -22.522   2.203  1.00  0.00    -0.191 NA
HETATM    7  C   UNL     1      42.999 -19.430   1.892  1.00  0.00     0.028 A 
HETATM    8  C   UNL     1      42.618 -18.129   2.218  1.00  0.00     0.059 A 
ENDROOT
BRANCH   1   9
HETATM    9  O   UNL     1      42.739 -16.267   3.650  1.00  0.00    -0.329 OA
BRANCH   9  10
HETATM   10  C   UNL     1      43.212 -15.265   2.741  1.00  0.00     0.130 C 
HETATM   11  C   UNL     1      41.997 -14.812   1.918  1.00  0.00     0.034 C 
HETATM   12  C   UNL     1      40.932 -14.139   2.789  1.00  0.00     0.035 C 
HETATM   13  C   UNL     1      41.481 -12.970   3.613  1.00  0.00     0.186 C 
HETATM   14  C   UNL     1      42.736 -13.381   4.391  1.00  0.00     0.035 C 
HETATM   15  C   UNL     1      43.790 -14.073   3.520  1.00  0.00     0.034 C 
BRANCH  13  16
HETATM   16  N   UNL     1      41.828 -11.805   2.725  1.00  0.00    -0.067 N 
HETATM   17  H   UNL     1      42.609 -12.028   2.096  1.00  0.00     0.278 HD
HETATM   18  H   UNL     1      42.176 -11.034   3.313  1.00  0.00     0.278 HD
BRANCH  16  19
HETATM   19  C   UNL     1      40.705 -11.235   1.915  1.00  0.00     0.280 C 
BRANCH  19  20
HETATM   20  C   UNL     1      41.045 -11.235   0.470  1.00  0.00     0.034 A 
HETATM   21  C   UNL     1      40.522 -11.999  -0.560  1.00  0.00     0.046 A 
HETATM   22  C   UNL     1      39.455 -13.032  -0.474  1.00  0.00     0.071 C 
HETATM   23  N   UNL     1      41.080 -11.747  -1.797  1.00  0.00    -0.250 NA
HETATM   24  C   UNL     1      41.980 -10.791  -1.723  1.00  0.00     0.072 A 
HETATM   25  C   UNL     1      42.733 -10.247  -2.886  1.00  0.00     0.078 C 
HETATM   26  S   UNL     1      42.252 -10.179  -0.143  1.00  0.00    -0.076 SA
ENDBRANCH  19  20
ENDBRANCH  16  19
ENDBRANCH  13  16
ENDBRANCH   9  10
ENDBRANCH   1   9
TORSDOF 5
ENDMDL
MODEL 10
REMARK VINA RESULT:      -6.7      2.071      2.939
REMARK  5 active torsions:
REMARK  status: ('A' for Active; 'I' for Inactive)
REMARK    1  A    between atoms: C_7  and  C_8 
REMARK    2  A    between atoms: C_8  and  N_9 
REMARK    3  A    between atoms: N_9  and  C_12 
REMARK    4  A    between atoms: C_15  and  O_16 
REMARK    5  A    between atoms: O_16  and  C_17 
ROOT
HETATM    1  C   UNL     1      43.648 -17.786   2.795  1.00  0.00     0.164 A 
HETATM    2  N   UNL     1      44.018 -18.255   4.005  1.00  0.00    -0.236 NA
HETATM    3  C   UNL     1      44.283 -19.584   4.085  1.00  0.00     0.142 A 
HETATM    4  C   UNL     1      44.187 -20.460   3.013  1.00  0.00     0.062 A 
HETATM    5  C   UNL     1      44.488 -21.847   3.180  1.00  0.00     0.101 C 
HETATM    6  N   UNL     1      44.732 -22.972   3.320  1.00  0.00    -0.191 NA
HETATM    7  C   UNL     1      43.788 -19.945   1.781  1.00  0.00     0.028 A 
HETATM    8  C   UNL     1      43.507 -18.584   1.670  1.00  0.00     0.059 A 
ENDROOT
BRANCH   1   9
HETATM    9  O   UNL     1      43.347 -16.449   2.644  1.00  0.00    -0.329 OA
BRANCH   9  10
HETATM   10  C   UNL     1      42.252 -15.990   3.448  1.00  0.00     0.130 C 
HETATM   11  C   UNL     1      42.068 -14.500   3.124  1.00  0.00     0.034 C 
HETATM   12  C   UNL     1      41.659 -14.275   1.665  1.00  0.00     0.035 C 
HETATM   13  C   UNL     1      40.409 -15.065   1.263  1.00  0.00     0.186 C 
HETATM   14  C   UNL     1      40.543 -16.545   1.638  1.00  0.00     0.035 C 
HETATM   15  C   UNL     1      40.974 -16.765   3.093  1.00  0.00     0.034 C 
BRANCH  13  16
HETATM   16  N   UNL     1      39.184 -14.510   1.938  1.00  0.00    -0.067 N 
HETATM   17  H   UNL     1      39.406 -13.684   2.508  1.00  0.00     0.278 HD
HETATM   18  H   UNL     1      38.833 -15.206   2.611  1.00  0.00     0.278 HD
BRANCH  16  19
HETATM   19  C   UNL     1      38.029 -14.179   1.043  1.00  0.00     0.280 C 
BRANCH  19  20
HETATM   20  C   UNL     1      38.385 -13.080   0.110  1.00  0.00     0.034 A 
HETATM   21  C   UNL     1      38.411 -13.071  -1.275  1.00  0.00     0.046 A 
HETATM   22  C   UNL     1      38.075 -14.189  -2.198  1.00  0.00     0.071 C 
HETATM   23  N   UNL     1      38.802 -11.870  -1.830  1.00  0.00    -0.250 NA
HETATM   24  C   UNL     1      39.033 -10.972  -0.898  1.00  0.00     0.072 A 
HETATM   25  C   UNL     1      39.424  -9.560  -1.162  1.00  0.00     0.078 C 
HETATM   26  S   UNL     1      38.851 -11.541   0.711  1.00  0.00    -0.076 SA
ENDBRANCH  19  20
ENDBRANCH  16  19
ENDBRANCH  13  16
ENDBRANCH   9  10
ENDBRANCH   1   9
TORSDOF 5
ENDMDL
