MODEL 1
REMARK VINA RESULT:      -8.2      0.000      0.000
REMARK  6 active torsions:
REMARK  status: ('A' for Active; 'I' for Inactive)
REMARK    1  A    between atoms: C_4  and  C_5 
REMARK    2  A    between atoms: C_9  and  N_10 
REMARK       I    between atoms: N_10  and  C_11 
REMARK    3  A    between atoms: C_11  and  C_12 
REMARK    4  A    between atoms: C_12  and  C_13 
REMARK    5  A    between atoms: C_13  and  C_14 
REMARK    6  A    between atoms: C_13  and  C_20 
ROOT
HETATM    1  N   UNL     1      41.769 -17.282   1.107  1.00  0.00    -0.312 N 
HETATM    2  C   UNL     1      42.979 -17.900   1.340  1.00  0.00     0.224 C 
HETATM    3  O   UNL     1      44.060 -17.424   0.977  1.00  0.00    -0.273 OA
HETATM    4  H   UNL     1      40.898 -17.724   1.363  1.00  0.00     0.170 HD
ENDROOT
BRANCH   1   5
HETATM    5  C   UNL     1      41.671 -16.086   0.420  1.00  0.00     0.132 A 
HETATM    6  N   UNL     1      41.270 -15.982  -0.887  1.00  0.00    -0.261 N 
HETATM    7  N   UNL     1      41.247 -14.721  -1.348  1.00  0.00    -0.170 NA
HETATM    8  H   UNL     1      40.998 -16.749  -1.496  1.00  0.00     0.191 HD
HETATM    9  C   UNL     1      41.644 -13.990  -0.296  1.00  0.00     0.120 A 
HETATM   10  C   UNL     1      41.923 -14.798   0.847  1.00  0.00     0.017 A 
HETATM   11  C   UNL     1      42.375 -14.339   2.183  1.00  0.00     0.055 C 
BRANCH   9  12
HETATM   12  C   UNL     1      41.764 -12.501  -0.367  1.00  0.00     0.106 A 
HETATM   13  O   UNL     1      42.911 -11.821  -0.678  1.00  0.00    -0.313 OA
HETATM   14  C   UNL     1      42.624 -10.491  -0.640  1.00  0.00     0.050 A 
HETATM   15  C   UNL     1      43.730  -9.567  -0.956  1.00  0.00     0.076 C 
HETATM   16  C   UNL     1      41.300 -10.300  -0.307  1.00  0.00     0.035 A 
HETATM   17  C   UNL     1      40.749 -11.592  -0.132  1.00  0.00     0.042 A 
ENDBRANCH   9  12
ENDBRANCH   1   5
BRANCH   2  18
HETATM   18  C   UNL     1      42.969 -19.218   2.109  1.00  0.00     0.116 C 
BRANCH  18  19
HETATM   19  C   UNL     1      44.205 -19.613   2.942  1.00  0.00     0.049 C 
BRANCH  19  20
HETATM   20  C   UNL     1      44.076 -19.355   4.441  1.00  0.00    -0.050 A 
HETATM   21  C   UNL     1      44.096 -20.388   5.392  1.00  0.00     0.008 A 
HETATM   22  C   UNL     1      43.942 -20.107   6.752  1.00  0.00     0.001 A 
HETATM   23  C   UNL     1      43.775 -18.793   7.182  1.00  0.00     0.000 A 
HETATM   24  C   UNL     1      43.775 -17.755   6.255  1.00  0.00     0.001 A 
HETATM   25  C   UNL     1      43.929 -18.032   4.896  1.00  0.00     0.008 A 
ENDBRANCH  19  20
BRANCH  19  26
HETATM   26  C   UNL     1      44.609 -21.039   2.596  1.00  0.00    -0.027 C 
HETATM   27  C   UNL     1      44.048 -21.866   1.704  1.00  0.00     0.007 C 
ENDBRANCH  19  26
ENDBRANCH  18  19
ENDBRANCH   2  18
TORSDOF 6
ENDMDL
MODEL 2
REMARK VINA RESULT:      -8.2      3.180      4.488
REMARK  6 active torsions:
REMARK  status: ('A' for Active; 'I' for Inactive)
REMARK    1  A    between atoms: C_4  and  C_5 
REMARK    2  A    between atoms: C_9  and  N_10 
REMARK       I    between atoms: N_10  and  C_11 
REMARK    3  A    between atoms: C_11  and  C_12 
REMARK    4  A    between atoms: C_12  and  C_13 
REMARK    5  A    between atoms: C_13  and  C_14 
REMARK    6  A    between atoms: C_13  and  C_20 
ROOT
HETATM    1  N   UNL     1      41.995 -15.874  -0.057  1.00  0.00    -0.312 N 
HETATM    2  C   UNL     1      41.837 -16.819   0.934  1.00  0.00     0.224 C 
HETATM    3  O   UNL     1      40.756 -17.038   1.490  1.00  0.00    -0.273 OA
HETATM    4  H   UNL     1      42.903 -15.676  -0.452  1.00  0.00     0.170 HD
ENDROOT
BRANCH   1   5
HETATM    5  C   UNL     1      40.951 -15.075  -0.490  1.00  0.00     0.132 A 
HETATM    6  N   UNL     1      40.295 -14.172   0.306  1.00  0.00    -0.261 N 
HETATM    7  N   UNL     1      39.316 -13.505  -0.326  1.00  0.00    -0.170 NA
HETATM    8  H   UNL     1      40.492 -13.979   1.285  1.00  0.00     0.191 HD
HETATM    9  C   UNL     1      39.349 -13.996  -1.573  1.00  0.00     0.120 A 
HETATM   10  C   UNL     1      40.362 -14.988  -1.735  1.00  0.00     0.017 A 
HETATM   11  C   UNL     1      40.694 -15.740  -2.969  1.00  0.00     0.055 C 
BRANCH   9  12
HETATM   12  C   UNL     1      38.408 -13.522  -2.635  1.00  0.00     0.106 A 
HETATM   13  O   UNL     1      37.436 -14.289  -3.219  1.00  0.00    -0.313 OA
HETATM   14  C   UNL     1      36.792 -13.512  -4.132  1.00  0.00     0.050 A 
HETATM   15  C   UNL     1      35.689 -14.147  -4.878  1.00  0.00     0.076 C 
HETATM   16  C   UNL     1      37.337 -12.246  -4.146  1.00  0.00     0.035 A 
HETATM   17  C   UNL     1      38.376 -12.254  -3.184  1.00  0.00     0.042 A 
ENDBRANCH   9  12
ENDBRANCH   1   5
BRANCH   2  18
HETATM   18  C   UNL     1      43.057 -17.644   1.332  1.00  0.00     0.116 C 
BRANCH  18  19
HETATM   19  C   UNL     1      43.122 -18.259   2.745  1.00  0.00     0.049 C 
BRANCH  19  20
HETATM   20  C   UNL     1      43.670 -19.683   2.798  1.00  0.00    -0.050 A 
HETATM   21  C   UNL     1      43.527 -20.589   1.736  1.00  0.00     0.008 A 
HETATM   22  C   UNL     1      44.016 -21.894   1.843  1.00  0.00     0.001 A 
HETATM   23  C   UNL     1      44.663 -22.307   3.005  1.00  0.00     0.000 A 
HETATM   24  C   UNL     1      44.833 -21.415   4.059  1.00  0.00     0.001 A 
HETATM   25  C   UNL     1      44.346 -20.111   3.956  1.00  0.00     0.008 A 
ENDBRANCH  19  20
BRANCH  19  26
HETATM   26  C   UNL     1      43.831 -17.291   3.682  1.00  0.00    -0.027 C 
HETATM   27  C   UNL     1      43.307 -16.581   4.690  1.00  0.00     0.007 C 
ENDBRANCH  19  26
ENDBRANCH  18  19
ENDBRANCH   2  18
TORSDOF 6
ENDMDL
MODEL 3
REMARK VINA RESULT:      -8.1      2.336      3.840
REMARK  6 active torsions:
REMARK  status: ('A' for Active; 'I' for Inactive)
REMARK    1  A    between atoms: C_4  and  C_5 
REMARK    2  A    between atoms: C_9  and  N_10 
REMARK       I    between atoms: N_10  and  C_11 
REMARK    3  A    between atoms: C_11  and  C_12 
REMARK    4  A    between atoms: C_12  and  C_13 
REMARK    5  A    between atoms: C_13  and  C_14 
REMARK    6  A    between atoms: C_13  and  C_20 
ROOT
HETATM    1  N   UNL     1      40.933 -17.138   3.517  1.00  0.00    -0.312 N 
HETATM    2  C   UNL     1      41.413 -16.580   4.682  1.00  0.00     0.224 C 
HETATM    3  O   UNL     1      41.638 -15.372   4.808  1.00  0.00    -0.273 OA
HETATM    4  H   UNL     1      40.815 -18.136   3.424  1.00  0.00     0.170 HD
ENDROOT
BRANCH   1   5
HETATM    5  C   UNL     1      40.689 -16.384   2.382  1.00  0.00     0.132 A 
HETATM    6  N   UNL     1      39.606 -15.559   2.228  1.00  0.00    -0.261 N 
HETATM    7  N   UNL     1      39.573 -14.924   1.045  1.00  0.00    -0.170 NA
HETATM    8  H   UNL     1      38.870 -15.398   2.910  1.00  0.00     0.191 HD
HETATM    9  C   UNL     1      40.678 -15.355   0.421  1.00  0.00     0.120 A 
HETATM   10  C   UNL     1      41.422 -16.277   1.218  1.00  0.00     0.017 A 
HETATM   11  C   UNL     1      42.694 -16.951   0.861  1.00  0.00     0.055 C 
BRANCH   9  12
HETATM   12  C   UNL     1      41.044 -14.892  -0.954  1.00  0.00     0.106 A 
HETATM   13  O   UNL     1      41.656 -13.702  -1.242  1.00  0.00    -0.313 OA
HETATM   14  C   UNL     1      41.821 -13.641  -2.592  1.00  0.00     0.050 A 
HETATM   15  C   UNL     1      42.477 -12.430  -3.123  1.00  0.00     0.076 C 
HETATM   16  C   UNL     1      41.323 -14.782  -3.183  1.00  0.00     0.035 A 
HETATM   17  C   UNL     1      40.824 -15.585  -2.129  1.00  0.00     0.042 A 
ENDBRANCH   9  12
ENDBRANCH   1   5
BRANCH   2  18
HETATM   18  C   UNL     1      41.645 -17.507   5.872  1.00  0.00     0.116 C 
BRANCH  18  19
HETATM   19  C   UNL     1      43.088 -17.905   6.246  1.00  0.00     0.049 C 
BRANCH  19  20
HETATM   20  C   UNL     1      43.695 -19.001   5.375  1.00  0.00    -0.050 A 
HETATM   21  C   UNL     1      43.844 -18.869   3.985  1.00  0.00     0.008 A 
HETATM   22  C   UNL     1      44.376 -19.912   3.224  1.00  0.00     0.001 A 
HETATM   23  C   UNL     1      44.776 -21.096   3.839  1.00  0.00     0.000 A 
HETATM   24  C   UNL     1      44.657 -21.235   5.218  1.00  0.00     0.001 A 
HETATM   25  C   UNL     1      44.126 -20.195   5.982  1.00  0.00     0.008 A 
ENDBRANCH  19  20
BRANCH  19  26
HETATM   26  C   UNL     1      43.945 -16.652   6.345  1.00  0.00    -0.027 C 
HETATM   27  C   UNL     1      43.988 -15.754   7.338  1.00  0.00     0.007 C 
ENDBRANCH  19  26
ENDBRANCH  18  19
ENDBRANCH   2  18
TORSDOF 6
ENDMDL
MODEL 4
REMARK VINA RESULT:      -8.0      3.243      4.493
REMARK  6 active torsions:
REMARK  status: ('A' for Active; 'I' for Inactive)
REMARK    1  A    between atoms: C_4  and  C_5 
REMARK    2  A    between atoms: C_9  and  N_10 
REMARK       I    between atoms: N_10  and  C_11 
REMARK    3  A    between atoms: C_11  and  C_12 
REMARK    4  A    between atoms: C_12  and  C_13 
REMARK    5  A    between atoms: C_13  and  C_14 
REMARK    6  A    between atoms: C_13  and  C_20 
ROOT
HETATM    1  N   UNL     1      42.016 -15.421  -0.214  1.00  0.00    -0.312 N 
HETATM    2  C   UNL     1      41.847 -16.479   0.653  1.00  0.00     0.224 C 
HETATM    3  O   UNL     1      40.975 -17.341   0.502  1.00  0.00    -0.273 OA
HETATM    4  H   UNL     1      42.699 -14.699  -0.033  1.00  0.00     0.170 HD
ENDROOT
BRANCH   1   5
HETATM    5  C   UNL     1      41.197 -15.228  -1.313  1.00  0.00     0.132 A 
HETATM    6  N   UNL     1      41.499 -15.656  -2.579  1.00  0.00    -0.261 N 
HETATM    7  N   UNL     1      40.558 -15.361  -3.490  1.00  0.00    -0.170 NA
HETATM    8  H   UNL     1      42.336 -16.160  -2.860  1.00  0.00     0.191 HD
HETATM    9  C   UNL     1      39.617 -14.722  -2.780  1.00  0.00     0.120 A 
HETATM   10  C   UNL     1      39.965 -14.611  -1.400  1.00  0.00     0.017 A 
HETATM   11  C   UNL     1      39.169 -13.979  -0.320  1.00  0.00     0.055 C 
BRANCH   9  12
HETATM   12  C   UNL     1      38.363 -14.206  -3.411  1.00  0.00     0.106 A 
HETATM   13  O   UNL     1      38.052 -12.882  -3.567  1.00  0.00    -0.313 OA
HETATM   14  C   UNL     1      36.837 -12.814  -4.177  1.00  0.00     0.050 A 
HETATM   15  C   UNL     1      36.312 -11.462  -4.452  1.00  0.00     0.076 C 
HETATM   16  C   UNL     1      36.357 -14.082  -4.420  1.00  0.00     0.035 A 
HETATM   17  C   UNL     1      37.337 -14.976  -3.927  1.00  0.00     0.042 A 
ENDBRANCH   9  12
ENDBRANCH   1   5
BRANCH   2  18
HETATM   18  C   UNL     1      42.809 -16.593   1.832  1.00  0.00     0.116 C 
BRANCH  18  19
HETATM   19  C   UNL     1      42.489 -17.581   2.972  1.00  0.00     0.049 C 
BRANCH  19  20
HETATM   20  C   UNL     1      43.241 -18.907   2.900  1.00  0.00    -0.050 A 
HETATM   21  C   UNL     1      43.054 -19.828   1.857  1.00  0.00     0.008 A 
HETATM   22  C   UNL     1      43.741 -21.045   1.850  1.00  0.00     0.001 A 
HETATM   23  C   UNL     1      44.631 -21.353   2.875  1.00  0.00     0.000 A 
HETATM   24  C   UNL     1      44.846 -20.442   3.905  1.00  0.00     0.001 A 
HETATM   25  C   UNL     1      44.161 -19.226   3.916  1.00  0.00     0.008 A 
ENDBRANCH  19  20
BRANCH  19  26
HETATM   26  C   UNL     1      42.626 -16.868   4.309  1.00  0.00    -0.027 C 
HETATM   27  C   UNL     1      41.860 -17.000   5.400  1.00  0.00     0.007 C 
ENDBRANCH  19  26
ENDBRANCH  18  19
ENDBRANCH   2  18
TORSDOF 6
ENDMDL
MODEL 5
REMARK VINA RESULT:      -8.0      2.357      3.261
REMARK  6 active torsions:
REMARK  status: ('A' for Active; 'I' for Inactive)
REMARK    1  A    between atoms: C_4  and  C_5 
REMARK    2  A    between atoms: C_9  and  N_10 
REMARK       I    between atoms: N_10  and  C_11 
REMARK    3  A    between atoms: C_11  and  C_12 
REMARK    4  A    between atoms: C_12  and  C_13 
REMARK    5  A    between atoms: C_13  and  C_14 
REMARK    6  A    between atoms: C_13  and  C_20 
ROOT
HETATM    1  N   UNL     1      40.912 -17.073   2.474  1.00  0.00    -0.312 N 
HETATM    2  C   UNL     1      41.764 -16.921   3.546  1.00  0.00     0.224 C 
HETATM    3  O   UNL     1      41.967 -15.834   4.097  1.00  0.00    -0.273 OA
HETATM    4  H   UNL     1      40.811 -17.963   2.007  1.00  0.00     0.170 HD
ENDROOT
BRANCH   1   5
HETATM    5  C   UNL     1      40.233 -16.007   1.913  1.00  0.00     0.132 A 
HETATM    6  N   UNL     1      39.206 -15.340   2.529  1.00  0.00    -0.261 N 
HETATM    7  N   UNL     1      38.695 -14.336   1.798  1.00  0.00    -0.170 NA
HETATM    8  H   UNL     1      38.830 -15.537   3.453  1.00  0.00     0.191 HD
HETATM    9  C   UNL     1      39.424 -14.359   0.673  1.00  0.00     0.120 A 
HETATM   10  C   UNL     1      40.410 -15.390   0.690  1.00  0.00     0.017 A 
HETATM   11  C   UNL     1      41.397 -15.708  -0.371  1.00  0.00     0.055 C 
BRANCH   9  12
HETATM   12  C   UNL     1      39.189 -13.389  -0.442  1.00  0.00     0.106 A 
HETATM   13  O   UNL     1      40.071 -12.418  -0.834  1.00  0.00    -0.313 OA
HETATM   14  C   UNL     1      39.504 -11.744  -1.872  1.00  0.00     0.050 A 
HETATM   15  C   UNL     1      40.299 -10.647  -2.459  1.00  0.00     0.076 C 
HETATM   16  C   UNL     1      38.262 -12.268  -2.157  1.00  0.00     0.035 A 
HETATM   17  C   UNL     1      38.061 -13.326  -1.238  1.00  0.00     0.042 A 
ENDBRANCH   9  12
ENDBRANCH   1   5
BRANCH   2  18
HETATM   18  C   UNL     1      42.461 -18.167   4.085  1.00  0.00     0.116 C 
BRANCH  18  19
HETATM   19  C   UNL     1      43.771 -18.642   3.424  1.00  0.00     0.049 C 
BRANCH  19  20
HETATM   20  C   UNL     1      44.156 -20.086   3.732  1.00  0.00    -0.050 A 
HETATM   21  C   UNL     1      44.240 -21.075   2.739  1.00  0.00     0.008 A 
HETATM   22  C   UNL     1      44.564 -22.393   3.072  1.00  0.00     0.001 A 
HETATM   23  C   UNL     1      44.820 -22.738   4.396  1.00  0.00     0.000 A 
HETATM   24  C   UNL     1      44.764 -21.766   5.390  1.00  0.00     0.001 A 
HETATM   25  C   UNL     1      44.440 -20.449   5.062  1.00  0.00     0.008 A 
ENDBRANCH  19  20
BRANCH  19  26
HETATM   26  C   UNL     1      43.731 -18.319   1.938  1.00  0.00    -0.027 C 
HETATM   27  C   UNL     1      44.354 -17.326   1.289  1.00  0.00     0.007 C 
ENDBRANCH  19  26
ENDBRANCH  18  19
ENDBRANCH   2  18
TORSDOF 6
ENDMDL
MODEL 6
REMARK VINA RESULT:      -8.0      4.130      5.262
REMARK  6 active torsions:
REMARK  status: ('A' for Active; 'I' for Inactive)
REMARK    1  A    between atoms: C_4  and  C_5 
REMARK    2  A    between atoms: C_9  and  N_10 
REMARK       I    between atoms: N_10  and  C_11 
REMARK    3  A    between atoms: C_11  and  C_12 
REMARK    4  A    between atoms: C_12  and  C_13 
REMARK    5  A    between atoms: C_13  and  C_14 
REMARK    6  A    between atoms: C_13  and  C_20 
ROOT
HETATM    1  N   UNL     1      40.447 -15.894   4.591  1.00  0.00    -0.312 N 
HETATM    2  C   UNL     1      41.735 -16.385   4.610  1.00  0.00     0.224 C 
HETATM    3  O   UNL     1      42.697 -15.738   5.036  1.00  0.00    -0.273 OA
HETATM    4  H   UNL     1      39.691 -16.423   4.183  1.00  0.00     0.170 HD
ENDROOT
BRANCH   1   5
HETATM    5  C   UNL     1      40.136 -14.618   5.027  1.00  0.00     0.132 A 
HETATM    6  N   UNL     1      40.068 -14.253   6.346  1.00  0.00    -0.261 N 
HETATM    7  N   UNL     1      39.751 -12.962   6.536  1.00  0.00    -0.170 NA
HETATM    8  H   UNL     1      40.239 -14.856   7.147  1.00  0.00     0.191 HD
HETATM    9  C   UNL     1      39.614 -12.482   5.292  1.00  0.00     0.120 A 
HETATM   10  C   UNL     1      39.848 -13.481   4.299  1.00  0.00     0.017 A 
HETATM   11  C   UNL     1      39.793 -13.315   2.827  1.00  0.00     0.055 C 
BRANCH   9  12
HETATM   12  C   UNL     1      39.257 -11.053   5.029  1.00  0.00     0.106 A 
HETATM   13  O   UNL     1      38.034 -10.619   4.592  1.00  0.00    -0.313 OA
HETATM   14  C   UNL     1      38.098  -9.264   4.472  1.00  0.00     0.050 A 
HETATM   15  C   UNL     1      36.870  -8.584   4.017  1.00  0.00     0.076 C 
HETATM   16  C   UNL     1      39.351  -8.815   4.828  1.00  0.00     0.035 A 
HETATM   17  C   UNL     1      40.095  -9.965   5.185  1.00  0.00     0.042 A 
ENDBRANCH   9  12
ENDBRANCH   1   5
BRANCH   2  18
HETATM   18  C   UNL     1      41.962 -17.807   4.105  1.00  0.00     0.116 C 
BRANCH  18  19
HETATM   19  C   UNL     1      42.980 -18.050   2.973  1.00  0.00     0.049 C 
BRANCH  19  20
HETATM   20  C   UNL     1      43.545 -19.467   2.914  1.00  0.00    -0.050 A 
HETATM   21  C   UNL     1      43.330 -20.323   1.822  1.00  0.00     0.008 A 
HETATM   22  C   UNL     1      43.839 -21.624   1.827  1.00  0.00     0.001 A 
HETATM   23  C   UNL     1      44.580 -22.083   2.913  1.00  0.00     0.000 A 
HETATM   24  C   UNL     1      44.822 -21.240   3.993  1.00  0.00     0.001 A 
HETATM   25  C   UNL     1      44.314 -19.940   3.993  1.00  0.00     0.008 A 
ENDBRANCH  19  20
BRANCH  19  26
HETATM   26  C   UNL     1      42.391 -17.567   1.655  1.00  0.00    -0.027 C 
HETATM   27  C   UNL     1      41.101 -17.500   1.300  1.00  0.00     0.007 C 
ENDBRANCH  19  26
ENDBRANCH  18  19
ENDBRANCH   2  18
TORSDOF 6
ENDMDL
MODEL 7
REMARK VINA RESULT:      -7.8      2.021      2.354
REMARK  6 active torsions:
REMARK  status: ('A' for Active; 'I' for Inactive)
REMARK    1  A    between atoms: C_4  and  C_5 
REMARK    2  A    between atoms: C_9  and  N_10 
REMARK       I    between atoms: N_10  and  C_11 
REMARK    3  A    between atoms: C_11  and  C_12 
REMARK    4  A    between atoms: C_12  and  C_13 
REMARK    5  A    between atoms: C_13  and  C_14 
REMARK    6  A    between atoms: C_13  and  C_20 
ROOT
HETATM    1  N   UNL     1      41.648 -16.848   0.517  1.00  0.00    -0.312 N 
HETATM    2  C   UNL     1      42.770 -17.284   1.189  1.00  0.00     0.224 C 
HETATM    3  O   UNL     1      43.760 -16.570   1.382  1.00  0.00    -0.273 OA
HETATM    4  H   UNL     1      40.878 -17.473   0.324  1.00  0.00     0.170 HD
ENDROOT
BRANCH   1   5
HETATM    5  C   UNL     1      41.556 -15.577  -0.020  1.00  0.00     0.132 A 
HETATM    6  N   UNL     1      41.781 -14.426   0.689  1.00  0.00    -0.261 N 
HETATM    7  N   UNL     1      41.636 -13.305  -0.036  1.00  0.00    -0.170 NA
HETATM    8  H   UNL     1      42.042 -14.365   1.670  1.00  0.00     0.191 HD
HETATM    9  C   UNL     1      41.309 -13.755  -1.256  1.00  0.00     0.120 A 
HETATM   10  C   UNL     1      41.246 -15.180  -1.305  1.00  0.00     0.017 A 
HETATM   11  C   UNL     1      40.925 -16.025  -2.481  1.00  0.00     0.055 C 
BRANCH   9  12
HETATM   12  C   UNL     1      41.052 -12.826  -2.400  1.00  0.00     0.106 A 
HETATM   13  O   UNL     1      42.023 -12.233  -3.161  1.00  0.00    -0.313 OA
HETATM   14  C   UNL     1      41.399 -11.465  -4.096  1.00  0.00     0.050 A 
HETATM   15  C   UNL     1      42.270 -10.735  -5.038  1.00  0.00     0.076 C 
HETATM   16  C   UNL     1      40.032 -11.554  -3.949  1.00  0.00     0.035 A 
HETATM   17  C   UNL     1      39.810 -12.429  -2.859  1.00  0.00     0.042 A 
ENDBRANCH   9  12
ENDBRANCH   1   5
BRANCH   2  18
HETATM   18  C   UNL     1      42.762 -18.707   1.740  1.00  0.00     0.116 C 
BRANCH  18  19
HETATM   19  C   UNL     1      43.902 -19.159   2.674  1.00  0.00     0.049 C 
BRANCH  19  20
HETATM   20  C   UNL     1      43.682 -18.845   4.152  1.00  0.00    -0.050 A 
HETATM   21  C   UNL     1      42.522 -18.215   4.627  1.00  0.00     0.008 A 
HETATM   22  C   UNL     1      42.378 -17.918   5.985  1.00  0.00     0.001 A 
HETATM   23  C   UNL     1      43.384 -18.255   6.887  1.00  0.00     0.000 A 
HETATM   24  C   UNL     1      44.531 -18.901   6.436  1.00  0.00     0.001 A 
HETATM   25  C   UNL     1      44.679 -19.199   5.081  1.00  0.00     0.008 A 
ENDBRANCH  19  20
BRANCH  19  26
HETATM   26  C   UNL     1      44.229 -20.620   2.398  1.00  0.00    -0.027 C 
HETATM   27  C   UNL     1      43.492 -21.522   1.737  1.00  0.00     0.007 C 
ENDBRANCH  19  26
ENDBRANCH  18  19
ENDBRANCH   2  18
TORSDOF 6
ENDMDL
MODEL 8
REMARK VINA RESULT:      -7.8      3.201      4.039
REMARK  6 active torsions:
REMARK  status: ('A' for Active; 'I' for Inactive)
REMARK    1  A    between atoms: C_4  and  C_5 
REMARK    2  A    between atoms: C_9  and  N_10 
REMARK       I    between atoms: N_10  and  C_11 
REMARK    3  A    between atoms: C_11  and  C_12 
REMARK    4  A    between atoms: C_12  and  C_13 
REMARK    5  A    between atoms: C_13  and  C_14 
REMARK    6  A    between atoms: C_13  and  C_20 
ROOT
HETATM    1  N   UNL     1      42.316 -15.835   0.152  1.00  0.00    -0.312 N 
HETATM    2  C   UNL     1      42.282 -17.080   0.744  1.00  0.00     0.224 C 
HETATM    3  O   UNL     1      41.232 -17.689   0.972  1.00  0.00    -0.273 OA
HETATM    4  H   UNL     1      43.186 -15.337   0.033  1.00  0.00     0.170 HD
ENDROOT
BRANCH   1   5
HETATM    5  C   UNL     1      41.166 -15.158  -0.210  1.00  0.00     0.132 A 
HETATM    6  N   UNL     1      40.310 -14.567   0.682  1.00  0.00    -0.261 N 
HETATM    7  N   UNL     1      39.259 -13.963   0.106  1.00  0.00    -0.170 NA
HETATM    8  H   UNL     1      40.413 -14.549   1.694  1.00  0.00     0.191 HD
HETATM    9  C   UNL     1      39.450 -14.172  -1.204  1.00  0.00     0.120 A 
HETATM   10  C   UNL     1      40.639 -14.918  -1.463  1.00  0.00     0.017 A 
HETATM   11  C   UNL     1      41.173 -15.328  -2.785  1.00  0.00     0.055 C 
BRANCH   9  12
HETATM   12  C   UNL     1      38.496 -13.659  -2.236  1.00  0.00     0.106 A 
HETATM   13  O   UNL     1      37.699 -14.444  -3.026  1.00  0.00    -0.313 OA
HETATM   14  C   UNL     1      36.979 -13.617  -3.832  1.00  0.00     0.050 A 
HETATM   15  C   UNL     1      36.038 -14.264  -4.768  1.00  0.00     0.076 C 
HETATM   16  C   UNL     1      37.299 -12.303  -3.573  1.00  0.00     0.035 A 
HETATM   17  C   UNL     1      38.274 -12.330  -2.548  1.00  0.00     0.042 A 
ENDBRANCH   9  12
ENDBRANCH   1   5
BRANCH   2  18
HETATM   18  C   UNL     1      43.613 -17.735   1.102  1.00  0.00     0.116 C 
BRANCH  18  19
HETATM   19  C   UNL     1      43.912 -18.076   2.576  1.00  0.00     0.049 C 
BRANCH  19  20
HETATM   20  C   UNL     1      43.071 -17.310   3.593  1.00  0.00    -0.050 A 
HETATM   21  C   UNL     1      43.231 -15.935   3.826  1.00  0.00     0.008 A 
HETATM   22  C   UNL     1      42.461 -15.282   4.792  1.00  0.00     0.001 A 
HETATM   23  C   UNL     1      41.514 -15.989   5.529  1.00  0.00     0.000 A 
HETATM   24  C   UNL     1      41.326 -17.348   5.295  1.00  0.00     0.001 A 
HETATM   25  C   UNL     1      42.094 -18.004   4.332  1.00  0.00     0.008 A 
ENDBRANCH  19  20
BRANCH  19  26
HETATM   26  C   UNL     1      43.876 -19.586   2.760  1.00  0.00    -0.027 C 
HETATM   27  C   UNL     1      43.517 -20.521   1.869  1.00  0.00     0.007 C 
ENDBRANCH  19  26
ENDBRANCH  18  19
ENDBRANCH   2  18
TORSDOF 6
ENDMDL
MODEL 9
REMARK VINA RESULT:      -7.7      1.764      2.197
REMARK  6 active torsions:
REMARK  status: ('A' for Active; 'I' for Inactive)
REMARK    1  A    between atoms: C_4  and  C_5 
REMARK    2  A    between atoms: C_9  and  N_10 
REMARK       I    between atoms: N_10  and  C_11 
REMARK    3  A    between atoms: C_11  and  C_12 
REMARK    4  A    between atoms: C_12  and  C_13 
REMARK    5  A    between atoms: C_13  and  C_14 
REMARK    6  A    between atoms: C_13  and  C_20 
ROOT
HETATM    1  N   UNL     1      41.502 -17.460   1.049  1.00  0.00    -0.312 N 
HETATM    2  C   UNL     1      42.789 -17.839   1.365  1.00  0.00     0.224 C 
HETATM    3  O   UNL     1      43.772 -17.117   1.166  1.00  0.00    -0.273 OA
HETATM    4  H   UNL     1      40.725 -18.095   1.169  1.00  0.00     0.170 HD
ENDROOT
BRANCH   1   5
HETATM    5  C   UNL     1      41.213 -16.244   0.457  1.00  0.00     0.132 A 
HETATM    6  N   UNL     1      41.757 -15.819  -0.727  1.00  0.00    -0.261 N 
HETATM    7  N   UNL     1      41.332 -14.605  -1.114  1.00  0.00    -0.170 NA
HETATM    8  H   UNL     1      42.418 -16.332  -1.304  1.00  0.00     0.191 HD
HETATM    9  C   UNL     1      40.482 -14.241  -0.143  1.00  0.00     0.120 A 
HETATM   10  C   UNL     1      40.366 -15.237   0.873  1.00  0.00     0.017 A 
HETATM   11  C   UNL     1      39.518 -15.186   2.089  1.00  0.00     0.055 C 
BRANCH   9  12
HETATM   12  C   UNL     1      39.763 -12.930  -0.171  1.00  0.00     0.106 A 
HETATM   13  O   UNL     1      38.606 -12.685  -0.862  1.00  0.00    -0.313 OA
HETATM   14  C   UNL     1      38.263 -11.386  -0.643  1.00  0.00     0.050 A 
HETATM   15  C   UNL     1      37.029 -10.911  -1.296  1.00  0.00     0.076 C 
HETATM   16  C   UNL     1      39.185 -10.786   0.186  1.00  0.00     0.035 A 
HETATM   17  C   UNL     1      40.148 -11.778   0.489  1.00  0.00     0.042 A 
ENDBRANCH   9  12
ENDBRANCH   1   5
BRANCH   2  18
HETATM   18  C   UNL     1      42.990 -19.204   2.016  1.00  0.00     0.116 C 
BRANCH  18  19
HETATM   19  C   UNL     1      44.192 -19.419   2.958  1.00  0.00     0.049 C 
BRANCH  19  20
HETATM   20  C   UNL     1      43.991 -18.903   4.380  1.00  0.00    -0.050 A 
HETATM   21  C   UNL     1      45.008 -18.935   5.347  1.00  0.00     0.008 A 
HETATM   22  C   UNL     1      44.769 -18.481   6.647  1.00  0.00     0.001 A 
HETATM   23  C   UNL     1      43.517 -17.981   6.996  1.00  0.00     0.000 A 
HETATM   24  C   UNL     1      42.504 -17.922   6.043  1.00  0.00     0.001 A 
HETATM   25  C   UNL     1      42.739 -18.374   4.744  1.00  0.00     0.008 A 
ENDBRANCH  19  20
BRANCH  19  26
HETATM   26  C   UNL     1      44.631 -20.875   2.888  1.00  0.00    -0.027 C 
HETATM   27  C   UNL     1      44.194 -21.833   2.060  1.00  0.00     0.007 C 
ENDBRANCH  19  26
ENDBRANCH  18  19
ENDBRANCH   2  18
TORSDOF 6
ENDMDL
MODEL 10
REMARK VINA RESULT:      -7.7      2.613      4.197
REMARK  6 active torsions:
REMARK  status: ('A' for Active; 'I' for Inactive)
REMARK    1  A    between atoms: C_4  and  C_5 
REMARK    2  A    between atoms: C_9  and  N_10 
REMARK       I    between atoms: N_10  and  C_11 
REMARK    3  A    between atoms: C_11  and  C_12 
REMARK    4  A    between atoms: C_12  and  C_13 
REMARK    5  A    between atoms: C_13  and  C_14 
REMARK    6  A    between atoms: C_13  and  C_20 
ROOT
HETATM    1  N   UNL     1      41.489 -15.678   3.299  1.00  0.00    -0.312 N 
HETATM    2  C   UNL     1      42.818 -15.533   3.634  1.00  0.00     0.224 C 
HETATM    3  O   UNL     1      43.595 -14.804   3.008  1.00  0.00    -0.273 OA
HETATM    4  H   UNL     1      40.892 -16.326   3.793  1.00  0.00     0.170 HD
ENDROOT
BRANCH   1   5
HETATM    5  C   UNL     1      40.926 -15.033   2.212  1.00  0.00     0.132 A 
HETATM    6  N   UNL     1      40.284 -13.824   2.285  1.00  0.00    -0.261 N 
HETATM    7  N   UNL     1      39.817 -13.386   1.105  1.00  0.00    -0.170 NA
HETATM    8  H   UNL     1      40.150 -13.263   3.123  1.00  0.00     0.191 HD
HETATM    9  C   UNL     1      40.176 -14.349   0.244  1.00  0.00     0.120 A 
HETATM   10  C   UNL     1      40.880 -15.412   0.886  1.00  0.00     0.017 A 
HETATM   11  C   UNL     1      41.433 -16.634   0.253  1.00  0.00     0.055 C 
BRANCH   9  12
HETATM   12  C   UNL     1      39.851 -14.268  -1.214  1.00  0.00     0.106 A 
HETATM   13  O   UNL     1      38.592 -14.374  -1.743  1.00  0.00    -0.313 OA
HETATM   14  C   UNL     1      38.703 -14.251  -3.094  1.00  0.00     0.050 A 
HETATM   15  C   UNL     1      37.449 -14.327  -3.868  1.00  0.00     0.076 C 
HETATM   16  C   UNL     1      40.021 -14.066  -3.448  1.00  0.00     0.035 A 
HETATM   17  C   UNL     1      40.758 -14.078  -2.239  1.00  0.00     0.042 A 
ENDBRANCH   9  12
ENDBRANCH   1   5
BRANCH   2  18
HETATM   18  C   UNL     1      43.332 -16.292   4.853  1.00  0.00     0.116 C 
BRANCH  18  19
HETATM   19  C   UNL     1      42.839 -17.731   5.107  1.00  0.00     0.049 C 
BRANCH  19  20
HETATM   20  C   UNL     1      43.403 -18.779   4.151  1.00  0.00    -0.050 A 
HETATM   21  C   UNL     1      42.963 -18.909   2.825  1.00  0.00     0.008 A 
HETATM   22  C   UNL     1      43.486 -19.904   1.995  1.00  0.00     0.001 A 
HETATM   23  C   UNL     1      44.460 -20.776   2.475  1.00  0.00     0.000 A 
HETATM   24  C   UNL     1      44.924 -20.648   3.780  1.00  0.00     0.001 A 
HETATM   25  C   UNL     1      44.405 -19.654   4.612  1.00  0.00     0.008 A 
ENDBRANCH  19  20
BRANCH  19  26
HETATM   26  C   UNL     1      43.028 -18.075   6.578  1.00  0.00    -0.027 C 
HETATM   27  C   UNL     1      42.844 -17.284   7.643  1.00  0.00     0.007 C 
ENDBRANCH  19  26
ENDBRANCH  18  19
ENDBRANCH   2  18
TORSDOF 6
ENDMDL
