MODEL 1
REMARK VINA RESULT:      -9.6      0.000      0.000
REMARK  5 active torsions:
REMARK  status: ('A' for Active; 'I' for Inactive)
REMARK    1  A    between atoms: C_3  and  O_4 
REMARK    2  A    between atoms: C_6  and  N_7 
REMARK       I    between atoms: N_7  and  C_8 
REMARK    3  A    between atoms: C_8  and  C_9 
REMARK    4  A    between atoms: C_14  and  C_15 
REMARK    5  A    between atoms: C_23  and  C_24 
ROOT
HETATM    1  C   UNL     1      39.811 -15.008   1.442  1.00  0.00     0.148 A 
HETATM    2  N   UNL     1      39.719 -15.121   2.790  1.00  0.00    -0.165 NA
HETATM    3  N   UNL     1      40.880 -15.714   3.126  1.00  0.00    -0.240 N 
HETATM    4  C   UNL     1      41.642 -16.096   2.059  1.00  0.00     0.123 A 
HETATM    5  N   UNL     1      42.753 -16.840   2.224  1.00  0.00    -0.366 N 
HETATM    6  C   UNL     1      43.123 -17.432   3.507  1.00  0.00     0.118 C 
HETATM    7  C   UNL     1      41.953 -17.392   4.515  1.00  0.00     0.066 C 
HETATM    8  C   UNL     1      41.218 -16.043   4.496  1.00  0.00     0.221 C 
HETATM    9  C   UNL     1      41.017 -15.587   0.954  1.00  0.00     0.089 A 
HETATM   10  H   UNL     1      43.341 -17.098   1.431  1.00  0.00     0.161 HD
ENDROOT
BRANCH   1  11
HETATM   11  C   UNL     1      38.739 -14.403   0.629  1.00  0.00     0.276 C 
HETATM   12  N   UNL     1      39.066 -14.382  -0.712  1.00  0.00    -0.322 N 
HETATM   13  H   UNL     1      39.976 -14.792  -0.910  1.00  0.00     0.169 HD
HETATM   14  O   UNL     1      37.721 -13.959   1.147  1.00  0.00    -0.266 OA
BRANCH  12  15
HETATM   15  C   UNL     1      38.335 -13.838  -1.781  1.00  0.00     0.037 A 
HETATM   16  C   UNL     1      37.928 -14.568  -2.899  1.00  0.00     0.066 A 
HETATM   17  C   UNL     1      37.197 -13.944  -3.910  1.00  0.00     0.067 A 
HETATM   18  C   UNL     1      36.859 -12.598  -3.827  1.00  0.00     0.036 A 
HETATM   19  C   UNL     1      37.262 -11.863  -2.714  1.00  0.00     0.005 A 
HETATM   20  C   UNL     1      38.000 -12.480  -1.699  1.00  0.00     0.029 A 
BRANCH  17  21
HETATM   21  O   UNL     1      36.829 -14.698  -4.986  1.00  0.00    -0.361 OA
HETATM   22  H   UNL     1      36.045 -15.220  -4.749  1.00  0.00     0.217 HD
ENDBRANCH  17  21
ENDBRANCH  12  15
ENDBRANCH   1  11
BRANCH   8  23
HETATM   23  C   UNL     1      42.028 -14.926   5.112  1.00  0.00     0.409 C 
HETATM   24  F   UNL     1      42.668 -14.182   4.185  1.00  0.00    -0.169 F 
HETATM   25  F   UNL     1      41.201 -14.080   5.783  1.00  0.00    -0.169 F 
HETATM   26  F   UNL     1      42.946 -15.352   6.006  1.00  0.00    -0.169 F 
ENDBRANCH   8  23
BRANCH   6  27
HETATM   27  C   UNL     1      43.586 -18.862   3.274  1.00  0.00    -0.035 A 
HETATM   28  C   UNL     1      44.367 -19.523   4.237  1.00  0.00     0.012 A 
HETATM   29  C   UNL     1      44.791 -20.836   4.021  1.00  0.00     0.043 A 
HETATM   30  C   UNL     1      44.438 -21.492   2.848  1.00  0.00     0.116 A 
HETATM   31  F   UNL     1      44.848 -22.750   2.646  1.00  0.00    -0.206 F 
HETATM   32  C   UNL     1      43.668 -20.860   1.880  1.00  0.00     0.043 A 
HETATM   33  C   UNL     1      43.244 -19.549   2.092  1.00  0.00     0.012 A 
ENDBRANCH   6  27
TORSDOF 5
ENDMDL
MODEL 2
REMARK VINA RESULT:      -9.4      4.535      8.167
REMARK  5 active torsions:
REMARK  status: ('A' for Active; 'I' for Inactive)
REMARK    1  A    between atoms: C_3  and  O_4 
REMARK    2  A    between atoms: C_6  and  N_7 
REMARK       I    between atoms: N_7  and  C_8 
REMARK    3  A    between atoms: C_8  and  C_9 
REMARK    4  A    between atoms: C_14  and  C_15 
REMARK    5  A    between atoms: C_23  and  C_24 
ROOT
HETATM    1  C   UNL     1      43.003 -14.429   5.371  1.00  0.00     0.148 A 
HETATM    2  N   UNL     1      43.414 -14.258   4.090  1.00  0.00    -0.165 NA
HETATM    3  N   UNL     1      43.097 -15.430   3.509  1.00  0.00    -0.240 N 
HETATM    4  C   UNL     1      42.625 -16.374   4.377  1.00  0.00     0.123 A 
HETATM    5  N   UNL     1      42.414 -17.644   3.979  1.00  0.00    -0.366 N 
HETATM    6  C   UNL     1      42.829 -18.142   2.670  1.00  0.00     0.118 C 
HETATM    7  C   UNL     1      43.808 -17.171   1.973  1.00  0.00     0.066 C 
HETATM    8  C   UNL     1      43.369 -15.706   2.112  1.00  0.00     0.221 C 
HETATM    9  C   UNL     1      42.479 -15.737   5.578  1.00  0.00     0.089 A 
HETATM   10  H   UNL     1      42.030 -18.342   4.617  1.00  0.00     0.161 HD
ENDROOT
BRANCH   1  11
HETATM   11  C   UNL     1      43.155 -13.375   6.392  1.00  0.00     0.276 C 
HETATM   12  N   UNL     1      44.211 -13.637   7.242  1.00  0.00    -0.322 N 
HETATM   13  H   UNL     1      44.704 -14.498   7.016  1.00  0.00     0.169 HD
HETATM   14  O   UNL     1      42.383 -12.425   6.446  1.00  0.00    -0.266 OA
BRANCH  12  15
HETATM   15  C   UNL     1      44.632 -12.905   8.364  1.00  0.00     0.037 A 
HETATM   16  C   UNL     1      43.996 -12.947   9.605  1.00  0.00     0.066 A 
HETATM   17  C   UNL     1      44.491 -12.188  10.667  1.00  0.00     0.067 A 
HETATM   18  C   UNL     1      45.617 -11.388  10.515  1.00  0.00     0.036 A 
HETATM   19  C   UNL     1      46.257 -11.342   9.279  1.00  0.00     0.005 A 
HETATM   20  C   UNL     1      45.764 -12.094   8.208  1.00  0.00     0.029 A 
BRANCH  17  21
HETATM   21  O   UNL     1      43.829 -12.257  11.859  1.00  0.00    -0.361 OA
HETATM   22  H   UNL     1      44.478 -12.362  12.572  1.00  0.00     0.217 HD
ENDBRANCH  17  21
ENDBRANCH  12  15
ENDBRANCH   1  11
BRANCH   8  23
HETATM   23  C   UNL     1      42.155 -15.375   1.274  1.00  0.00     0.409 C 
HETATM   24  F   UNL     1      42.189 -14.115   0.792  1.00  0.00    -0.169 F 
HETATM   25  F   UNL     1      42.109 -16.201   0.195  1.00  0.00    -0.169 F 
HETATM   26  F   UNL     1      40.985 -15.536   1.929  1.00  0.00    -0.169 F 
ENDBRANCH   8  23
BRANCH   6  27
HETATM   27  C   UNL     1      43.461 -19.514   2.843  1.00  0.00    -0.035 A 
HETATM   28  C   UNL     1      44.224 -19.808   3.985  1.00  0.00     0.012 A 
HETATM   29  C   UNL     1      44.803 -21.069   4.142  1.00  0.00     0.043 A 
HETATM   30  C   UNL     1      44.623 -22.039   3.164  1.00  0.00     0.116 A 
HETATM   31  F   UNL     1      45.180 -23.246   3.319  1.00  0.00    -0.206 F 
HETATM   32  C   UNL     1      43.874 -21.773   2.024  1.00  0.00     0.043 A 
HETATM   33  C   UNL     1      43.296 -20.514   1.864  1.00  0.00     0.012 A 
ENDBRANCH   6  27
TORSDOF 5
ENDMDL
MODEL 3
REMARK VINA RESULT:      -9.0      2.135      2.434
REMARK  5 active torsions:
REMARK  status: ('A' for Active; 'I' for Inactive)
REMARK    1  A    between atoms: C_3  and  O_4 
REMARK    2  A    between atoms: C_6  and  N_7 
REMARK       I    between atoms: N_7  and  C_8 
REMARK    3  A    between atoms: C_8  and  C_9 
REMARK    4  A    between atoms: C_14  and  C_15 
REMARK    5  A    between atoms: C_23  and  C_24 
ROOT
HETATM    1  C   UNL     1      41.654 -14.778   1.894  1.00  0.00     0.148 A 
HETATM    2  N   UNL     1      40.890 -15.164   2.946  1.00  0.00    -0.165 NA
HETATM    3  N   UNL     1      41.704 -15.993   3.626  1.00  0.00    -0.240 N 
HETATM    4  C   UNL     1      42.889 -16.251   2.997  1.00  0.00     0.123 A 
HETATM    5  N   UNL     1      43.741 -17.182   3.470  1.00  0.00    -0.366 N 
HETATM    6  C   UNL     1      43.395 -18.089   4.561  1.00  0.00     0.118 C 
HETATM    7  C   UNL     1      41.878 -18.082   4.852  1.00  0.00     0.066 C 
HETATM    8  C   UNL     1      41.293 -16.661   4.844  1.00  0.00     0.221 C 
HETATM    9  C   UNL     1      42.924 -15.422   1.910  1.00  0.00     0.089 A 
HETATM   10  H   UNL     1      44.642 -17.353   3.021  1.00  0.00     0.161 HD
ENDROOT
BRANCH   1  11
HETATM   11  C   UNL     1      41.158 -13.847   0.863  1.00  0.00     0.276 C 
HETATM   12  N   UNL     1      41.714 -14.112  -0.374  1.00  0.00    -0.322 N 
HETATM   13  H   UNL     1      42.356 -14.901  -0.364  1.00  0.00     0.169 HD
HETATM   14  O   UNL     1      40.375 -12.947   1.141  1.00  0.00    -0.266 OA
BRANCH  12  15
HETATM   15  C   UNL     1      41.536 -13.414  -1.579  1.00  0.00     0.037 A 
HETATM   16  C   UNL     1      40.339 -13.386  -2.295  1.00  0.00     0.066 A 
HETATM   17  C   UNL     1      40.253 -12.658  -3.482  1.00  0.00     0.067 A 
HETATM   18  C   UNL     1      41.345 -11.950  -3.971  1.00  0.00     0.036 A 
HETATM   19  C   UNL     1      42.544 -11.973  -3.262  1.00  0.00     0.005 A 
HETATM   20  C   UNL     1      42.639 -12.705  -2.075  1.00  0.00     0.029 A 
BRANCH  17  21
HETATM   21  O   UNL     1      39.063 -12.668  -4.149  1.00  0.00    -0.361 OA
HETATM   22  H   UNL     1      38.805 -13.589  -4.315  1.00  0.00     0.217 HD
ENDBRANCH  17  21
ENDBRANCH  12  15
ENDBRANCH   1  11
BRANCH   8  23
HETATM   23  C   UNL     1      41.714 -15.848   6.047  1.00  0.00     0.409 C 
HETATM   24  F   UNL     1      40.773 -14.955   6.421  1.00  0.00    -0.169 F 
HETATM   25  F   UNL     1      41.907 -16.673   7.109  1.00  0.00    -0.169 F 
HETATM   26  F   UNL     1      42.872 -15.177   5.869  1.00  0.00    -0.169 F 
ENDBRANCH   8  23
BRANCH   6  27
HETATM   27  C   UNL     1      43.869 -19.489   4.207  1.00  0.00    -0.035 A 
HETATM   28  C   UNL     1      44.334 -20.359   5.208  1.00  0.00     0.012 A 
HETATM   29  C   UNL     1      44.770 -21.645   4.880  1.00  0.00     0.043 A 
HETATM   30  C   UNL     1      44.742 -22.067   3.556  1.00  0.00     0.116 A 
HETATM   31  F   UNL     1      45.161 -23.300   3.247  1.00  0.00    -0.206 F 
HETATM   32  C   UNL     1      44.289 -21.226   2.548  1.00  0.00     0.043 A 
HETATM   33  C   UNL     1      43.854 -19.941   2.872  1.00  0.00     0.012 A 
ENDBRANCH   6  27
TORSDOF 5
ENDMDL
MODEL 4
REMARK VINA RESULT:      -9.0      5.252      6.396
REMARK  5 active torsions:
REMARK  status: ('A' for Active; 'I' for Inactive)
REMARK    1  A    between atoms: C_3  and  O_4 
REMARK    2  A    between atoms: C_6  and  N_7 
REMARK       I    between atoms: N_7  and  C_8 
REMARK    3  A    between atoms: C_8  and  C_9 
REMARK    4  A    between atoms: C_14  and  C_15 
REMARK    5  A    between atoms: C_23  and  C_24 
ROOT
HETATM    1  C   UNL     1      41.813 -14.700   5.398  1.00  0.00     0.148 A 
HETATM    2  N   UNL     1      41.652 -15.595   6.404  1.00  0.00    -0.165 NA
HETATM    3  N   UNL     1      42.542 -16.558   6.101  1.00  0.00    -0.240 N 
HETATM    4  C   UNL     1      43.164 -16.385   4.897  1.00  0.00     0.123 A 
HETATM    5  N   UNL     1      43.961 -17.340   4.379  1.00  0.00    -0.366 N 
HETATM    6  C   UNL     1      44.079 -18.673   4.965  1.00  0.00     0.118 C 
HETATM    7  C   UNL     1      42.961 -18.948   5.994  1.00  0.00     0.066 C 
HETATM    8  C   UNL     1      42.714 -17.744   6.916  1.00  0.00     0.221 C 
HETATM    9  C   UNL     1      42.773 -15.153   4.450  1.00  0.00     0.089 A 
HETATM   10  H   UNL     1      44.454 -17.198   3.497  1.00  0.00     0.161 HD
ENDROOT
BRANCH   1  11
HETATM   11  C   UNL     1      41.025 -13.456   5.320  1.00  0.00     0.276 C 
HETATM   12  N   UNL     1      41.374 -12.567   6.317  1.00  0.00    -0.322 N 
HETATM   13  H   UNL     1      42.113 -12.914   6.924  1.00  0.00     0.169 HD
HETATM   14  O   UNL     1      40.156 -13.305   4.468  1.00  0.00    -0.266 OA
BRANCH  12  15
HETATM   15  C   UNL     1      40.812 -11.312   6.605  1.00  0.00     0.037 A 
HETATM   16  C   UNL     1      39.810 -11.105   7.554  1.00  0.00     0.066 A 
HETATM   17  C   UNL     1      39.317  -9.819   7.777  1.00  0.00     0.067 A 
HETATM   18  C   UNL     1      39.810  -8.728   7.071  1.00  0.00     0.036 A 
HETATM   19  C   UNL     1      40.811  -8.927   6.122  1.00  0.00     0.005 A 
HETATM   20  C   UNL     1      41.305 -10.213   5.888  1.00  0.00     0.029 A 
BRANCH  17  21
HETATM   21  O   UNL     1      38.333  -9.670   8.710  1.00  0.00    -0.361 OA
HETATM   22  H   UNL     1      38.440  -8.808   9.143  1.00  0.00     0.217 HD
ENDBRANCH  17  21
ENDBRANCH  12  15
ENDBRANCH   1  11
BRANCH   8  23
HETATM   23  C   UNL     1      43.830 -17.530   7.912  1.00  0.00     0.409 C 
HETATM   24  F   UNL     1      43.391 -17.001   9.074  1.00  0.00    -0.169 F 
HETATM   25  F   UNL     1      44.399 -18.725   8.223  1.00  0.00    -0.169 F 
HETATM   26  F   UNL     1      44.825 -16.742   7.449  1.00  0.00    -0.169 F 
ENDBRANCH   8  23
BRANCH   6  27
HETATM   27  C   UNL     1      44.051 -19.705   3.848  1.00  0.00    -0.035 A 
HETATM   28  C   UNL     1      43.425 -19.413   2.625  1.00  0.00     0.012 A 
HETATM   29  C   UNL     1      43.400 -20.362   1.600  1.00  0.00     0.043 A 
HETATM   30  C   UNL     1      43.998 -21.601   1.792  1.00  0.00     0.116 A 
HETATM   31  F   UNL     1      43.971 -22.507   0.807  1.00  0.00    -0.206 F 
HETATM   32  C   UNL     1      44.623 -21.915   2.992  1.00  0.00     0.043 A 
HETATM   33  C   UNL     1      44.648 -20.970   4.018  1.00  0.00     0.012 A 
ENDBRANCH   6  27
TORSDOF 5
ENDMDL
MODEL 5
REMARK VINA RESULT:      -8.9      4.198      7.246
REMARK  5 active torsions:
REMARK  status: ('A' for Active; 'I' for Inactive)
REMARK    1  A    between atoms: C_3  and  O_4 
REMARK    2  A    between atoms: C_6  and  N_7 
REMARK       I    between atoms: N_7  and  C_8 
REMARK    3  A    between atoms: C_8  and  C_9 
REMARK    4  A    between atoms: C_14  and  C_15 
REMARK    5  A    between atoms: C_23  and  C_24 
ROOT
HETATM    1  C   UNL     1      40.103 -13.427   5.065  1.00  0.00     0.148 A 
HETATM    2  N   UNL     1      40.638 -13.256   3.830  1.00  0.00    -0.165 NA
HETATM    3  N   UNL     1      40.858 -14.518   3.416  1.00  0.00    -0.240 N 
HETATM    4  C   UNL     1      40.612 -15.468   4.365  1.00  0.00     0.123 A 
HETATM    5  N   UNL     1      40.933 -16.761   4.159  1.00  0.00    -0.366 N 
HETATM    6  C   UNL     1      41.712 -17.207   3.006  1.00  0.00     0.118 C 
HETATM    7  C   UNL     1      42.387 -16.023   2.279  1.00  0.00     0.066 C 
HETATM    8  C   UNL     1      41.442 -14.822   2.125  1.00  0.00     0.221 C 
HETATM    9  C   UNL     1      40.049 -14.805   5.420  1.00  0.00     0.089 A 
HETATM   10  H   UNL     1      40.719 -17.478   4.853  1.00  0.00     0.161 HD
ENDROOT
BRANCH   1  11
HETATM   11  C   UNL     1      39.698 -12.288   5.910  1.00  0.00     0.276 C 
HETATM   12  N   UNL     1      40.544 -12.128   6.990  1.00  0.00    -0.322 N 
HETATM   13  H   UNL     1      41.299 -12.810   7.013  1.00  0.00     0.169 HD
HETATM   14  O   UNL     1      38.701 -11.625   5.650  1.00  0.00    -0.266 OA
BRANCH  12  15
HETATM   15  C   UNL     1      40.454 -11.200   8.040  1.00  0.00     0.037 A 
HETATM   16  C   UNL     1      39.325 -11.041   8.845  1.00  0.00     0.066 A 
HETATM   17  C   UNL     1      39.330 -10.096   9.871  1.00  0.00     0.067 A 
HETATM   18  C   UNL     1      40.446  -9.306  10.116  1.00  0.00     0.036 A 
HETATM   19  C   UNL     1      41.577  -9.459   9.317  1.00  0.00     0.005 A 
HETATM   20  C   UNL     1      41.578 -10.399   8.282  1.00  0.00     0.029 A 
BRANCH  17  21
HETATM   21  O   UNL     1      38.199  -9.973  10.626  1.00  0.00    -0.361 OA
HETATM   22  H   UNL     1      38.122  -9.054  10.928  1.00  0.00     0.217 HD
ENDBRANCH  17  21
ENDBRANCH  12  15
ENDBRANCH   1  11
BRANCH   8  23
HETATM   23  C   UNL     1      40.350 -15.064   1.108  1.00  0.00     0.409 C 
HETATM   24  F   UNL     1      40.015 -13.942   0.434  1.00  0.00    -0.169 F 
HETATM   25  F   UNL     1      40.783 -15.957   0.179  1.00  0.00    -0.169 F 
HETATM   26  F   UNL     1      39.221 -15.580   1.638  1.00  0.00    -0.169 F 
ENDBRANCH   8  23
BRANCH   6  27
HETATM   27  C   UNL     1      42.750 -18.215   3.475  1.00  0.00    -0.035 A 
HETATM   28  C   UNL     1      43.090 -18.309   4.834  1.00  0.00     0.012 A 
HETATM   29  C   UNL     1      44.043 -19.236   5.262  1.00  0.00     0.043 A 
HETATM   30  C   UNL     1      44.657 -20.072   4.338  1.00  0.00     0.116 A 
HETATM   31  F   UNL     1      45.570 -20.958   4.753  1.00  0.00    -0.206 F 
HETATM   32  C   UNL     1      44.339 -19.998   2.988  1.00  0.00     0.043 A 
HETATM   33  C   UNL     1      43.390 -19.073   2.557  1.00  0.00     0.012 A 
ENDBRANCH   6  27
TORSDOF 5
ENDMDL
MODEL 6
REMARK VINA RESULT:      -8.9      3.774      4.577
REMARK  5 active torsions:
REMARK  status: ('A' for Active; 'I' for Inactive)
REMARK    1  A    between atoms: C_3  and  O_4 
REMARK    2  A    between atoms: C_6  and  N_7 
REMARK       I    between atoms: N_7  and  C_8 
REMARK    3  A    between atoms: C_8  and  C_9 
REMARK    4  A    between atoms: C_14  and  C_15 
REMARK    5  A    between atoms: C_23  and  C_24 
ROOT
HETATM    1  C   UNL     1      41.036 -14.755   5.326  1.00  0.00     0.148 A 
HETATM    2  N   UNL     1      41.112 -15.595   6.388  1.00  0.00    -0.165 NA
HETATM    3  N   UNL     1      42.122 -16.419   6.052  1.00  0.00    -0.240 N 
HETATM    4  C   UNL     1      42.603 -16.227   4.789  1.00  0.00     0.123 A 
HETATM    5  N   UNL     1      43.503 -17.072   4.248  1.00  0.00    -0.366 N 
HETATM    6  C   UNL     1      43.891 -18.327   4.888  1.00  0.00     0.118 C 
HETATM    7  C   UNL     1      42.925 -18.711   6.029  1.00  0.00     0.066 C 
HETATM    8  C   UNL     1      42.558 -17.505   6.908  1.00  0.00     0.221 C 
HETATM    9  C   UNL     1      41.975 -15.108   4.316  1.00  0.00     0.089 A 
HETATM   10  H   UNL     1      43.889 -16.912   3.317  1.00  0.00     0.161 HD
ENDROOT
BRANCH   1  11
HETATM   11  C   UNL     1      40.046 -13.663   5.258  1.00  0.00     0.276 C 
HETATM   12  N   UNL     1      39.831 -13.249   3.958  1.00  0.00    -0.322 N 
HETATM   13  H   UNL     1      40.380 -13.768   3.276  1.00  0.00     0.169 HD
HETATM   14  O   UNL     1      39.538 -13.200   6.272  1.00  0.00    -0.266 OA
BRANCH  12  15
HETATM   15  C   UNL     1      39.013 -12.205   3.497  1.00  0.00     0.037 A 
HETATM   16  C   UNL     1      38.588 -11.139   4.291  1.00  0.00     0.066 A 
HETATM   17  C   UNL     1      37.780 -10.142   3.743  1.00  0.00     0.067 A 
HETATM   18  C   UNL     1      37.390 -10.184   2.410  1.00  0.00     0.036 A 
HETATM   19  C   UNL     1      37.811 -11.246   1.611  1.00  0.00     0.005 A 
HETATM   20  C   UNL     1      38.615 -12.252   2.154  1.00  0.00     0.029 A 
BRANCH  17  21
HETATM   21  O   UNL     1      37.384  -9.125   4.563  1.00  0.00    -0.361 OA
HETATM   22  H   UNL     1      36.692  -8.613   4.115  1.00  0.00     0.217 HD
ENDBRANCH  17  21
ENDBRANCH  12  15
ENDBRANCH   1  11
BRANCH   8  23
HETATM   23  C   UNL     1      43.702 -17.046   7.782  1.00  0.00     0.409 C 
HETATM   24  F   UNL     1      44.041 -15.759   7.556  1.00  0.00    -0.169 F 
HETATM   25  F   UNL     1      43.336 -17.124   9.089  1.00  0.00    -0.169 F 
HETATM   26  F   UNL     1      44.817 -17.797   7.652  1.00  0.00    -0.169 F 
ENDBRANCH   8  23
BRANCH   6  27
HETATM   27  C   UNL     1      43.942 -19.421   3.833  1.00  0.00    -0.035 A 
HETATM   28  C   UNL     1      43.300 -19.249   2.596  1.00  0.00     0.012 A 
HETATM   29  C   UNL     1      43.348 -20.255   1.628  1.00  0.00     0.043 A 
HETATM   30  C   UNL     1      44.037 -21.433   1.891  1.00  0.00     0.116 A 
HETATM   31  F   UNL     1      44.080 -22.395   0.961  1.00  0.00    -0.206 F 
HETATM   32  C   UNL     1      44.679 -21.629   3.107  1.00  0.00     0.043 A 
HETATM   33  C   UNL     1      44.631 -20.627   4.075  1.00  0.00     0.012 A 
ENDBRANCH   6  27
TORSDOF 5
ENDMDL
MODEL 7
REMARK VINA RESULT:      -8.6      4.149      8.914
REMARK  5 active torsions:
REMARK  status: ('A' for Active; 'I' for Inactive)
REMARK    1  A    between atoms: C_3  and  O_4 
REMARK    2  A    between atoms: C_6  and  N_7 
REMARK       I    between atoms: N_7  and  C_8 
REMARK    3  A    between atoms: C_8  and  C_9 
REMARK    4  A    between atoms: C_14  and  C_15 
REMARK    5  A    between atoms: C_23  and  C_24 
ROOT
HETATM    1  C   UNL     1      41.170 -16.123   1.643  1.00  0.00     0.148 A 
HETATM    2  N   UNL     1      40.310 -15.146   2.025  1.00  0.00    -0.165 NA
HETATM    3  N   UNL     1      39.991 -14.550   0.862  1.00  0.00    -0.240 N 
HETATM    4  C   UNL     1      40.695 -15.010  -0.214  1.00  0.00     0.123 A 
HETATM    5  N   UNL     1      40.606 -14.408  -1.416  1.00  0.00    -0.366 N 
HETATM    6  C   UNL     1      39.905 -13.142  -1.616  1.00  0.00     0.118 C 
HETATM    7  C   UNL     1      39.599 -12.440  -0.275  1.00  0.00     0.066 C 
HETATM    8  C   UNL     1      39.084 -13.421   0.789  1.00  0.00     0.221 C 
HETATM    9  C   UNL     1      41.413 -16.081   0.241  1.00  0.00     0.089 A 
HETATM   10  H   UNL     1      41.105 -14.771  -2.229  1.00  0.00     0.161 HD
ENDROOT
BRANCH   1  11
HETATM   11  C   UNL     1      41.788 -17.048   2.612  1.00  0.00     0.276 C 
HETATM   12  N   UNL     1      42.627 -17.952   1.990  1.00  0.00    -0.322 N 
HETATM   13  H   UNL     1      42.682 -17.821   0.983  1.00  0.00     0.169 HD
HETATM   14  O   UNL     1      41.522 -16.991   3.806  1.00  0.00    -0.266 OA
BRANCH  12  15
HETATM   15  C   UNL     1      43.344 -19.016   2.562  1.00  0.00     0.037 A 
HETATM   16  C   UNL     1      43.544 -20.247   1.937  1.00  0.00     0.066 A 
HETATM   17  C   UNL     1      44.276 -21.244   2.581  1.00  0.00     0.067 A 
HETATM   18  C   UNL     1      44.821 -21.035   3.843  1.00  0.00     0.036 A 
HETATM   19  C   UNL     1      44.626 -19.808   4.473  1.00  0.00     0.005 A 
HETATM   20  C   UNL     1      43.888 -18.806   3.837  1.00  0.00     0.029 A 
BRANCH  17  21
HETATM   21  O   UNL     1      44.437 -22.434   1.931  1.00  0.00    -0.361 OA
HETATM   22  H   UNL     1      44.666 -23.117   2.581  1.00  0.00     0.217 HD
ENDBRANCH  17  21
ENDBRANCH  12  15
ENDBRANCH   1  11
BRANCH   8  23
HETATM   23  C   UNL     1      37.679 -13.904   0.510  1.00  0.00     0.409 C 
HETATM   24  F   UNL     1      37.514 -14.296  -0.771  1.00  0.00    -0.169 F 
HETATM   25  F   UNL     1      37.409 -14.989   1.283  1.00  0.00    -0.169 F 
HETATM   26  F   UNL     1      36.727 -12.989   0.789  1.00  0.00    -0.169 F 
ENDBRANCH   8  23
BRANCH   6  27
HETATM   27  C   UNL     1      40.748 -12.249  -2.512  1.00  0.00    -0.035 A 
HETATM   28  C   UNL     1      41.997 -11.777  -2.076  1.00  0.00     0.012 A 
HETATM   29  C   UNL     1      42.770 -10.957  -2.901  1.00  0.00     0.043 A 
HETATM   30  C   UNL     1      42.302 -10.607  -4.162  1.00  0.00     0.116 A 
HETATM   31  F   UNL     1      43.046  -9.821  -4.949  1.00  0.00    -0.206 F 
HETATM   32  C   UNL     1      41.070 -11.060  -4.616  1.00  0.00     0.043 A 
HETATM   33  C   UNL     1      40.295 -11.878  -3.794  1.00  0.00     0.012 A 
ENDBRANCH   6  27
TORSDOF 5
ENDMDL
MODEL 8
REMARK VINA RESULT:      -8.6      1.706      2.365
REMARK  5 active torsions:
REMARK  status: ('A' for Active; 'I' for Inactive)
REMARK    1  A    between atoms: C_3  and  O_4 
REMARK    2  A    between atoms: C_6  and  N_7 
REMARK       I    between atoms: N_7  and  C_8 
REMARK    3  A    between atoms: C_8  and  C_9 
REMARK    4  A    between atoms: C_14  and  C_15 
REMARK    5  A    between atoms: C_23  and  C_24 
ROOT
HETATM    1  C   UNL     1      40.816 -14.838   0.781  1.00  0.00     0.148 A 
HETATM    2  N   UNL     1      40.755 -14.751   2.133  1.00  0.00    -0.165 NA
HETATM    3  N   UNL     1      41.819 -15.472   2.533  1.00  0.00    -0.240 N 
HETATM    4  C   UNL     1      42.473 -16.112   1.519  1.00  0.00     0.123 A 
HETATM    5  N   UNL     1      43.458 -16.997   1.772  1.00  0.00    -0.366 N 
HETATM    6  C   UNL     1      43.775 -17.460   3.120  1.00  0.00     0.118 C 
HETATM    7  C   UNL     1      42.662 -17.097   4.128  1.00  0.00     0.066 C 
HETATM    8  C   UNL     1      42.148 -15.663   3.931  1.00  0.00     0.221 C 
HETATM    9  C   UNL     1      41.897 -15.664   0.362  1.00  0.00     0.089 A 
HETATM   10  H   UNL     1      43.970 -17.450   1.015  1.00  0.00     0.161 HD
ENDROOT
BRANCH   1  11
HETATM   11  C   UNL     1      39.824 -14.184  -0.094  1.00  0.00     0.276 C 
HETATM   12  N   UNL     1      39.034 -13.294   0.607  1.00  0.00    -0.322 N 
HETATM   13  H   UNL     1      39.274 -13.236   1.594  1.00  0.00     0.169 HD
HETATM   14  O   UNL     1      39.742 -14.465  -1.284  1.00  0.00    -0.266 OA
BRANCH  12  15
HETATM   15  C   UNL     1      37.952 -12.531   0.139  1.00  0.00     0.037 A 
HETATM   16  C   UNL     1      36.830 -12.217   0.906  1.00  0.00     0.066 A 
HETATM   17  C   UNL     1      35.805 -11.445   0.358  1.00  0.00     0.067 A 
HETATM   18  C   UNL     1      35.880 -10.973  -0.948  1.00  0.00     0.036 A 
HETATM   19  C   UNL     1      36.998 -11.283  -1.720  1.00  0.00     0.005 A 
HETATM   20  C   UNL     1      38.026 -12.061  -1.180  1.00  0.00     0.029 A 
BRANCH  17  21
HETATM   21  O   UNL     1      34.725 -11.171   1.146  1.00  0.00    -0.361 OA
HETATM   22  H   UNL     1      34.664 -11.847   1.839  1.00  0.00     0.217 HD
ENDBRANCH  17  21
ENDBRANCH  12  15
ENDBRANCH   1  11
BRANCH   8  23
HETATM   23  C   UNL     1      43.146 -14.617   4.375  1.00  0.00     0.409 C 
HETATM   24  F   UNL     1      42.549 -13.514   4.874  1.00  0.00    -0.169 F 
HETATM   25  F   UNL     1      43.921 -15.121   5.371  1.00  0.00    -0.169 F 
HETATM   26  F   UNL     1      43.989 -14.224   3.396  1.00  0.00    -0.169 F 
ENDBRANCH   8  23
BRANCH   6  27
HETATM   27  C   UNL     1      43.999 -18.964   3.083  1.00  0.00    -0.035 A 
HETATM   28  C   UNL     1      44.575 -19.626   4.180  1.00  0.00     0.012 A 
HETATM   29  C   UNL     1      44.780 -21.007   4.143  1.00  0.00     0.043 A 
HETATM   30  C   UNL     1      44.411 -21.731   3.016  1.00  0.00     0.116 A 
HETATM   31  F   UNL     1      44.609 -23.054   2.986  1.00  0.00    -0.206 F 
HETATM   32  C   UNL     1      43.841 -21.100   1.918  1.00  0.00     0.043 A 
HETATM   33  C   UNL     1      43.636 -19.721   1.951  1.00  0.00     0.012 A 
ENDBRANCH   6  27
TORSDOF 5
ENDMDL
MODEL 9
REMARK VINA RESULT:      -8.6      3.135      3.774
REMARK  5 active torsions:
REMARK  status: ('A' for Active; 'I' for Inactive)
REMARK    1  A    between atoms: C_3  and  O_4 
REMARK    2  A    between atoms: C_6  and  N_7 
REMARK       I    between atoms: N_7  and  C_8 
REMARK    3  A    between atoms: C_8  and  C_9 
REMARK    4  A    between atoms: C_14  and  C_15 
REMARK    5  A    between atoms: C_23  and  C_24 
ROOT
HETATM    1  C   UNL     1      41.705 -13.747   2.041  1.00  0.00     0.148 A 
HETATM    2  N   UNL     1      40.803 -14.290   2.897  1.00  0.00    -0.165 NA
HETATM    3  N   UNL     1      41.507 -15.262   3.506  1.00  0.00    -0.240 N 
HETATM    4  C   UNL     1      42.760 -15.447   2.996  1.00  0.00     0.123 A 
HETATM    5  N   UNL     1      43.528 -16.483   3.389  1.00  0.00    -0.366 N 
HETATM    6  C   UNL     1      43.026 -17.560   4.238  1.00  0.00     0.118 C 
HETATM    7  C   UNL     1      41.484 -17.546   4.329  1.00  0.00     0.066 C 
HETATM    8  C   UNL     1      40.928 -16.126   4.515  1.00  0.00     0.221 C 
HETATM    9  C   UNL     1      42.951 -14.434   2.097  1.00  0.00     0.089 A 
HETATM   10  H   UNL     1      44.477 -16.604   3.035  1.00  0.00     0.161 HD
ENDROOT
BRANCH   1  11
HETATM   11  C   UNL     1      41.365 -12.623   1.149  1.00  0.00     0.276 C 
HETATM   12  N   UNL     1      42.352 -12.401   0.209  1.00  0.00    -0.322 N 
HETATM   13  H   UNL     1      43.133 -13.048   0.286  1.00  0.00     0.169 HD
HETATM   14  O   UNL     1      40.331 -11.983   1.297  1.00  0.00    -0.266 OA
BRANCH  12  15
HETATM   15  C   UNL     1      42.418 -11.393  -0.767  1.00  0.00     0.037 A 
HETATM   16  C   UNL     1      43.125 -10.200  -0.610  1.00  0.00     0.066 A 
HETATM   17  C   UNL     1      43.140  -9.259  -1.639  1.00  0.00     0.067 A 
HETATM   18  C   UNL     1      42.462  -9.486  -2.831  1.00  0.00     0.036 A 
HETATM   19  C   UNL     1      41.754 -10.675  -2.995  1.00  0.00     0.005 A 
HETATM   20  C   UNL     1      41.729 -11.620  -1.966  1.00  0.00     0.029 A 
BRANCH  17  21
HETATM   21  O   UNL     1      43.839  -8.105  -1.434  1.00  0.00    -0.361 OA
HETATM   22  H   UNL     1      43.872  -7.923  -0.481  1.00  0.00     0.217 HD
ENDBRANCH  17  21
ENDBRANCH  12  15
ENDBRANCH   1  11
BRANCH   8  23
HETATM   23  C   UNL     1      41.199 -15.566   5.892  1.00  0.00     0.409 C 
HETATM   24  F   UNL     1      41.382 -16.534   6.816  1.00  0.00    -0.169 F 
HETATM   25  F   UNL     1      42.344 -14.834   5.869  1.00  0.00    -0.169 F 
HETATM   26  F   UNL     1      40.229 -14.743   6.343  1.00  0.00    -0.169 F 
ENDBRANCH   8  23
BRANCH   6  27
HETATM   27  C   UNL     1      43.521 -18.890   3.689  1.00  0.00    -0.035 A 
HETATM   28  C   UNL     1      43.144 -19.316   2.405  1.00  0.00     0.012 A 
HETATM   29  C   UNL     1      43.600 -20.537   1.904  1.00  0.00     0.043 A 
HETATM   30  C   UNL     1      44.433 -21.334   2.678  1.00  0.00     0.116 A 
HETATM   31  F   UNL     1      44.868 -22.503   2.193  1.00  0.00    -0.206 F 
HETATM   32  C   UNL     1      44.820 -20.936   3.952  1.00  0.00     0.043 A 
HETATM   33  C   UNL     1      44.365 -19.718   4.456  1.00  0.00     0.012 A 
ENDBRANCH   6  27
TORSDOF 5
ENDMDL
MODEL 10
REMARK VINA RESULT:      -8.5      4.250      7.131
REMARK  5 active torsions:
REMARK  status: ('A' for Active; 'I' for Inactive)
REMARK    1  A    between atoms: C_3  and  O_4 
REMARK    2  A    between atoms: C_6  and  N_7 
REMARK       I    between atoms: N_7  and  C_8 
REMARK    3  A    between atoms: C_8  and  C_9 
REMARK    4  A    between atoms: C_14  and  C_15 
REMARK    5  A    between atoms: C_23  and  C_24 
ROOT
HETATM    1  C   UNL     1      40.832 -13.923   5.208  1.00  0.00     0.148 A 
HETATM    2  N   UNL     1      41.636 -13.682   4.143  1.00  0.00    -0.165 NA
HETATM    3  N   UNL     1      41.836 -14.909   3.628  1.00  0.00    -0.240 N 
HETATM    4  C   UNL     1      41.311 -15.922   4.378  1.00  0.00     0.123 A 
HETATM    5  N   UNL     1      41.562 -17.213   4.083  1.00  0.00    -0.366 N 
HETATM    6  C   UNL     1      42.535 -17.616   3.070  1.00  0.00     0.118 C 
HETATM    7  C   UNL     1      43.448 -16.442   2.653  1.00  0.00     0.066 C 
HETATM    8  C   UNL     1      42.661 -15.137   2.458  1.00  0.00     0.221 C 
HETATM    9  C   UNL     1      40.588 -15.316   5.369  1.00  0.00     0.089 A 
HETATM   10  H   UNL     1      41.143 -17.971   4.622  1.00  0.00     0.161 HD
ENDROOT
BRANCH   1  11
HETATM   11  C   UNL     1      40.347 -12.843   6.088  1.00  0.00     0.276 C 
HETATM   12  N   UNL     1      41.377 -12.020   6.500  1.00  0.00    -0.322 N 
HETATM   13  H   UNL     1      42.283 -12.291   6.124  1.00  0.00     0.169 HD
HETATM   14  O   UNL     1      39.166 -12.761   6.404  1.00  0.00    -0.266 OA
BRANCH  12  15
HETATM   15  C   UNL     1      41.323 -10.927   7.381  1.00  0.00     0.037 A 
HETATM   16  C   UNL     1      42.039 -10.854   8.577  1.00  0.00     0.066 A 
HETATM   17  C   UNL     1      41.928  -9.724   9.387  1.00  0.00     0.067 A 
HETATM   18  C   UNL     1      41.116  -8.656   9.023  1.00  0.00     0.036 A 
HETATM   19  C   UNL     1      40.399  -8.722   7.830  1.00  0.00     0.005 A 
HETATM   20  C   UNL     1      40.499  -9.854   7.016  1.00  0.00     0.029 A 
BRANCH  17  21
HETATM   21  O   UNL     1      42.641  -9.703  10.550  1.00  0.00    -0.361 OA
HETATM   22  H   UNL     1      43.209 -10.490  10.583  1.00  0.00     0.217 HD
ENDBRANCH  17  21
ENDBRANCH  12  15
ENDBRANCH   1  11
BRANCH   8  23
HETATM   23  C   UNL     1      41.801 -15.151   1.215  1.00  0.00     0.409 C 
HETATM   24  F   UNL     1      40.513 -15.455   1.482  1.00  0.00    -0.169 F 
HETATM   25  F   UNL     1      41.797 -13.914   0.651  1.00  0.00    -0.169 F 
HETATM   26  F   UNL     1      42.239 -16.003   0.264  1.00  0.00    -0.169 F 
ENDBRANCH   8  23
BRANCH   6  27
HETATM   27  C   UNL     1      43.358 -18.774   3.612  1.00  0.00    -0.035 A 
HETATM   28  C   UNL     1      43.934 -19.709   2.737  1.00  0.00     0.012 A 
HETATM   29  C   UNL     1      44.690 -20.772   3.237  1.00  0.00     0.043 A 
HETATM   30  C   UNL     1      44.874 -20.904   4.608  1.00  0.00     0.116 A 
HETATM   31  F   UNL     1      45.599 -21.924   5.082  1.00  0.00    -0.206 F 
HETATM   32  C   UNL     1      44.313 -19.994   5.495  1.00  0.00     0.043 A 
HETATM   33  C   UNL     1      43.557 -18.932   4.998  1.00  0.00     0.012 A 
ENDBRANCH   6  27
TORSDOF 5
ENDMDL
