MODEL 1
REMARK VINA RESULT:      -7.9      0.000      0.000
REMARK  3 active torsions:
REMARK  status: ('A' for Active; 'I' for Inactive)
REMARK    1  A    between atoms: C_9  and  C_10 
REMARK    2  A    between atoms: C_16  and  C_17 
REMARK       I    between atoms: C_17  and  N_18 
REMARK    3  A    between atoms: N_18  and  C_19 
ROOT
HETATM    1  C   UNL     1      41.389 -16.570   0.072  1.00  0.00     0.070 C 
HETATM    2  C   UNL     1      41.678 -15.779   1.324  1.00  0.00     0.037 C 
HETATM    3  N   UNL     1      40.971 -14.588   1.457  1.00  0.00    -0.192 N 
HETATM    4  C   UNL     1      41.292 -13.646   2.365  1.00  0.00     0.725 A 
HETATM    5  N   UNL     1      42.233 -13.925   3.319  1.00  0.00    -0.082 N 
HETATM    6  N   UNL     1      42.542 -12.823   4.040  1.00  0.00    -0.149 NA
HETATM    7  C   UNL     1      41.683 -11.940   3.515  1.00  0.00     0.275 A 
HETATM    8  N   UNL     1      40.903 -12.403   2.487  1.00  0.00    -0.054 NA
HETATM    9  C   UNL     1      42.912 -15.215   3.448  1.00  0.00     0.221 C 
HETATM   10  C   UNL     1      42.605 -16.115   2.256  1.00  0.00     0.064 C 
HETATM   11  H   UNL     1      40.342 -14.327   0.702  1.00  0.00     0.184 HD
ENDROOT
BRANCH  10  12
HETATM   12  C   UNL     1      43.488 -17.306   2.174  1.00  0.00     0.256 C 
HETATM   13  N   UNL     1      43.091 -18.360   2.963  1.00  0.00    -0.322 N 
HETATM   14  H   UNL     1      42.318 -18.192   3.597  1.00  0.00     0.169 HD
HETATM   15  O   UNL     1      44.480 -17.255   1.456  1.00  0.00    -0.267 OA
BRANCH  13  16
HETATM   16  C   UNL     1      43.628 -19.664   2.947  1.00  0.00     0.052 A 
HETATM   17  C   UNL     1      44.455 -20.204   3.930  1.00  0.00     0.145 A 
HETATM   18  N   UNL     1      45.000 -21.447   3.871  1.00  0.00    -0.271 NA
HETATM   19  C   UNL     1      44.713 -22.189   2.782  1.00  0.00     0.116 A 
HETATM   20  C   UNL     1      43.900 -21.749   1.752  1.00  0.00     0.021 A 
HETATM   21  C   UNL     1      43.348 -20.470   1.841  1.00  0.00     0.032 A 
ENDBRANCH  13  16
ENDBRANCH  10  12
BRANCH   9  22
HETATM   22  C   UNL     1      42.510 -15.841   4.781  1.00  0.00     0.064 A 
HETATM   23  N   UNL     1      43.495 -16.253   5.629  1.00  0.00    -0.263 NA
HETATM   24  C   UNL     1      43.117 -16.873   6.769  1.00  0.00     0.117 A 
HETATM   25  C   UNL     1      41.799 -17.100   7.125  1.00  0.00     0.019 A 
HETATM   26  C   UNL     1      40.803 -16.664   6.263  1.00  0.00     0.003 A 
HETATM   27  C   UNL     1      41.157 -16.029   5.076  1.00  0.00     0.030 A 
ENDBRANCH   9  22
TORSDOF 3
ENDMDL
MODEL 2
REMARK VINA RESULT:      -7.8      1.853      3.795
REMARK  3 active torsions:
REMARK  status: ('A' for Active; 'I' for Inactive)
REMARK    1  A    between atoms: C_9  and  C_10 
REMARK    2  A    between atoms: C_16  and  C_17 
REMARK       I    between atoms: C_17  and  N_18 
REMARK    3  A    between atoms: N_18  and  C_19 
ROOT
HETATM    1  C   UNL     1      44.169 -16.050   6.666  1.00  0.00     0.070 C 
HETATM    2  C   UNL     1      43.057 -15.352   5.922  1.00  0.00     0.037 C 
HETATM    3  N   UNL     1      42.870 -14.012   6.244  1.00  0.00    -0.192 N 
HETATM    4  C   UNL     1      41.774 -13.319   5.877  1.00  0.00     0.725 A 
HETATM    5  N   UNL     1      40.883 -13.884   5.006  1.00  0.00    -0.082 N 
HETATM    6  N   UNL     1      39.774 -13.120   4.874  1.00  0.00    -0.149 NA
HETATM    7  C   UNL     1      40.111 -12.069   5.632  1.00  0.00     0.275 A 
HETATM    8  N   UNL     1      41.325 -12.153   6.265  1.00  0.00    -0.054 NA
HETATM    9  C   UNL     1      41.051 -15.207   4.403  1.00  0.00     0.221 C 
HETATM   10  C   UNL     1      42.216 -15.954   5.044  1.00  0.00     0.064 C 
HETATM   11  H   UNL     1      43.466 -13.612   6.963  1.00  0.00     0.184 HD
ENDROOT
BRANCH  10  12
HETATM   12  C   UNL     1      42.254 -17.398   4.696  1.00  0.00     0.256 C 
HETATM   13  N   UNL     1      43.269 -17.745   3.837  1.00  0.00    -0.322 N 
HETATM   14  H   UNL     1      43.815 -16.988   3.442  1.00  0.00     0.169 HD
HETATM   15  O   UNL     1      41.396 -18.138   5.163  1.00  0.00    -0.267 OA
BRANCH  13  16
HETATM   16  C   UNL     1      43.653 -19.057   3.485  1.00  0.00     0.052 A 
HETATM   17  C   UNL     1      44.460 -19.891   4.256  1.00  0.00     0.145 A 
HETATM   18  N   UNL     1      44.855 -21.134   3.876  1.00  0.00    -0.271 NA
HETATM   19  C   UNL     1      44.432 -21.568   2.672  1.00  0.00     0.116 A 
HETATM   20  C   UNL     1      43.625 -20.821   1.832  1.00  0.00     0.021 A 
HETATM   21  C   UNL     1      43.228 -19.550   2.249  1.00  0.00     0.032 A 
ENDBRANCH  13  16
ENDBRANCH  10  12
BRANCH   9  22
HETATM   22  C   UNL     1      41.216 -15.035   2.896  1.00  0.00     0.064 A 
HETATM   23  N   UNL     1      42.026 -14.037   2.440  1.00  0.00    -0.263 NA
HETATM   24  C   UNL     1      42.097 -13.854   1.102  1.00  0.00     0.117 A 
HETATM   25  C   UNL     1      41.411 -14.623   0.179  1.00  0.00     0.019 A 
HETATM   26  C   UNL     1      40.600 -15.646   0.652  1.00  0.00     0.003 A 
HETATM   27  C   UNL     1      40.498 -15.857   2.023  1.00  0.00     0.030 A 
ENDBRANCH   9  22
TORSDOF 3
ENDMDL
MODEL 3
REMARK VINA RESULT:      -7.5      2.286      5.622
REMARK  3 active torsions:
REMARK  status: ('A' for Active; 'I' for Inactive)
REMARK    1  A    between atoms: C_9  and  C_10 
REMARK    2  A    between atoms: C_16  and  C_17 
REMARK       I    between atoms: C_17  and  N_18 
REMARK    3  A    between atoms: N_18  and  C_19 
ROOT
HETATM    1  C   UNL     1      43.838 -18.053   1.766  1.00  0.00     0.070 C 
HETATM    2  C   UNL     1      43.269 -17.547   3.069  1.00  0.00     0.037 C 
HETATM    3  N   UNL     1      44.019 -17.837   4.204  1.00  0.00    -0.192 N 
HETATM    4  C   UNL     1      43.537 -17.695   5.453  1.00  0.00     0.725 A 
HETATM    5  N   UNL     1      42.331 -17.076   5.642  1.00  0.00    -0.082 N 
HETATM    6  N   UNL     1      41.933 -17.161   6.932  1.00  0.00    -0.149 NA
HETATM    7  C   UNL     1      42.993 -17.773   7.474  1.00  0.00     0.275 A 
HETATM    8  N   UNL     1      43.995 -18.118   6.604  1.00  0.00    -0.054 NA
HETATM    9  C   UNL     1      41.519 -16.515   4.561  1.00  0.00     0.221 C 
HETATM   10  C   UNL     1      42.077 -16.912   3.198  1.00  0.00     0.064 C 
HETATM   11  H   UNL     1      44.868 -18.383   4.080  1.00  0.00     0.184 HD
ENDROOT
BRANCH  10  12
HETATM   12  C   UNL     1      41.144 -16.634   2.076  1.00  0.00     0.256 C 
HETATM   13  N   UNL     1      41.432 -15.489   1.373  1.00  0.00    -0.322 N 
HETATM   14  H   UNL     1      42.165 -14.895   1.743  1.00  0.00     0.169 HD
HETATM   15  O   UNL     1      40.210 -17.403   1.884  1.00  0.00    -0.267 OA
BRANCH  13  16
HETATM   16  C   UNL     1      40.834 -15.080   0.162  1.00  0.00     0.052 A 
HETATM   17  C   UNL     1      39.787 -14.168   0.052  1.00  0.00     0.145 A 
HETATM   18  N   UNL     1      39.194 -13.824  -1.121  1.00  0.00    -0.271 NA
HETATM   19  C   UNL     1      39.660 -14.417  -2.238  1.00  0.00     0.116 A 
HETATM   20  C   UNL     1      40.697 -15.334  -2.239  1.00  0.00     0.021 A 
HETATM   21  C   UNL     1      41.293 -15.664  -1.021  1.00  0.00     0.032 A 
ENDBRANCH  13  16
ENDBRANCH  10  12
BRANCH   9  22
HETATM   22  C   UNL     1      41.439 -15.003   4.751  1.00  0.00     0.064 A 
HETATM   23  N   UNL     1      42.481 -14.237   4.319  1.00  0.00    -0.263 NA
HETATM   24  C   UNL     1      42.422 -12.909   4.566  1.00  0.00     0.117 A 
HETATM   25  C   UNL     1      41.369 -12.290   5.216  1.00  0.00     0.019 A 
HETATM   26  C   UNL     1      40.307 -13.076   5.639  1.00  0.00     0.003 A 
HETATM   27  C   UNL     1      40.338 -14.447   5.408  1.00  0.00     0.030 A 
ENDBRANCH   9  22
TORSDOF 3
ENDMDL
MODEL 4
REMARK VINA RESULT:      -7.2      2.256      6.231
REMARK  3 active torsions:
REMARK  status: ('A' for Active; 'I' for Inactive)
REMARK    1  A    between atoms: C_9  and  C_10 
REMARK    2  A    between atoms: C_16  and  C_17 
REMARK       I    between atoms: C_17  and  N_18 
REMARK    3  A    between atoms: N_18  and  C_19 
ROOT
HETATM    1  C   UNL     1      39.810 -14.362   5.500  1.00  0.00     0.070 C 
HETATM    2  C   UNL     1      41.052 -15.218   5.463  1.00  0.00     0.037 C 
HETATM    3  N   UNL     1      41.196 -16.110   6.521  1.00  0.00    -0.192 N 
HETATM    4  C   UNL     1      42.351 -16.752   6.782  1.00  0.00     0.725 A 
HETATM    5  N   UNL     1      43.381 -16.674   5.884  1.00  0.00    -0.082 N 
HETATM    6  N   UNL     1      44.506 -17.241   6.378  1.00  0.00    -0.149 NA
HETATM    7  C   UNL     1      44.049 -17.712   7.545  1.00  0.00     0.275 A 
HETATM    8  N   UNL     1      42.738 -17.432   7.831  1.00  0.00    -0.054 NA
HETATM    9  C   UNL     1      43.307 -15.953   4.613  1.00  0.00     0.221 C 
HETATM   10  C   UNL     1      42.032 -15.121   4.531  1.00  0.00     0.064 C 
HETATM   11  H   UNL     1      40.482 -16.103   7.245  1.00  0.00     0.184 HD
ENDROOT
BRANCH  10  12
HETATM   12  C   UNL     1      42.038 -14.141   3.414  1.00  0.00     0.256 C 
HETATM   13  N   UNL     1      41.397 -14.576   2.278  1.00  0.00    -0.322 N 
HETATM   14  H   UNL     1      41.086 -15.540   2.268  1.00  0.00     0.169 HD
HETATM   15  O   UNL     1      42.613 -13.071   3.573  1.00  0.00    -0.267 OA
BRANCH  13  16
HETATM   16  C   UNL     1      41.093 -13.797   1.142  1.00  0.00     0.052 A 
HETATM   17  C   UNL     1      40.182 -12.744   1.111  1.00  0.00     0.145 A 
HETATM   18  N   UNL     1      39.869 -12.037  -0.006  1.00  0.00    -0.271 NA
HETATM   19  C   UNL     1      40.488 -12.395  -1.148  1.00  0.00     0.116 A 
HETATM   20  C   UNL     1      41.411 -13.424  -1.226  1.00  0.00     0.021 A 
HETATM   21  C   UNL     1      41.719 -14.129  -0.062  1.00  0.00     0.032 A 
ENDBRANCH  13  16
ENDBRANCH  10  12
BRANCH   9  22
HETATM   22  C   UNL     1      43.429 -16.963   3.476  1.00  0.00     0.064 A 
HETATM   23  N   UNL     1      43.992 -16.557   2.302  1.00  0.00    -0.263 NA
HETATM   24  C   UNL     1      44.020 -17.446   1.284  1.00  0.00     0.117 A 
HETATM   25  C   UNL     1      43.525 -18.735   1.369  1.00  0.00     0.019 A 
HETATM   26  C   UNL     1      42.967 -19.145   2.573  1.00  0.00     0.003 A 
HETATM   27  C   UNL     1      42.915 -18.252   3.639  1.00  0.00     0.030 A 
ENDBRANCH   9  22
TORSDOF 3
ENDMDL
MODEL 5
REMARK VINA RESULT:      -7.2      1.726      1.976
REMARK  3 active torsions:
REMARK  status: ('A' for Active; 'I' for Inactive)
REMARK    1  A    between atoms: C_9  and  C_10 
REMARK    2  A    between atoms: C_16  and  C_17 
REMARK       I    between atoms: C_17  and  N_18 
REMARK    3  A    between atoms: N_18  and  C_19 
ROOT
HETATM    1  C   UNL     1      40.732 -17.751   0.687  1.00  0.00     0.070 C 
HETATM    2  C   UNL     1      41.200 -16.372   1.085  1.00  0.00     0.037 C 
HETATM    3  N   UNL     1      40.380 -15.323   0.683  1.00  0.00    -0.192 N 
HETATM    4  C   UNL     1      40.772 -14.035   0.722  1.00  0.00     0.725 A 
HETATM    5  N   UNL     1      41.948 -13.709   1.341  1.00  0.00    -0.082 N 
HETATM    6  N   UNL     1      42.259 -12.406   1.147  1.00  0.00    -0.149 NA
HETATM    7  C   UNL     1      41.178 -11.995   0.474  1.00  0.00     0.275 A 
HETATM    8  N   UNL     1      40.246 -12.960   0.191  1.00  0.00    -0.054 NA
HETATM    9  C   UNL     1      42.820 -14.677   2.008  1.00  0.00     0.221 C 
HETATM   10  C   UNL     1      42.365 -16.105   1.725  1.00  0.00     0.064 C 
HETATM   11  H   UNL     1      39.554 -15.552   0.137  1.00  0.00     0.184 HD
ENDROOT
BRANCH  10  12
HETATM   12  C   UNL     1      43.367 -17.130   2.115  1.00  0.00     0.256 C 
HETATM   13  N   UNL     1      42.954 -17.967   3.125  1.00  0.00    -0.322 N 
HETATM   14  H   UNL     1      42.074 -17.743   3.574  1.00  0.00     0.169 HD
HETATM   15  O   UNL     1      44.453 -17.137   1.548  1.00  0.00    -0.267 OA
BRANCH  13  16
HETATM   16  C   UNL     1      43.616 -19.132   3.567  1.00  0.00     0.052 A 
HETATM   17  C   UNL     1      44.111 -19.334   4.853  1.00  0.00     0.145 A 
HETATM   18  N   UNL     1      44.788 -20.445   5.244  1.00  0.00    -0.271 NA
HETATM   19  C   UNL     1      44.985 -21.400   4.313  1.00  0.00     0.116 A 
HETATM   20  C   UNL     1      44.532 -21.299   3.009  1.00  0.00     0.021 A 
HETATM   21  C   UNL     1      43.834 -20.150   2.636  1.00  0.00     0.032 A 
ENDBRANCH  13  16
ENDBRANCH  10  12
BRANCH   9  22
HETATM   22  C   UNL     1      42.854 -14.350   3.498  1.00  0.00     0.064 A 
HETATM   23  N   UNL     1      44.025 -13.913   4.042  1.00  0.00    -0.263 NA
HETATM   24  C   UNL     1      44.052 -13.703   5.377  1.00  0.00     0.117 A 
HETATM   25  C   UNL     1      42.966 -13.894   6.212  1.00  0.00     0.019 A 
HETATM   26  C   UNL     1      41.773 -14.326   5.647  1.00  0.00     0.003 A 
HETATM   27  C   UNL     1      41.712 -14.559   4.277  1.00  0.00     0.030 A 
ENDBRANCH   9  22
TORSDOF 3
ENDMDL
MODEL 6
REMARK VINA RESULT:      -7.1      2.769      4.333
REMARK  3 active torsions:
REMARK  status: ('A' for Active; 'I' for Inactive)
REMARK    1  A    between atoms: C_9  and  C_10 
REMARK    2  A    between atoms: C_16  and  C_17 
REMARK       I    between atoms: C_17  and  N_18 
REMARK    3  A    between atoms: N_18  and  C_19 
ROOT
HETATM    1  C   UNL     1      40.929 -15.756  -2.243  1.00  0.00     0.070 C 
HETATM    2  C   UNL     1      41.297 -14.500  -1.491  1.00  0.00     0.037 C 
HETATM    3  N   UNL     1      41.396 -13.347  -2.263  1.00  0.00    -0.192 N 
HETATM    4  C   UNL     1      41.962 -12.212  -1.810  1.00  0.00     0.725 A 
HETATM    5  N   UNL     1      42.298 -12.110  -0.488  1.00  0.00    -0.082 N 
HETATM    6  N   UNL     1      42.993 -10.974  -0.244  1.00  0.00    -0.149 NA
HETATM    7  C   UNL     1      42.960 -10.405  -1.455  1.00  0.00     0.275 A 
HETATM    8  N   UNL     1      42.341 -11.130  -2.441  1.00  0.00    -0.054 NA
HETATM    9  C   UNL     1      42.054 -13.158   0.504  1.00  0.00     0.221 C 
HETATM   10  C   UNL     1      41.595 -14.448  -0.169  1.00  0.00     0.064 C 
HETATM   11  H   UNL     1      41.244 -13.436  -3.265  1.00  0.00     0.184 HD
ENDROOT
BRANCH  10  12
HETATM   12  C   UNL     1      41.620 -15.626   0.736  1.00  0.00     0.256 C 
HETATM   13  N   UNL     1      42.867 -16.179   0.907  1.00  0.00    -0.322 N 
HETATM   14  H   UNL     1      43.615 -15.813   0.329  1.00  0.00     0.169 HD
HETATM   15  O   UNL     1      40.566 -16.016   1.224  1.00  0.00    -0.267 OA
BRANCH  13  16
HETATM   16  C   UNL     1      43.216 -17.178   1.841  1.00  0.00     0.052 A 
HETATM   17  C   UNL     1      43.423 -16.968   3.202  1.00  0.00     0.145 A 
HETATM   18  N   UNL     1      43.804 -17.936   4.075  1.00  0.00    -0.271 NA
HETATM   19  C   UNL     1      43.992 -19.173   3.572  1.00  0.00     0.116 A 
HETATM   20  C   UNL     1      43.808 -19.489   2.237  1.00  0.00     0.021 A 
HETATM   21  C   UNL     1      43.411 -18.476   1.363  1.00  0.00     0.032 A 
ENDBRANCH  13  16
ENDBRANCH  10  12
BRANCH   9  22
HETATM   22  C   UNL     1      41.050 -12.633   1.526  1.00  0.00     0.064 A 
HETATM   23  N   UNL     1      41.479 -12.406   2.801  1.00  0.00    -0.263 NA
HETATM   24  C   UNL     1      40.555 -12.015   3.708  1.00  0.00     0.117 A 
HETATM   25  C   UNL     1      39.217 -11.822   3.415  1.00  0.00     0.019 A 
HETATM   26  C   UNL     1      38.793 -12.041   2.111  1.00  0.00     0.003 A 
HETATM   27  C   UNL     1      39.715 -12.453   1.154  1.00  0.00     0.030 A 
ENDBRANCH   9  22
TORSDOF 3
ENDMDL
MODEL 7
REMARK VINA RESULT:      -6.8      2.752      5.683
REMARK  3 active torsions:
REMARK  status: ('A' for Active; 'I' for Inactive)
REMARK    1  A    between atoms: C_9  and  C_10 
REMARK    2  A    between atoms: C_16  and  C_17 
REMARK       I    between atoms: C_17  and  N_18 
REMARK    3  A    between atoms: N_18  and  C_19 
ROOT
HETATM    1  C   UNL     1      39.312 -12.388   2.435  1.00  0.00     0.070 C 
HETATM    2  C   UNL     1      40.569 -13.050   2.945  1.00  0.00     0.037 C 
HETATM    3  N   UNL     1      40.764 -12.988   4.321  1.00  0.00    -0.192 N 
HETATM    4  C   UNL     1      41.939 -13.289   4.906  1.00  0.00     0.725 A 
HETATM    5  N   UNL     1      42.937 -13.850   4.157  1.00  0.00    -0.082 N 
HETATM    6  N   UNL     1      44.089 -13.939   4.863  1.00  0.00    -0.149 NA
HETATM    7  C   UNL     1      43.678 -13.489   6.056  1.00  0.00     0.275 A 
HETATM    8  N   UNL     1      42.371 -13.079   6.123  1.00  0.00    -0.054 NA
HETATM    9  C   UNL     1      42.810 -14.184   2.738  1.00  0.00     0.221 C 
HETATM   10  C   UNL     1      41.517 -13.619   2.159  1.00  0.00     0.064 C 
HETATM   11  H   UNL     1      40.073 -12.485   4.872  1.00  0.00     0.184 HD
ENDROOT
BRANCH  10  12
HETATM   12  C   UNL     1      41.469 -13.659   0.675  1.00  0.00     0.256 C 
HETATM   13  N   UNL     1      40.643 -14.632   0.163  1.00  0.00    -0.322 N 
HETATM   14  H   UNL     1      40.242 -15.287   0.824  1.00  0.00     0.169 HD
HETATM   15  O   UNL     1      42.160 -12.870   0.042  1.00  0.00    -0.267 OA
BRANCH  13  16
HETATM   16  C   UNL     1      40.267 -14.781  -1.189  1.00  0.00     0.052 A 
HETATM   17  C   UNL     1      40.956 -15.536  -2.135  1.00  0.00     0.145 A 
HETATM   18  N   UNL     1      40.602 -15.627  -3.443  1.00  0.00    -0.271 NA
HETATM   19  C   UNL     1      39.513 -14.933  -3.832  1.00  0.00     0.116 A 
HETATM   20  C   UNL     1      38.757 -14.156  -2.971  1.00  0.00     0.021 A 
HETATM   21  C   UNL     1      39.139 -14.085  -1.631  1.00  0.00     0.032 A 
ENDBRANCH  13  16
ENDBRANCH  10  12
BRANCH   9  22
HETATM   22  C   UNL     1      42.915 -15.699   2.586  1.00  0.00     0.064 A 
HETATM   23  N   UNL     1      42.043 -16.484   3.280  1.00  0.00    -0.263 NA
HETATM   24  C   UNL     1      42.204 -17.824   3.190  1.00  0.00     0.117 A 
HETATM   25  C   UNL     1      43.185 -18.435   2.431  1.00  0.00     0.019 A 
HETATM   26  C   UNL     1      44.060 -17.628   1.716  1.00  0.00     0.003 A 
HETATM   27  C   UNL     1      43.928 -16.245   1.793  1.00  0.00     0.030 A 
ENDBRANCH   9  22
TORSDOF 3
ENDMDL
MODEL 8
REMARK VINA RESULT:      -6.7      2.933      4.760
REMARK  3 active torsions:
REMARK  status: ('A' for Active; 'I' for Inactive)
REMARK    1  A    between atoms: C_9  and  C_10 
REMARK    2  A    between atoms: C_16  and  C_17 
REMARK       I    between atoms: C_17  and  N_18 
REMARK    3  A    between atoms: N_18  and  C_19 
ROOT
HETATM    1  C   UNL     1      41.461 -16.783   0.262  1.00  0.00     0.070 C 
HETATM    2  C   UNL     1      41.589 -15.287   0.413  1.00  0.00     0.037 C 
HETATM    3  N   UNL     1      41.675 -14.569  -0.776  1.00  0.00    -0.192 N 
HETATM    4  C   UNL     1      42.052 -13.277  -0.822  1.00  0.00     0.725 A 
HETATM    5  N   UNL     1      42.187 -12.574   0.344  1.00  0.00    -0.082 N 
HETATM    6  N   UNL     1      42.720 -11.351   0.120  1.00  0.00    -0.149 NA
HETATM    7  C   UNL     1      42.798 -11.360  -1.217  1.00  0.00     0.275 A 
HETATM    8  N   UNL     1      42.402 -12.520  -1.831  1.00  0.00    -0.054 NA
HETATM    9  C   UNL     1      41.917 -13.128   1.671  1.00  0.00     0.221 C 
HETATM   10  C   UNL     1      41.692 -14.634   1.598  1.00  0.00     0.064 C 
HETATM   11  H   UNL     1      41.674 -15.096  -1.645  1.00  0.00     0.184 HD
ENDROOT
BRANCH  10  12
HETATM   12  C   UNL     1      41.712 -15.299   2.926  1.00  0.00     0.256 C 
HETATM   13  N   UNL     1      42.973 -15.584   3.395  1.00  0.00    -0.322 N 
HETATM   14  H   UNL     1      43.746 -15.423   2.761  1.00  0.00     0.169 HD
HETATM   15  O   UNL     1      40.646 -15.555   3.473  1.00  0.00    -0.267 OA
BRANCH  13  16
HETATM   16  C   UNL     1      43.298 -16.041   4.690  1.00  0.00     0.052 A 
HETATM   17  C   UNL     1      43.353 -15.244   5.832  1.00  0.00     0.145 A 
HETATM   18  N   UNL     1      43.714 -15.696   7.061  1.00  0.00    -0.271 NA
HETATM   19  C   UNL     1      44.040 -17.000   7.161  1.00  0.00     0.116 A 
HETATM   20  C   UNL     1      44.014 -17.877   6.091  1.00  0.00     0.021 A 
HETATM   21  C   UNL     1      43.633 -17.389   4.841  1.00  0.00     0.032 A 
ENDBRANCH  13  16
ENDBRANCH  10  12
BRANCH   9  22
HETATM   22  C   UNL     1      40.732 -12.380   2.275  1.00  0.00     0.064 A 
HETATM   23  N   UNL     1      40.939 -11.628   3.393  1.00  0.00    -0.263 NA
HETATM   24  C   UNL     1      39.860 -11.036   3.954  1.00  0.00     0.117 A 
HETATM   25  C   UNL     1      38.574 -11.141   3.456  1.00  0.00     0.019 A 
HETATM   26  C   UNL     1      38.375 -11.898   2.309  1.00  0.00     0.003 A 
HETATM   27  C   UNL     1      39.462 -12.528   1.710  1.00  0.00     0.030 A 
ENDBRANCH   9  22
TORSDOF 3
ENDMDL
MODEL 9
REMARK VINA RESULT:      -6.7      2.519      7.268
REMARK  3 active torsions:
REMARK  status: ('A' for Active; 'I' for Inactive)
REMARK    1  A    between atoms: C_9  and  C_10 
REMARK    2  A    between atoms: C_16  and  C_17 
REMARK       I    between atoms: C_17  and  N_18 
REMARK    3  A    between atoms: N_18  and  C_19 
ROOT
HETATM    1  C   UNL     1      40.768 -16.713   6.282  1.00  0.00     0.070 C 
HETATM    2  C   UNL     1      41.524 -16.537   4.988  1.00  0.00     0.037 C 
HETATM    3  N   UNL     1      41.708 -17.695   4.239  1.00  0.00    -0.192 N 
HETATM    4  C   UNL     1      42.571 -17.768   3.208  1.00  0.00     0.725 A 
HETATM    5  N   UNL     1      43.170 -16.625   2.751  1.00  0.00    -0.082 N 
HETATM    6  N   UNL     1      44.117 -16.905   1.825  1.00  0.00    -0.149 NA
HETATM    7  C   UNL     1      43.969 -18.231   1.718  1.00  0.00     0.275 A 
HETATM    8  N   UNL     1      43.036 -18.798   2.548  1.00  0.00    -0.054 NA
HETATM    9  C   UNL     1      42.911 -15.291   3.293  1.00  0.00     0.221 C 
HETATM   10  C   UNL     1      42.076 -15.372   4.566  1.00  0.00     0.064 C 
HETATM   11  H   UNL     1      41.350 -18.566   4.622  1.00  0.00     0.184 HD
ENDROOT
BRANCH  10  12
HETATM   12  C   UNL     1      42.032 -14.096   5.324  1.00  0.00     0.256 C 
HETATM   13  N   UNL     1      40.957 -13.294   5.020  1.00  0.00    -0.322 N 
HETATM   14  H   UNL     1      40.371 -13.587   4.247  1.00  0.00     0.169 HD
HETATM   15  O   UNL     1      42.935 -13.851   6.116  1.00  0.00    -0.267 OA
BRANCH  13  16
HETATM   16  C   UNL     1      40.567 -12.125   5.707  1.00  0.00     0.052 A 
HETATM   17  C   UNL     1      39.648 -12.078   6.753  1.00  0.00     0.145 A 
HETATM   18  N   UNL     1      39.251 -10.935   7.369  1.00  0.00    -0.271 NA
HETATM   19  C   UNL     1      39.790  -9.782   6.924  1.00  0.00     0.116 A 
HETATM   20  C   UNL     1      40.713  -9.719   5.895  1.00  0.00     0.021 A 
HETATM   21  C   UNL     1      41.109 -10.909   5.283  1.00  0.00     0.032 A 
ENDBRANCH  13  16
ENDBRANCH  10  12
BRANCH   9  22
HETATM   22  C   UNL     1      42.254 -14.446   2.205  1.00  0.00     0.064 A 
HETATM   23  N   UNL     1      42.643 -13.147   2.066  1.00  0.00    -0.263 NA
HETATM   24  C   UNL     1      41.994 -12.397   1.147  1.00  0.00     0.117 A 
HETATM   25  C   UNL     1      40.975 -12.872   0.342  1.00  0.00     0.019 A 
HETATM   26  C   UNL     1      40.595 -14.200   0.481  1.00  0.00     0.003 A 
HETATM   27  C   UNL     1      41.237 -14.999   1.422  1.00  0.00     0.030 A 
ENDBRANCH   9  22
TORSDOF 3
ENDMDL
MODEL 10
REMARK VINA RESULT:      -6.7      2.399      3.576
REMARK  3 active torsions:
REMARK  status: ('A' for Active; 'I' for Inactive)
REMARK    1  A    between atoms: C_9  and  C_10 
REMARK    2  A    between atoms: C_16  and  C_17 
REMARK       I    between atoms: C_17  and  N_18 
REMARK    3  A    between atoms: N_18  and  C_19 
ROOT
HETATM    1  C   UNL     1      40.960 -17.750   1.341  1.00  0.00     0.070 C 
HETATM    2  C   UNL     1      41.082 -16.249   1.434  1.00  0.00     0.037 C 
HETATM    3  N   UNL     1      40.384 -15.530   0.468  1.00  0.00    -0.192 N 
HETATM    4  C   UNL     1      40.589 -14.218   0.244  1.00  0.00     0.725 A 
HETATM    5  N   UNL     1      41.380 -13.505   1.105  1.00  0.00    -0.082 N 
HETATM    6  N   UNL     1      41.602 -12.253   0.643  1.00  0.00    -0.149 NA
HETATM    7  C   UNL     1      40.842 -12.261  -0.459  1.00  0.00     0.275 A 
HETATM    8  N   UNL     1      40.208 -13.444  -0.740  1.00  0.00    -0.054 NA
HETATM    9  C   UNL     1      42.010 -14.071   2.298  1.00  0.00     0.221 C 
HETATM   10  C   UNL     1      41.860 -15.588   2.327  1.00  0.00     0.064 C 
HETATM   11  H   UNL     1      39.874 -16.058  -0.235  1.00  0.00     0.184 HD
ENDROOT
BRANCH  10  12
HETATM   12  C   UNL     1      42.725 -16.247   3.339  1.00  0.00     0.256 C 
HETATM   13  N   UNL     1      42.070 -16.606   4.493  1.00  0.00    -0.322 N 
HETATM   14  H   UNL     1      41.111 -16.296   4.592  1.00  0.00     0.169 HD
HETATM   15  O   UNL     1      43.916 -16.393   3.090  1.00  0.00    -0.267 OA
BRANCH  13  16
HETATM   16  C   UNL     1      42.593 -17.400   5.536  1.00  0.00     0.052 A 
HETATM   17  C   UNL     1      42.720 -16.999   6.864  1.00  0.00     0.145 A 
HETATM   18  N   UNL     1      43.270 -17.763   7.843  1.00  0.00    -0.271 NA
HETATM   19  C   UNL     1      43.717 -18.984   7.487  1.00  0.00     0.116 A 
HETATM   20  C   UNL     1      43.634 -19.480   6.197  1.00  0.00     0.021 A 
HETATM   21  C   UNL     1      43.059 -18.677   5.212  1.00  0.00     0.032 A 
ENDBRANCH  13  16
ENDBRANCH  10  12
BRANCH   9  22
HETATM   22  C   UNL     1      41.413 -13.393   3.528  1.00  0.00     0.064 A 
HETATM   23  N   UNL     1      42.223 -12.616   4.301  1.00  0.00    -0.263 NA
HETATM   24  C   UNL     1      41.692 -12.088   5.427  1.00  0.00     0.117 A 
HETATM   25  C   UNL     1      40.382 -12.281   5.827  1.00  0.00     0.019 A 
HETATM   26  C   UNL     1      39.560 -13.062   5.026  1.00  0.00     0.003 A 
HETATM   27  C   UNL     1      40.076 -13.628   3.865  1.00  0.00     0.030 A 
ENDBRANCH   9  22
TORSDOF 3
ENDMDL
