MODEL 1
REMARK VINA RESULT:      -8.6      0.000      0.000
REMARK  6 active torsions:
REMARK  status: ('A' for Active; 'I' for Inactive)
REMARK    1  A    between atoms: C_2  and  C_3 
REMARK    2  A    between atoms: C_3  and  N_4 
REMARK    3  A    between atoms: C_3  and  C_11 
REMARK    4  A    between atoms: N_4  and  C_5 
REMARK       I    between atoms: C_11  and  N_12 
REMARK    5  A    between atoms: N_12  and  N_13 
REMARK    6  A    between atoms: C_14  and  C_15 
ROOT
HETATM    1  C   UNL     1      41.071 -15.172  -0.416  1.00  0.00     0.260 C 
HETATM    2  N   UNL     1      42.179 -16.005  -0.230  1.00  0.00    -0.246 N 
HETATM    3  O   UNL     1      40.275 -14.858   0.467  1.00  0.00    -0.269 OA
HETATM    4  H   UNL     1      42.897 -15.995  -0.951  1.00  0.00     0.192 HD
ENDROOT
BRANCH   2   5
HETATM    5  N   UNL     1      42.603 -16.476   0.988  1.00  0.00    -0.184 NA
HETATM    6  C   UNL     1      43.206 -17.623   1.001  1.00  0.00     0.152 C 
BRANCH   6   7
HETATM    7  C   UNL     1      43.632 -18.199   2.259  1.00  0.00     0.011 A 
HETATM    8  C   UNL     1      43.917 -19.579   2.520  1.00  0.00     0.004 A 
HETATM    9  C   UNL     1      44.283 -19.684   3.862  1.00  0.00     0.043 A 
HETATM   10  C   UNL     1      43.904 -20.752   1.734  1.00  0.00     0.014 A 
HETATM   11  C   UNL     1      44.632 -20.902   4.460  1.00  0.00     0.030 A 
HETATM   12  N   UNL     1      44.218 -18.420   4.400  1.00  0.00    -0.364 N 
HETATM   13  C   UNL     1      44.614 -22.047   3.658  1.00  0.00     0.002 A 
HETATM   14  C   UNL     1      44.255 -21.976   2.315  1.00  0.00     0.001 A 
HETATM   15  H   UNL     1      44.425 -18.196   5.364  1.00  0.00     0.165 HD
HETATM   16  C   UNL     1      43.836 -17.519   3.445  1.00  0.00     0.102 A 
ENDBRANCH   6   7
ENDBRANCH   2   5
BRANCH   1  17
HETATM   17  C   UNL     1      40.956 -14.697  -1.888  1.00  0.00     0.175 C 
BRANCH  17  18
HETATM   18  C   UNL     1      40.657 -15.864  -2.840  1.00  0.00     0.030 C 
HETATM   19  C   UNL     1      39.464 -15.575  -3.744  1.00  0.00     0.007 C 
ENDBRANCH  17  18
BRANCH  17  20
HETATM   20  N   UNL     1      42.222 -14.052  -2.263  1.00  0.00    -0.377 N 
HETATM   21  H   UNL     1      43.054 -14.633  -2.224  1.00  0.00     0.160 HD
BRANCH  20  22
HETATM   22  C   UNL     1      42.410 -12.695  -2.442  1.00  0.00     0.028 A 
HETATM   23  C   UNL     1      42.821 -11.922  -1.346  1.00  0.00     0.029 A 
HETATM   24  C   UNL     1      43.045 -10.548  -1.463  1.00  0.00     0.002 A 
HETATM   25  C   UNL     1      42.871  -9.919  -2.691  1.00  0.00     0.000 A 
HETATM   26  C   UNL     1      42.478 -10.667  -3.795  1.00  0.00     0.002 A 
HETATM   27  C   UNL     1      42.251 -12.044  -3.669  1.00  0.00     0.029 A 
ENDBRANCH  20  22
ENDBRANCH  17  20
ENDBRANCH   1  17
TORSDOF 6
ENDMDL
MODEL 2
REMARK VINA RESULT:      -8.2      1.996      2.781
REMARK  6 active torsions:
REMARK  status: ('A' for Active; 'I' for Inactive)
REMARK    1  A    between atoms: C_2  and  C_3 
REMARK    2  A    between atoms: C_3  and  N_4 
REMARK    3  A    between atoms: C_3  and  C_11 
REMARK    4  A    between atoms: N_4  and  C_5 
REMARK       I    between atoms: C_11  and  N_12 
REMARK    5  A    between atoms: N_12  and  N_13 
REMARK    6  A    between atoms: C_14  and  C_15 
ROOT
HETATM    1  C   UNL     1      39.753 -15.096   2.048  1.00  0.00     0.260 C 
HETATM    2  N   UNL     1      40.364 -16.271   1.600  1.00  0.00    -0.246 N 
HETATM    3  O   UNL     1      39.661 -14.759   3.227  1.00  0.00    -0.269 OA
HETATM    4  H   UNL     1      40.603 -16.326   0.612  1.00  0.00     0.192 HD
ENDROOT
BRANCH   2   5
HETATM    5  N   UNL     1      41.060 -17.141   2.403  1.00  0.00    -0.184 NA
HETATM    6  C   UNL     1      42.349 -17.007   2.439  1.00  0.00     0.152 C 
BRANCH   6   7
HETATM    7  C   UNL     1      43.146 -17.925   3.227  1.00  0.00     0.011 A 
HETATM    8  C   UNL     1      43.477 -19.279   2.895  1.00  0.00     0.004 A 
HETATM    9  C   UNL     1      44.251 -19.788   3.939  1.00  0.00     0.043 A 
HETATM   10  C   UNL     1      43.193 -20.120   1.797  1.00  0.00     0.014 A 
HETATM   11  C   UNL     1      44.753 -21.096   3.942  1.00  0.00     0.030 A 
HETATM   12  N   UNL     1      44.381 -18.787   4.872  1.00  0.00    -0.364 N 
HETATM   13  C   UNL     1      44.460 -21.906   2.841  1.00  0.00     0.002 A 
HETATM   14  C   UNL     1      43.692 -21.427   1.783  1.00  0.00     0.001 A 
HETATM   15  H   UNL     1      44.889 -18.877   5.742  1.00  0.00     0.165 HD
HETATM   16  C   UNL     1      43.730 -17.661   4.453  1.00  0.00     0.102 A 
ENDBRANCH   6   7
ENDBRANCH   2   5
BRANCH   1  17
HETATM   17  C   UNL     1      39.185 -14.264   0.868  1.00  0.00     0.175 C 
BRANCH  17  18
HETATM   18  C   UNL     1      37.650 -14.225   0.887  1.00  0.00     0.030 C 
HETATM   19  C   UNL     1      37.109 -12.827   0.605  1.00  0.00     0.007 C 
ENDBRANCH  17  18
BRANCH  17  20
HETATM   20  N   UNL     1      39.659 -14.864  -0.387  1.00  0.00    -0.377 N 
HETATM   21  H   UNL     1      39.614 -15.877  -0.449  1.00  0.00     0.160 HD
BRANCH  20  22
HETATM   22  C   UNL     1      40.355 -14.203  -1.380  1.00  0.00     0.028 A 
HETATM   23  C   UNL     1      39.693 -13.903  -2.580  1.00  0.00     0.029 A 
HETATM   24  C   UNL     1      40.334 -13.222  -3.619  1.00  0.00     0.002 A 
HETATM   25  C   UNL     1      41.656 -12.816  -3.470  1.00  0.00     0.000 A 
HETATM   26  C   UNL     1      42.328 -13.090  -2.284  1.00  0.00     0.002 A 
HETATM   27  C   UNL     1      41.680 -13.776  -1.249  1.00  0.00     0.029 A 
ENDBRANCH  20  22
ENDBRANCH  17  20
ENDBRANCH   1  17
TORSDOF 6
ENDMDL
MODEL 3
REMARK VINA RESULT:      -7.7      2.679      8.919
REMARK  6 active torsions:
REMARK  status: ('A' for Active; 'I' for Inactive)
REMARK    1  A    between atoms: C_2  and  C_3 
REMARK    2  A    between atoms: C_3  and  N_4 
REMARK    3  A    between atoms: C_3  and  C_11 
REMARK    4  A    between atoms: N_4  and  C_5 
REMARK       I    between atoms: C_11  and  N_12 
REMARK    5  A    between atoms: N_12  and  N_13 
REMARK    6  A    between atoms: C_14  and  C_15 
ROOT
HETATM    1  C   UNL     1      42.066 -17.337   5.175  1.00  0.00     0.260 C 
HETATM    2  N   UNL     1      42.381 -16.328   4.259  1.00  0.00    -0.246 N 
HETATM    3  O   UNL     1      40.927 -17.626   5.536  1.00  0.00    -0.269 OA
HETATM    4  H   UNL     1      43.313 -16.342   3.850  1.00  0.00     0.192 HD
ENDROOT
BRANCH   2   5
HETATM    5  N   UNL     1      41.455 -15.613   3.541  1.00  0.00    -0.184 NA
HETATM    6  C   UNL     1      41.112 -16.086   2.384  1.00  0.00     0.152 C 
BRANCH   6   7
HETATM    7  C   UNL     1      40.177 -15.355   1.554  1.00  0.00     0.011 A 
HETATM    8  C   UNL     1      40.466 -14.684   0.321  1.00  0.00     0.004 A 
HETATM    9  C   UNL     1      39.278 -14.107  -0.129  1.00  0.00     0.043 A 
HETATM   10  C   UNL     1      41.631 -14.518  -0.460  1.00  0.00     0.014 A 
HETATM   11  C   UNL     1      39.195 -13.370  -1.317  1.00  0.00     0.030 A 
HETATM   12  N   UNL     1      38.306 -14.408   0.796  1.00  0.00    -0.364 N 
HETATM   13  C   UNL     1      40.363 -13.224  -2.073  1.00  0.00     0.002 A 
HETATM   14  C   UNL     1      41.563 -13.789  -1.653  1.00  0.00     0.001 A 
HETATM   15  H   UNL     1      37.341 -14.111   0.731  1.00  0.00     0.165 HD
HETATM   16  C   UNL     1      38.832 -15.164   1.806  1.00  0.00     0.102 A 
ENDBRANCH   6   7
ENDBRANCH   2   5
BRANCH   1  17
HETATM   17  C   UNL     1      43.341 -18.049   5.698  1.00  0.00     0.175 C 
BRANCH  17  18
HETATM   18  C   UNL     1      44.110 -17.176   6.701  1.00  0.00     0.030 C 
HETATM   19  C   UNL     1      43.426 -17.130   8.062  1.00  0.00     0.007 C 
ENDBRANCH  17  18
BRANCH  17  20
HETATM   20  N   UNL     1      44.197 -18.364   4.545  1.00  0.00    -0.377 N 
HETATM   21  H   UNL     1      44.719 -17.590   4.144  1.00  0.00     0.160 HD
BRANCH  20  22
HETATM   22  C   UNL     1      44.182 -19.548   3.833  1.00  0.00     0.028 A 
HETATM   23  C   UNL     1      43.618 -19.553   2.548  1.00  0.00     0.029 A 
HETATM   24  C   UNL     1      43.585 -20.713   1.769  1.00  0.00     0.002 A 
HETATM   25  C   UNL     1      44.130 -21.894   2.260  1.00  0.00     0.000 A 
HETATM   26  C   UNL     1      44.707 -21.910   3.525  1.00  0.00     0.002 A 
HETATM   27  C   UNL     1      44.732 -20.745   4.302  1.00  0.00     0.029 A 
ENDBRANCH  20  22
ENDBRANCH  17  20
ENDBRANCH   1  17
TORSDOF 6
ENDMDL
MODEL 4
REMARK VINA RESULT:      -7.7      2.255      3.450
REMARK  6 active torsions:
REMARK  status: ('A' for Active; 'I' for Inactive)
REMARK    1  A    between atoms: C_2  and  C_3 
REMARK    2  A    between atoms: C_3  and  N_4 
REMARK    3  A    between atoms: C_3  and  C_11 
REMARK    4  A    between atoms: N_4  and  C_5 
REMARK       I    between atoms: C_11  and  N_12 
REMARK    5  A    between atoms: N_12  and  N_13 
REMARK    6  A    between atoms: C_14  and  C_15 
ROOT
HETATM    1  C   UNL     1      42.448 -13.880   2.087  1.00  0.00     0.260 C 
HETATM    2  N   UNL     1      42.211 -15.257   2.132  1.00  0.00    -0.246 N 
HETATM    3  O   UNL     1      43.216 -13.276   2.834  1.00  0.00    -0.269 OA
HETATM    4  H   UNL     1      41.762 -15.681   1.323  1.00  0.00     0.192 HD
ENDROOT
BRANCH   2   5
HETATM    5  N   UNL     1      42.900 -16.140   2.926  1.00  0.00    -0.184 NA
HETATM    6  C   UNL     1      42.881 -17.388   2.577  1.00  0.00     0.152 C 
BRANCH   6   7
HETATM    7  C   UNL     1      43.547 -18.377   3.400  1.00  0.00     0.011 A 
HETATM    8  C   UNL     1      43.825 -19.738   3.051  1.00  0.00     0.004 A 
HETATM    9  C   UNL     1      44.468 -20.326   4.141  1.00  0.00     0.043 A 
HETATM   10  C   UNL     1      43.594 -20.527   1.903  1.00  0.00     0.014 A 
HETATM   11  C   UNL     1      44.888 -21.662   4.143  1.00  0.00     0.030 A 
HETATM   12  N   UNL     1      44.572 -19.363   5.117  1.00  0.00    -0.364 N 
HETATM   13  C   UNL     1      44.650 -22.419   2.992  1.00  0.00     0.002 A 
HETATM   14  C   UNL     1      44.013 -21.862   1.887  1.00  0.00     0.001 A 
HETATM   15  H   UNL     1      44.992 -19.511   6.025  1.00  0.00     0.165 HD
HETATM   16  C   UNL     1      44.030 -18.186   4.681  1.00  0.00     0.102 A 
ENDBRANCH   6   7
ENDBRANCH   2   5
BRANCH   1  17
HETATM   17  C   UNL     1      41.609 -13.193   0.978  1.00  0.00     0.175 C 
BRANCH  17  18
HETATM   18  C   UNL     1      40.939 -11.907   1.486  1.00  0.00     0.030 C 
HETATM   19  C   UNL     1      41.128 -10.743   0.520  1.00  0.00     0.007 C 
ENDBRANCH  17  18
BRANCH  17  20
HETATM   20  N   UNL     1      40.588 -14.145   0.519  1.00  0.00    -0.377 N 
HETATM   21  H   UNL     1      40.206 -14.772   1.221  1.00  0.00     0.160 HD
BRANCH  20  22
HETATM   22  C   UNL     1      40.272 -14.410  -0.799  1.00  0.00     0.028 A 
HETATM   23  C   UNL     1      41.074 -15.311  -1.516  1.00  0.00     0.029 A 
HETATM   24  C   UNL     1      40.800 -15.635  -2.847  1.00  0.00     0.002 A 
HETATM   25  C   UNL     1      39.704 -15.068  -3.487  1.00  0.00     0.000 A 
HETATM   26  C   UNL     1      38.886 -14.183  -2.793  1.00  0.00     0.002 A 
HETATM   27  C   UNL     1      39.169 -13.860  -1.460  1.00  0.00     0.029 A 
ENDBRANCH  20  22
ENDBRANCH  17  20
ENDBRANCH   1  17
TORSDOF 6
ENDMDL
MODEL 5
REMARK VINA RESULT:      -7.7      3.654      5.109
REMARK  6 active torsions:
REMARK  status: ('A' for Active; 'I' for Inactive)
REMARK    1  A    between atoms: C_2  and  C_3 
REMARK    2  A    between atoms: C_3  and  N_4 
REMARK    3  A    between atoms: C_3  and  C_11 
REMARK    4  A    between atoms: N_4  and  C_5 
REMARK       I    between atoms: C_11  and  N_12 
REMARK    5  A    between atoms: N_12  and  N_13 
REMARK    6  A    between atoms: C_14  and  C_15 
ROOT
HETATM    1  C   UNL     1      43.137 -13.590   4.072  1.00  0.00     0.260 C 
HETATM    2  N   UNL     1      42.668 -14.642   4.866  1.00  0.00    -0.246 N 
HETATM    3  O   UNL     1      44.265 -13.524   3.590  1.00  0.00    -0.269 OA
HETATM    4  H   UNL     1      41.662 -14.716   4.998  1.00  0.00     0.192 HD
ENDROOT
BRANCH   2   5
HETATM    5  N   UNL     1      43.359 -15.805   5.103  1.00  0.00    -0.184 NA
HETATM    6  C   UNL     1      43.101 -16.813   4.331  1.00  0.00     0.152 C 
BRANCH   6   7
HETATM    7  C   UNL     1      43.759 -18.083   4.560  1.00  0.00     0.011 A 
HETATM    8  C   UNL     1      43.793 -19.206   3.670  1.00  0.00     0.004 A 
HETATM    9  C   UNL     1      44.527 -20.214   4.297  1.00  0.00     0.043 A 
HETATM   10  C   UNL     1      43.271 -19.457   2.382  1.00  0.00     0.014 A 
HETATM   11  C   UNL     1      44.762 -21.461   3.704  1.00  0.00     0.030 A 
HETATM   12  N   UNL     1      44.919 -19.727   5.521  1.00  0.00    -0.364 N 
HETATM   13  C   UNL     1      44.237 -21.682   2.427  1.00  0.00     0.002 A 
HETATM   14  C   UNL     1      43.502 -20.696   1.774  1.00  0.00     0.001 A 
HETATM   15  H   UNL     1      45.462 -20.247   6.198  1.00  0.00     0.165 HD
HETATM   16  C   UNL     1      44.471 -18.446   5.688  1.00  0.00     0.102 A 
ENDBRANCH   6   7
ENDBRANCH   2   5
BRANCH   1  17
HETATM   17  C   UNL     1      42.054 -12.496   3.881  1.00  0.00     0.175 C 
BRANCH  17  18
HETATM   18  C   UNL     1      41.189 -12.326   5.139  1.00  0.00     0.030 C 
HETATM   19  C   UNL     1      39.895 -11.574   4.848  1.00  0.00     0.007 C 
ENDBRANCH  17  18
BRANCH  17  20
HETATM   20  N   UNL     1      41.212 -12.877   2.738  1.00  0.00    -0.377 N 
HETATM   21  H   UNL     1      40.522 -12.194   2.438  1.00  0.00     0.160 HD
BRANCH  20  22
HETATM   22  C   UNL     1      41.124 -14.142   2.192  1.00  0.00     0.028 A 
HETATM   23  C   UNL     1      40.108 -15.000   2.639  1.00  0.00     0.029 A 
HETATM   24  C   UNL     1      39.954 -16.286   2.116  1.00  0.00     0.002 A 
HETATM   25  C   UNL     1      40.813 -16.737   1.121  1.00  0.00     0.000 A 
HETATM   26  C   UNL     1      41.819 -15.900   0.651  1.00  0.00     0.002 A 
HETATM   27  C   UNL     1      41.970 -14.614   1.183  1.00  0.00     0.029 A 
ENDBRANCH  20  22
ENDBRANCH  17  20
ENDBRANCH   1  17
TORSDOF 6
ENDMDL
MODEL 6
REMARK VINA RESULT:      -7.6      2.762      8.849
REMARK  6 active torsions:
REMARK  status: ('A' for Active; 'I' for Inactive)
REMARK    1  A    between atoms: C_2  and  C_3 
REMARK    2  A    between atoms: C_3  and  N_4 
REMARK    3  A    between atoms: C_3  and  C_11 
REMARK    4  A    between atoms: N_4  and  C_5 
REMARK       I    between atoms: C_11  and  N_12 
REMARK    5  A    between atoms: N_12  and  N_13 
REMARK    6  A    between atoms: C_14  and  C_15 
ROOT
HETATM    1  C   UNL     1      41.989 -17.042   4.440  1.00  0.00     0.260 C 
HETATM    2  N   UNL     1      42.165 -16.761   3.082  1.00  0.00    -0.246 N 
HETATM    3  O   UNL     1      41.030 -16.671   5.115  1.00  0.00    -0.269 OA
HETATM    4  H   UNL     1      42.849 -17.317   2.574  1.00  0.00     0.192 HD
ENDROOT
BRANCH   2   5
HETATM    5  N   UNL     1      41.228 -16.147   2.287  1.00  0.00    -0.184 NA
HETATM    6  C   UNL     1      41.667 -15.334   1.377  1.00  0.00     0.152 C 
BRANCH   6   7
HETATM    7  C   UNL     1      40.728 -14.616   0.540  1.00  0.00     0.011 A 
HETATM    8  C   UNL     1      40.517 -14.800  -0.866  1.00  0.00     0.004 A 
HETATM    9  C   UNL     1      39.531 -13.896  -1.262  1.00  0.00     0.043 A 
HETATM   10  C   UNL     1      41.069 -15.660  -1.840  1.00  0.00     0.014 A 
HETATM   11  C   UNL     1      39.073 -13.803  -2.582  1.00  0.00     0.030 A 
HETATM   12  N   UNL     1      39.161 -13.185  -0.144  1.00  0.00    -0.364 N 
HETATM   13  C   UNL     1      39.635 -14.668  -3.526  1.00  0.00     0.002 A 
HETATM   14  C   UNL     1      40.618 -15.584  -3.162  1.00  0.00     0.001 A 
HETATM   15  H   UNL     1      38.465 -12.451  -0.136  1.00  0.00     0.165 HD
HETATM   16  C   UNL     1      39.867 -13.614   0.945  1.00  0.00     0.102 A 
ENDBRANCH   6   7
ENDBRANCH   2   5
BRANCH   1  17
HETATM   17  C   UNL     1      43.167 -17.876   5.007  1.00  0.00     0.175 C 
BRANCH  17  18
HETATM   18  C   UNL     1      44.012 -17.065   6.001  1.00  0.00     0.030 C 
HETATM   19  C   UNL     1      45.143 -17.893   6.601  1.00  0.00     0.007 C 
ENDBRANCH  17  18
BRANCH  17  20
HETATM   20  N   UNL     1      44.001 -18.317   3.879  1.00  0.00    -0.377 N 
HETATM   21  H   UNL     1      44.382 -17.586   3.285  1.00  0.00     0.160 HD
BRANCH  20  22
HETATM   22  C   UNL     1      44.125 -19.619   3.433  1.00  0.00     0.028 A 
HETATM   23  C   UNL     1      44.659 -20.581   4.304  1.00  0.00     0.029 A 
HETATM   24  C   UNL     1      44.796 -21.917   3.920  1.00  0.00     0.002 A 
HETATM   25  C   UNL     1      44.388 -22.321   2.654  1.00  0.00     0.000 A 
HETATM   26  C   UNL     1      43.843 -21.388   1.779  1.00  0.00     0.002 A 
HETATM   27  C   UNL     1      43.712 -20.050   2.169  1.00  0.00     0.029 A 
ENDBRANCH  20  22
ENDBRANCH  17  20
ENDBRANCH   1  17
TORSDOF 6
ENDMDL
MODEL 7
REMARK VINA RESULT:      -7.6      7.790     10.568
REMARK  6 active torsions:
REMARK  status: ('A' for Active; 'I' for Inactive)
REMARK    1  A    between atoms: C_2  and  C_3 
REMARK    2  A    between atoms: C_3  and  N_4 
REMARK    3  A    between atoms: C_3  and  C_11 
REMARK    4  A    between atoms: N_4  and  C_5 
REMARK       I    between atoms: C_11  and  N_12 
REMARK    5  A    between atoms: N_12  and  N_13 
REMARK    6  A    between atoms: C_14  and  C_15 
ROOT
HETATM    1  C   UNL     1      42.935 -11.619   8.156  1.00  0.00     0.260 C 
HETATM    2  N   UNL     1      43.526 -12.729   7.542  1.00  0.00    -0.246 N 
HETATM    3  O   UNL     1      41.979 -10.993   7.702  1.00  0.00    -0.269 OA
HETATM    4  H   UNL     1      44.133 -13.311   8.115  1.00  0.00     0.192 HD
ENDROOT
BRANCH   2   5
HETATM    5  N   UNL     1      43.036 -13.348   6.419  1.00  0.00    -0.184 NA
HETATM    6  C   UNL     1      43.542 -14.502   6.113  1.00  0.00     0.152 C 
BRANCH   6   7
HETATM    7  C   UNL     1      43.105 -15.185   4.913  1.00  0.00     0.011 A 
HETATM    8  C   UNL     1      43.321 -16.562   4.581  1.00  0.00     0.004 A 
HETATM    9  C   UNL     1      42.740 -16.787   3.332  1.00  0.00     0.043 A 
HETATM   10  C   UNL     1      43.953 -17.644   5.232  1.00  0.00     0.014 A 
HETATM   11  C   UNL     1      42.763 -18.037   2.700  1.00  0.00     0.030 A 
HETATM   12  N   UNL     1      42.198 -15.594   2.917  1.00  0.00    -0.364 N 
HETATM   13  C   UNL     1      43.392 -19.091   3.369  1.00  0.00     0.002 A 
HETATM   14  C   UNL     1      43.979 -18.900   4.617  1.00  0.00     0.001 A 
HETATM   15  H   UNL     1      41.717 -15.458   2.038  1.00  0.00     0.165 HD
HETATM   16  C   UNL     1      42.403 -14.626   3.861  1.00  0.00     0.102 A 
ENDBRANCH   6   7
ENDBRANCH   2   5
BRANCH   1  17
HETATM   17  C   UNL     1      43.645 -11.260   9.487  1.00  0.00     0.175 C 
BRANCH  17  18
HETATM   18  C   UNL     1      44.997 -11.977   9.622  1.00  0.00     0.030 C 
HETATM   19  C   UNL     1      46.171 -11.009   9.527  1.00  0.00     0.007 C 
ENDBRANCH  17  18
BRANCH  17  20
HETATM   20  N   UNL     1      42.760 -11.640  10.598  1.00  0.00    -0.377 N 
HETATM   21  H   UNL     1      42.056 -12.343  10.394  1.00  0.00     0.160 HD
BRANCH  20  22
HETATM   22  C   UNL     1      42.656 -10.977  11.805  1.00  0.00     0.028 A 
HETATM   23  C   UNL     1      41.543 -11.233  12.620  1.00  0.00     0.029 A 
HETATM   24  C   UNL     1      41.386 -10.607  13.860  1.00  0.00     0.002 A 
HETATM   25  C   UNL     1      42.352  -9.717  14.315  1.00  0.00     0.000 A 
HETATM   26  C   UNL     1      43.470  -9.458  13.531  1.00  0.00     0.002 A 
HETATM   27  C   UNL     1      43.619 -10.085  12.287  1.00  0.00     0.029 A 
ENDBRANCH  20  22
ENDBRANCH  17  20
ENDBRANCH   1  17
TORSDOF 6
ENDMDL
MODEL 8
REMARK VINA RESULT:      -7.5      2.129      3.055
REMARK  6 active torsions:
REMARK  status: ('A' for Active; 'I' for Inactive)
REMARK    1  A    between atoms: C_2  and  C_3 
REMARK    2  A    between atoms: C_3  and  N_4 
REMARK    3  A    between atoms: C_3  and  C_11 
REMARK    4  A    between atoms: N_4  and  C_5 
REMARK       I    between atoms: C_11  and  N_12 
REMARK    5  A    between atoms: N_12  and  N_13 
REMARK    6  A    between atoms: C_14  and  C_15 
ROOT
HETATM    1  C   UNL     1      41.584 -15.197   0.239  1.00  0.00     0.260 C 
HETATM    2  N   UNL     1      41.630 -16.590   0.357  1.00  0.00    -0.246 N 
HETATM    3  O   UNL     1      41.780 -14.409   1.162  1.00  0.00    -0.269 OA
HETATM    4  H   UNL     1      41.701 -17.129  -0.503  1.00  0.00     0.192 HD
ENDROOT
BRANCH   2   5
HETATM    5  N   UNL     1      42.030 -17.262   1.485  1.00  0.00    -0.184 NA
HETATM    6  C   UNL     1      43.260 -17.671   1.523  1.00  0.00     0.152 C 
BRANCH   6   7
HETATM    7  C   UNL     1      43.732 -18.430   2.663  1.00  0.00     0.011 A 
HETATM    8  C   UNL     1      43.989 -19.839   2.709  1.00  0.00     0.004 A 
HETATM    9  C   UNL     1      44.418 -20.143   4.002  1.00  0.00     0.043 A 
HETATM   10  C   UNL     1      43.903 -20.886   1.767  1.00  0.00     0.014 A 
HETATM   11  C   UNL     1      44.761 -21.441   4.401  1.00  0.00     0.030 A 
HETATM   12  N   UNL     1      44.415 -18.968   4.716  1.00  0.00    -0.364 N 
HETATM   13  C   UNL     1      44.670 -22.459   3.447  1.00  0.00     0.002 A 
HETATM   14  C   UNL     1      44.248 -22.188   2.148  1.00  0.00     0.001 A 
HETATM   15  H   UNL     1      44.676 -18.889   5.690  1.00  0.00     0.165 HD
HETATM   16  C   UNL     1      44.013 -17.931   3.921  1.00  0.00     0.102 A 
ENDBRANCH   6   7
ENDBRANCH   2   5
BRANCH   1  17
HETATM   17  C   UNL     1      41.238 -14.759  -1.208  1.00  0.00     0.175 C 
BRANCH  17  18
HETATM   18  C   UNL     1      41.697 -13.320  -1.492  1.00  0.00     0.030 C 
HETATM   19  C   UNL     1      42.189 -13.148  -2.924  1.00  0.00     0.007 C 
ENDBRANCH  17  18
BRANCH  17  20
HETATM   20  N   UNL     1      39.783 -14.869  -1.386  1.00  0.00    -0.377 N 
HETATM   21  H   UNL     1      39.458 -15.609  -2.001  1.00  0.00     0.160 HD
BRANCH  20  22
HETATM   22  C   UNL     1      38.852 -13.933  -0.981  1.00  0.00     0.028 A 
HETATM   23  C   UNL     1      38.404 -13.962   0.349  1.00  0.00     0.029 A 
HETATM   24  C   UNL     1      37.475 -13.034   0.827  1.00  0.00     0.002 A 
HETATM   25  C   UNL     1      36.982 -12.047  -0.018  1.00  0.00     0.000 A 
HETATM   26  C   UNL     1      37.421 -11.990  -1.336  1.00  0.00     0.002 A 
HETATM   27  C   UNL     1      38.349 -12.926  -1.810  1.00  0.00     0.029 A 
ENDBRANCH  20  22
ENDBRANCH  17  20
ENDBRANCH   1  17
TORSDOF 6
ENDMDL
MODEL 9
REMARK VINA RESULT:      -7.5      2.077      2.931
REMARK  6 active torsions:
REMARK  status: ('A' for Active; 'I' for Inactive)
REMARK    1  A    between atoms: C_2  and  C_3 
REMARK    2  A    between atoms: C_3  and  N_4 
REMARK    3  A    between atoms: C_3  and  C_11 
REMARK    4  A    between atoms: N_4  and  C_5 
REMARK       I    between atoms: C_11  and  N_12 
REMARK    5  A    between atoms: N_12  and  N_13 
REMARK    6  A    between atoms: C_14  and  C_15 
ROOT
HETATM    1  C   UNL     1      41.226 -15.886   0.724  1.00  0.00     0.260 C 
HETATM    2  N   UNL     1      41.534 -15.906   2.089  1.00  0.00    -0.246 N 
HETATM    3  O   UNL     1      41.440 -16.810  -0.057  1.00  0.00    -0.269 OA
HETATM    4  H   UNL     1      41.093 -15.204   2.678  1.00  0.00     0.192 HD
ENDROOT
BRANCH   2   5
HETATM    5  N   UNL     1      41.993 -17.010   2.765  1.00  0.00    -0.184 NA
HETATM    6  C   UNL     1      43.243 -17.012   3.111  1.00  0.00     0.152 C 
BRANCH   6   7
HETATM    7  C   UNL     1      43.802 -18.168   3.782  1.00  0.00     0.011 A 
HETATM    8  C   UNL     1      43.924 -19.493   3.252  1.00  0.00     0.004 A 
HETATM    9  C   UNL     1      44.509 -20.286   4.240  1.00  0.00     0.043 A 
HETATM   10  C   UNL     1      43.596 -20.093   2.016  1.00  0.00     0.014 A 
HETATM   11  C   UNL     1      44.779 -21.648   4.058  1.00  0.00     0.030 A 
HETATM   12  N   UNL     1      44.728 -19.478   5.331  1.00  0.00    -0.364 N 
HETATM   13  C   UNL     1      44.447 -22.217   2.824  1.00  0.00     0.002 A 
HETATM   14  C   UNL     1      43.865 -21.452   1.817  1.00  0.00     0.001 A 
HETATM   15  H   UNL     1      45.137 -19.789   6.201  1.00  0.00     0.165 HD
HETATM   16  C   UNL     1      44.316 -18.202   5.065  1.00  0.00     0.102 A 
ENDBRANCH   6   7
ENDBRANCH   2   5
BRANCH   1  17
HETATM   17  C   UNL     1      40.587 -14.536   0.306  1.00  0.00     0.175 C 
BRANCH  17  18
HETATM   18  C   UNL     1      39.683 -13.968   1.410  1.00  0.00     0.030 C 
HETATM   19  C   UNL     1      38.305 -14.620   1.413  1.00  0.00     0.007 C 
ENDBRANCH  17  18
BRANCH  17  20
HETATM   20  N   UNL     1      39.808 -14.757  -0.921  1.00  0.00    -0.377 N 
HETATM   21  H   UNL     1      39.648 -15.724  -1.186  1.00  0.00     0.160 HD
BRANCH  20  22
HETATM   22  C   UNL     1      39.473 -13.787  -1.845  1.00  0.00     0.028 A 
HETATM   23  C   UNL     1      38.134 -13.676  -2.250  1.00  0.00     0.029 A 
HETATM   24  C   UNL     1      37.727 -12.706  -3.169  1.00  0.00     0.002 A 
HETATM   25  C   UNL     1      38.655 -11.816  -3.696  1.00  0.00     0.000 A 
HETATM   26  C   UNL     1      39.985 -11.897  -3.299  1.00  0.00     0.002 A 
HETATM   27  C   UNL     1      40.387 -12.874  -2.380  1.00  0.00     0.029 A 
ENDBRANCH  20  22
ENDBRANCH  17  20
ENDBRANCH   1  17
TORSDOF 6
ENDMDL
MODEL 10
REMARK VINA RESULT:      -7.5      1.523      2.227
REMARK  6 active torsions:
REMARK  status: ('A' for Active; 'I' for Inactive)
REMARK    1  A    between atoms: C_2  and  C_3 
REMARK    2  A    between atoms: C_3  and  N_4 
REMARK    3  A    between atoms: C_3  and  C_11 
REMARK    4  A    between atoms: N_4  and  C_5 
REMARK       I    between atoms: C_11  and  N_12 
REMARK    5  A    between atoms: N_12  and  N_13 
REMARK    6  A    between atoms: C_14  and  C_15 
ROOT
HETATM    1  C   UNL     1      41.736 -15.320   1.595  1.00  0.00     0.260 C 
HETATM    2  N   UNL     1      42.904 -15.248   2.363  1.00  0.00    -0.246 N 
HETATM    3  O   UNL     1      40.990 -16.295   1.544  1.00  0.00    -0.269 OA
HETATM    4  H   UNL     1      43.300 -14.324   2.525  1.00  0.00     0.192 HD
ENDROOT
BRANCH   2   5
HETATM    5  N   UNL     1      43.303 -16.205   3.263  1.00  0.00    -0.184 NA
HETATM    6  C   UNL     1      43.691 -17.343   2.781  1.00  0.00     0.152 C 
BRANCH   6   7
HETATM    7  C   UNL     1      44.076 -18.412   3.679  1.00  0.00     0.011 A 
HETATM    8  C   UNL     1      44.202 -19.803   3.356  1.00  0.00     0.004 A 
HETATM    9  C   UNL     1      44.584 -20.470   4.521  1.00  0.00     0.043 A 
HETATM   10  C   UNL     1      44.031 -20.558   2.175  1.00  0.00     0.014 A 
HETATM   11  C   UNL     1      44.801 -21.853   4.566  1.00  0.00     0.030 A 
HETATM   12  N   UNL     1      44.681 -19.525   5.515  1.00  0.00    -0.364 N 
HETATM   13  C   UNL     1      44.628 -22.576   3.381  1.00  0.00     0.002 A 
HETATM   14  C   UNL     1      44.249 -21.940   2.202  1.00  0.00     0.001 A 
HETATM   15  H   UNL     1      44.936 -19.725   6.473  1.00  0.00     0.165 HD
HETATM   16  C   UNL     1      44.387 -18.285   5.020  1.00  0.00     0.102 A 
ENDBRANCH   6   7
ENDBRANCH   2   5
BRANCH   1  17
HETATM   17  C   UNL     1      41.499 -14.012   0.797  1.00  0.00     0.175 C 
BRANCH  17  18
HETATM   18  C   UNL     1      40.018 -13.603   0.802  1.00  0.00     0.030 C 
HETATM   19  C   UNL     1      39.644 -12.820   2.055  1.00  0.00     0.007 C 
ENDBRANCH  17  18
BRANCH  17  20
HETATM   20  N   UNL     1      41.958 -14.226  -0.583  1.00  0.00    -0.377 N 
HETATM   21  H   UNL     1      42.387 -15.124  -0.782  1.00  0.00     0.160 HD
BRANCH  20  22
HETATM   22  C   UNL     1      42.059 -13.251  -1.556  1.00  0.00     0.028 A 
HETATM   23  C   UNL     1      42.691 -12.040  -1.233  1.00  0.00     0.029 A 
HETATM   24  C   UNL     1      42.840 -11.019  -2.176  1.00  0.00     0.002 A 
HETATM   25  C   UNL     1      42.368 -11.197  -3.471  1.00  0.00     0.000 A 
HETATM   26  C   UNL     1      41.751 -12.393  -3.819  1.00  0.00     0.002 A 
HETATM   27  C   UNL     1      41.601 -13.410  -2.867  1.00  0.00     0.029 A 
ENDBRANCH  20  22
ENDBRANCH  17  20
ENDBRANCH   1  17
TORSDOF 6
ENDMDL
