MODEL 1
REMARK VINA RESULT:      -8.2      0.000      0.000
REMARK  3 active torsions:
REMARK  status: ('A' for Active; 'I' for Inactive)
REMARK    1  A    between atoms: C_5  and  N_6 
REMARK       I    between atoms: N_6  and  C_7 
REMARK    2  A    between atoms: C_7  and  C_8 
REMARK    3  A    between atoms: C_8  and  C_9 
ROOT
HETATM    1  C   UNL     1      44.051 -15.562   6.376  1.00  0.00     0.286 C 
HETATM    2  N   UNL     1      43.129 -15.695   5.154  1.00  0.00    -0.056 N 
HETATM    3  H   UNL     1      43.731 -15.692   4.321  1.00  0.00     0.278 HD
HETATM    4  H   UNL     1      42.718 -16.654   5.137  1.00  0.00     0.278 HD
HETATM    5  C   UNL     1      42.059 -14.663   4.961  1.00  0.00     0.209 C 
HETATM    6  C   UNL     1      42.630 -13.258   5.259  1.00  0.00     0.115 C 
HETATM    7  N   UNL     1      43.282 -13.202   6.561  1.00  0.00    -0.353 N 
HETATM    8  C   UNL     1      44.047 -14.205   7.085  1.00  0.00     0.249 C 
HETATM    9  O   UNL     1      44.711 -14.003   8.097  1.00  0.00    -0.271 OA
HETATM   10  C   UNL     1      40.836 -15.010   5.809  1.00  0.00     0.035 C 
HETATM   11  C   UNL     1      39.764 -13.929   5.682  1.00  0.00     0.002 C 
HETATM   12  C   UNL     1      40.315 -12.546   6.020  1.00  0.00     0.002 C 
HETATM   13  C   UNL     1      41.531 -12.198   5.160  1.00  0.00     0.027 C 
HETATM   14  H   UNL     1      43.409 -12.302   7.022  1.00  0.00     0.163 HD
ENDROOT
BRANCH   1  15
HETATM   15  C   UNL     1      43.798 -16.687   7.386  1.00  0.00     0.146 C 
BRANCH  15  16
HETATM   16  C   UNL     1      43.469 -17.904   6.567  1.00  0.00     0.224 C 
HETATM   17  N   UNL     1      44.552 -18.484   5.955  1.00  0.00    -0.327 N 
HETATM   18  H   UNL     1      45.483 -18.233   6.277  1.00  0.00     0.169 HD
HETATM   19  O   UNL     1      42.275 -18.124   6.360  1.00  0.00    -0.273 OA
BRANCH  17  20
HETATM   20  C   UNL     1      44.522 -19.379   4.863  1.00  0.00     0.034 A 
HETATM   21  C   UNL     1      44.812 -20.740   4.963  1.00  0.00     0.030 A 
HETATM   22  C   UNL     1      44.695 -21.576   3.847  1.00  0.00     0.009 A 
HETATM   23  C   UNL     1      44.291 -21.063   2.613  1.00  0.00    -0.062 A 
HETATM   24  C   UNL     1      44.139 -21.958   1.419  1.00  0.00     0.048 C 
HETATM   25  C   UNL     1      44.007 -19.698   2.510  1.00  0.00     0.009 A 
HETATM   26  C   UNL     1      44.129 -18.862   3.623  1.00  0.00     0.030 A 
ENDBRANCH  17  20
ENDBRANCH  15  16
ENDBRANCH   1  15
TORSDOF 3
ENDMDL
MODEL 2
REMARK VINA RESULT:      -7.8      1.729      2.271
REMARK  3 active torsions:
REMARK  status: ('A' for Active; 'I' for Inactive)
REMARK    1  A    between atoms: C_5  and  N_6 
REMARK       I    between atoms: N_6  and  C_7 
REMARK    2  A    between atoms: C_7  and  C_8 
REMARK    3  A    between atoms: C_8  and  C_9 
ROOT
HETATM    1  C   UNL     1      41.956 -14.725   4.471  1.00  0.00     0.286 C 
HETATM    2  N   UNL     1      40.443 -14.468   4.549  1.00  0.00    -0.056 N 
HETATM    3  H   UNL     1      40.028 -14.854   3.691  1.00  0.00     0.278 HD
HETATM    4  H   UNL     1      40.031 -15.072   5.294  1.00  0.00     0.278 HD
HETATM    5  C   UNL     1      39.973 -13.053   4.700  1.00  0.00     0.209 C 
HETATM    6  C   UNL     1      40.794 -12.130   3.771  1.00  0.00     0.115 C 
HETATM    7  N   UNL     1      42.228 -12.304   3.962  1.00  0.00    -0.353 N 
HETATM    8  C   UNL     1      42.837 -13.506   4.183  1.00  0.00     0.249 C 
HETATM    9  O   UNL     1      44.061 -13.590   4.144  1.00  0.00    -0.271 OA
HETATM   10  C   UNL     1      40.029 -12.637   6.169  1.00  0.00     0.035 C 
HETATM   11  C   UNL     1      39.625 -11.172   6.333  1.00  0.00     0.002 C 
HETATM   12  C   UNL     1      40.465 -10.252   5.449  1.00  0.00     0.002 C 
HETATM   13  C   UNL     1      40.396 -10.666   3.979  1.00  0.00     0.027 C 
HETATM   14  H   UNL     1      42.867 -11.564   3.676  1.00  0.00     0.163 HD
ENDROOT
BRANCH   1  15
HETATM   15  C   UNL     1      42.458 -15.459   5.719  1.00  0.00     0.146 C 
BRANCH  15  16
HETATM   16  C   UNL     1      42.501 -16.914   5.347  1.00  0.00     0.224 C 
HETATM   17  N   UNL     1      43.685 -17.320   4.783  1.00  0.00    -0.327 N 
HETATM   18  H   UNL     1      44.500 -16.720   4.881  1.00  0.00     0.169 HD
HETATM   19  O   UNL     1      41.433 -17.526   5.385  1.00  0.00    -0.273 OA
BRANCH  17  20
HETATM   20  C   UNL     1      43.896 -18.487   4.016  1.00  0.00     0.034 A 
HETATM   21  C   UNL     1      44.541 -19.628   4.495  1.00  0.00     0.030 A 
HETATM   22  C   UNL     1      44.652 -20.770   3.695  1.00  0.00     0.009 A 
HETATM   23  C   UNL     1      44.124 -20.788   2.402  1.00  0.00    -0.062 A 
HETATM   24  C   UNL     1      44.217 -22.018   1.549  1.00  0.00     0.048 C 
HETATM   25  C   UNL     1      43.484 -19.643   1.919  1.00  0.00     0.009 A 
HETATM   26  C   UNL     1      43.378 -18.500   2.716  1.00  0.00     0.030 A 
ENDBRANCH  17  20
ENDBRANCH  15  16
ENDBRANCH   1  15
TORSDOF 3
ENDMDL
MODEL 3
REMARK VINA RESULT:      -7.7      5.303      6.437
REMARK  3 active torsions:
REMARK  status: ('A' for Active; 'I' for Inactive)
REMARK    1  A    between atoms: C_5  and  N_6 
REMARK       I    between atoms: N_6  and  C_7 
REMARK    2  A    between atoms: C_7  and  C_8 
REMARK    3  A    between atoms: C_8  and  C_9 
ROOT
HETATM    1  C   UNL     1      39.630 -14.207   1.223  1.00  0.00     0.286 C 
HETATM    2  N   UNL     1      41.009 -14.129   0.550  1.00  0.00    -0.056 N 
HETATM    3  H   UNL     1      41.450 -13.256   0.867  1.00  0.00     0.278 HD
HETATM    4  H   UNL     1      41.632 -14.861   0.957  1.00  0.00     0.278 HD
HETATM    5  C   UNL     1      41.068 -14.165  -0.947  1.00  0.00     0.209 C 
HETATM    6  C   UNL     1      39.950 -13.273  -1.534  1.00  0.00     0.115 C 
HETATM    7  N   UNL     1      38.643 -13.607  -0.982  1.00  0.00    -0.353 N 
HETATM    8  C   UNL     1      38.420 -13.943   0.323  1.00  0.00     0.249 C 
HETATM    9  O   UNL     1      37.271 -14.024   0.746  1.00  0.00    -0.271 OA
HETATM   10  C   UNL     1      41.009 -15.610  -1.440  1.00  0.00     0.035 C 
HETATM   11  C   UNL     1      40.992 -15.662  -2.967  1.00  0.00     0.002 C 
HETATM   12  C   UNL     1      39.860 -14.817  -3.548  1.00  0.00     0.002 C 
HETATM   13  C   UNL     1      39.931 -13.369  -3.062  1.00  0.00     0.027 C 
HETATM   14  H   UNL     1      37.801 -13.346  -1.491  1.00  0.00     0.163 HD
ENDROOT
BRANCH   1  15
HETATM   15  C   UNL     1      39.454 -15.531   1.973  1.00  0.00     0.146 C 
BRANCH  15  16
HETATM   16  C   UNL     1      40.829 -15.926   2.433  1.00  0.00     0.224 C 
HETATM   17  N   UNL     1      41.161 -17.231   2.167  1.00  0.00    -0.327 N 
HETATM   18  H   UNL     1      40.603 -17.746   1.491  1.00  0.00     0.169 HD
HETATM   19  O   UNL     1      41.416 -15.131   3.168  1.00  0.00    -0.273 OA
BRANCH  17  20
HETATM   20  C   UNL     1      42.191 -17.979   2.780  1.00  0.00     0.034 A 
HETATM   21  C   UNL     1      42.368 -18.074   4.161  1.00  0.00     0.030 A 
HETATM   22  C   UNL     1      43.372 -18.890   4.694  1.00  0.00     0.009 A 
HETATM   23  C   UNL     1      44.217 -19.619   3.855  1.00  0.00    -0.062 A 
HETATM   24  C   UNL     1      45.278 -20.516   4.421  1.00  0.00     0.048 C 
HETATM   25  C   UNL     1      44.044 -19.519   2.472  1.00  0.00     0.009 A 
HETATM   26  C   UNL     1      43.046 -18.700   1.938  1.00  0.00     0.030 A 
ENDBRANCH  17  20
ENDBRANCH  15  16
ENDBRANCH   1  15
TORSDOF 3
ENDMDL
MODEL 4
REMARK VINA RESULT:      -7.7      5.001      5.941
REMARK  3 active torsions:
REMARK  status: ('A' for Active; 'I' for Inactive)
REMARK    1  A    between atoms: C_5  and  N_6 
REMARK       I    between atoms: N_6  and  C_7 
REMARK    2  A    between atoms: C_7  and  C_8 
REMARK    3  A    between atoms: C_8  and  C_9 
ROOT
HETATM    1  C   UNL     1      41.225 -15.644   0.811  1.00  0.00     0.286 C 
HETATM    2  N   UNL     1      42.064 -15.122  -0.365  1.00  0.00    -0.056 N 
HETATM    3  H   UNL     1      42.809 -14.536   0.034  1.00  0.00     0.278 HD
HETATM    4  H   UNL     1      42.596 -15.915  -0.786  1.00  0.00     0.278 HD
HETATM    5  C   UNL     1      41.369 -14.331  -1.432  1.00  0.00     0.209 C 
HETATM    6  C   UNL     1      40.377 -13.340  -0.783  1.00  0.00     0.115 C 
HETATM    7  N   UNL     1      39.473 -14.006   0.146  1.00  0.00    -0.353 N 
HETATM    8  C   UNL     1      39.842 -15.013   0.992  1.00  0.00     0.249 C 
HETATM    9  O   UNL     1      39.071 -15.387   1.871  1.00  0.00    -0.271 OA
HETATM   10  C   UNL     1      40.711 -15.274  -2.438  1.00  0.00     0.035 C 
HETATM   11  C   UNL     1      39.934 -14.486  -3.492  1.00  0.00     0.002 C 
HETATM   12  C   UNL     1      38.921 -13.538  -2.854  1.00  0.00     0.002 C 
HETATM   13  C   UNL     1      39.587 -12.588  -1.858  1.00  0.00     0.027 C 
HETATM   14  H   UNL     1      38.588 -13.565   0.390  1.00  0.00     0.163 HD
ENDROOT
BRANCH   1  15
HETATM   15  C   UNL     1      41.108 -17.172   0.773  1.00  0.00     0.146 C 
BRANCH  15  16
HETATM   16  C   UNL     1      41.894 -17.671   1.953  1.00  0.00     0.224 C 
HETATM   17  N   UNL     1      42.918 -18.526   1.630  1.00  0.00    -0.327 N 
HETATM   18  H   UNL     1      43.230 -18.567   0.664  1.00  0.00     0.169 HD
HETATM   19  O   UNL     1      41.423 -17.441   3.068  1.00  0.00    -0.273 OA
BRANCH  17  20
HETATM   20  C   UNL     1      43.573 -19.422   2.505  1.00  0.00     0.034 A 
HETATM   21  C   UNL     1      44.000 -19.084   3.790  1.00  0.00     0.030 A 
HETATM   22  C   UNL     1      44.583 -20.046   4.621  1.00  0.00     0.009 A 
HETATM   23  C   UNL     1      44.753 -21.361   4.178  1.00  0.00    -0.062 A 
HETATM   24  C   UNL     1      45.353 -22.403   5.074  1.00  0.00     0.048 C 
HETATM   25  C   UNL     1      44.332 -21.698   2.889  1.00  0.00     0.009 A 
HETATM   26  C   UNL     1      43.755 -20.735   2.057  1.00  0.00     0.030 A 
ENDBRANCH  17  20
ENDBRANCH  15  16
ENDBRANCH   1  15
TORSDOF 3
ENDMDL
MODEL 5
REMARK VINA RESULT:      -7.7      3.871      4.458
REMARK  3 active torsions:
REMARK  status: ('A' for Active; 'I' for Inactive)
REMARK    1  A    between atoms: C_5  and  N_6 
REMARK       I    between atoms: N_6  and  C_7 
REMARK    2  A    between atoms: C_7  and  C_8 
REMARK    3  A    between atoms: C_8  and  C_9 
ROOT
HETATM    1  C   UNL     1      42.010 -14.822   1.891  1.00  0.00     0.286 C 
HETATM    2  N   UNL     1      40.973 -15.798   1.314  1.00  0.00    -0.056 N 
HETATM    3  H   UNL     1      41.473 -16.415   0.660  1.00  0.00     0.278 HD
HETATM    4  H   UNL     1      40.668 -16.457   2.063  1.00  0.00     0.278 HD
HETATM    5  C   UNL     1      39.786 -15.226   0.601  1.00  0.00     0.209 C 
HETATM    6  C   UNL     1      40.235 -14.061  -0.310  1.00  0.00     0.115 C 
HETATM    7  N   UNL     1      41.021 -13.075   0.420  1.00  0.00    -0.353 N 
HETATM    8  C   UNL     1      41.943 -13.380   1.380  1.00  0.00     0.249 C 
HETATM    9  O   UNL     1      42.694 -12.508   1.808  1.00  0.00    -0.271 OA
HETATM   10  C   UNL     1      38.711 -14.825   1.610  1.00  0.00     0.035 C 
HETATM   11  C   UNL     1      37.523 -14.171   0.906  1.00  0.00     0.002 C 
HETATM   12  C   UNL     1      37.959 -12.991   0.041  1.00  0.00     0.002 C 
HETATM   13  C   UNL     1      39.025 -13.401  -0.976  1.00  0.00     0.027 C 
HETATM   14  H   UNL     1      41.104 -12.127   0.054  1.00  0.00     0.163 HD
ENDROOT
BRANCH   1  15
HETATM   15  C   UNL     1      41.995 -14.841   3.424  1.00  0.00     0.146 C 
BRANCH  15  16
HETATM   16  C   UNL     1      42.204 -16.276   3.816  1.00  0.00     0.224 C 
HETATM   17  N   UNL     1      43.431 -16.785   3.468  1.00  0.00    -0.327 N 
HETATM   18  H   UNL     1      44.172 -16.136   3.218  1.00  0.00     0.169 HD
HETATM   19  O   UNL     1      41.211 -16.894   4.204  1.00  0.00    -0.273 OA
BRANCH  17  20
HETATM   20  C   UNL     1      43.777 -18.150   3.367  1.00  0.00     0.034 A 
HETATM   21  C   UNL     1      44.369 -18.882   4.397  1.00  0.00     0.030 A 
HETATM   22  C   UNL     1      44.622 -20.250   4.243  1.00  0.00     0.009 A 
HETATM   23  C   UNL     1      44.291 -20.905   3.054  1.00  0.00    -0.062 A 
HETATM   24  C   UNL     1      44.535 -22.376   2.893  1.00  0.00     0.048 C 
HETATM   25  C   UNL     1      43.705 -20.171   2.020  1.00  0.00     0.009 A 
HETATM   26  C   UNL     1      43.458 -18.804   2.171  1.00  0.00     0.030 A 
ENDBRANCH  17  20
ENDBRANCH  15  16
ENDBRANCH   1  15
TORSDOF 3
ENDMDL
MODEL 6
REMARK VINA RESULT:      -7.6      5.111      7.012
REMARK  3 active torsions:
REMARK  status: ('A' for Active; 'I' for Inactive)
REMARK    1  A    between atoms: C_5  and  N_6 
REMARK       I    between atoms: N_6  and  C_7 
REMARK    2  A    between atoms: C_7  and  C_8 
REMARK    3  A    between atoms: C_8  and  C_9 
ROOT
HETATM    1  C   UNL     1      42.346 -16.337   2.828  1.00  0.00     0.286 C 
HETATM    2  N   UNL     1      41.973 -17.673   3.490  1.00  0.00    -0.056 N 
HETATM    3  H   UNL     1      40.968 -17.630   3.707  1.00  0.00     0.278 HD
HETATM    4  H   UNL     1      42.021 -18.434   2.777  1.00  0.00     0.278 HD
HETATM    5  C   UNL     1      42.703 -18.073   4.735  1.00  0.00     0.209 C 
HETATM    6  C   UNL     1      42.856 -16.849   5.666  1.00  0.00     0.115 C 
HETATM    7  N   UNL     1      43.444 -15.710   4.973  1.00  0.00    -0.353 N 
HETATM    8  C   UNL     1      43.158 -15.360   3.683  1.00  0.00     0.249 C 
HETATM    9  O   UNL     1      43.549 -14.285   3.240  1.00  0.00    -0.271 OA
HETATM   10  C   UNL     1      44.035 -18.728   4.374  1.00  0.00     0.035 C 
HETATM   11  C   UNL     1      44.828 -19.075   5.634  1.00  0.00     0.002 C 
HETATM   12  C   UNL     1      45.019 -17.856   6.534  1.00  0.00     0.002 C 
HETATM   13  C   UNL     1      43.682 -17.212   6.903  1.00  0.00     0.027 C 
HETATM   14  H   UNL     1      43.894 -14.971   5.511  1.00  0.00     0.163 HD
ENDROOT
BRANCH   1  15
HETATM   15  C   UNL     1      43.038 -16.561   1.480  1.00  0.00     0.146 C 
BRANCH  15  16
HETATM   16  C   UNL     1      41.934 -16.633   0.462  1.00  0.00     0.224 C 
HETATM   17  N   UNL     1      42.000 -15.669  -0.513  1.00  0.00    -0.327 N 
HETATM   18  H   UNL     1      42.871 -15.159  -0.634  1.00  0.00     0.169 HD
HETATM   19  O   UNL     1      40.996 -17.389   0.716  1.00  0.00    -0.273 OA
BRANCH  17  20
HETATM   20  C   UNL     1      40.947 -15.255  -1.359  1.00  0.00     0.034 A 
HETATM   21  C   UNL     1      40.762 -15.727  -2.659  1.00  0.00     0.030 A 
HETATM   22  C   UNL     1      39.656 -15.319  -3.412  1.00  0.00     0.009 A 
HETATM   23  C   UNL     1      38.720 -14.429  -2.879  1.00  0.00    -0.062 A 
HETATM   24  C   UNL     1      37.519 -14.009  -3.672  1.00  0.00     0.048 C 
HETATM   25  C   UNL     1      38.909 -13.951  -1.580  1.00  0.00     0.009 A 
HETATM   26  C   UNL     1      40.017 -14.353  -0.829  1.00  0.00     0.030 A 
ENDBRANCH  17  20
ENDBRANCH  15  16
ENDBRANCH   1  15
TORSDOF 3
ENDMDL
MODEL 7
REMARK VINA RESULT:      -7.5      4.305      5.390
REMARK  3 active torsions:
REMARK  status: ('A' for Active; 'I' for Inactive)
REMARK    1  A    between atoms: C_5  and  N_6 
REMARK       I    between atoms: N_6  and  C_7 
REMARK    2  A    between atoms: C_7  and  C_8 
REMARK    3  A    between atoms: C_8  and  C_9 
ROOT
HETATM    1  C   UNL     1      41.189 -15.718   1.609  1.00  0.00     0.286 C 
HETATM    2  N   UNL     1      40.271 -14.550   1.217  1.00  0.00    -0.056 N 
HETATM    3  H   UNL     1      39.307 -14.907   1.233  1.00  0.00     0.278 HD
HETATM    4  H   UNL     1      40.266 -13.844   1.987  1.00  0.00     0.278 HD
HETATM    5  C   UNL     1      40.501 -13.882  -0.104  1.00  0.00     0.209 C 
HETATM    6  C   UNL     1      40.775 -14.951  -1.187  1.00  0.00     0.115 C 
HETATM    7  N   UNL     1      41.838 -15.865  -0.790  1.00  0.00    -0.353 N 
HETATM    8  C   UNL     1      42.013 -16.341   0.478  1.00  0.00     0.249 C 
HETATM    9  O   UNL     1      42.811 -17.249   0.687  1.00  0.00    -0.271 OA
HETATM   10  C   UNL     1      41.616 -12.846   0.019  1.00  0.00     0.035 C 
HETATM   11  C   UNL     1      41.916 -12.208  -1.337  1.00  0.00     0.002 C 
HETATM   12  C   UNL     1      42.232 -13.260  -2.398  1.00  0.00     0.002 C 
HETATM   13  C   UNL     1      41.107 -14.287  -2.526  1.00  0.00     0.027 C 
HETATM   14  H   UNL     1      42.339 -16.393  -1.502  1.00  0.00     0.163 HD
ENDROOT
BRANCH   1  15
HETATM   15  C   UNL     1      42.100 -15.338   2.781  1.00  0.00     0.146 C 
BRANCH  15  16
HETATM   16  C   UNL     1      42.249 -16.586   3.604  1.00  0.00     0.224 C 
HETATM   17  N   UNL     1      43.543 -17.022   3.742  1.00  0.00    -0.327 N 
HETATM   18  H   UNL     1      44.298 -16.379   3.517  1.00  0.00     0.169 HD
HETATM   19  O   UNL     1      41.213 -17.192   3.881  1.00  0.00    -0.273 OA
BRANCH  17  20
HETATM   20  C   UNL     1      43.959 -18.316   4.124  1.00  0.00     0.034 A 
HETATM   21  C   UNL     1      44.065 -18.741   5.449  1.00  0.00     0.030 A 
HETATM   22  C   UNL     1      44.421 -20.061   5.746  1.00  0.00     0.009 A 
HETATM   23  C   UNL     1      44.681 -20.976   4.723  1.00  0.00    -0.062 A 
HETATM   24  C   UNL     1      45.036 -22.399   5.034  1.00  0.00     0.048 C 
HETATM   25  C   UNL     1      44.581 -20.549   3.396  1.00  0.00     0.009 A 
HETATM   26  C   UNL     1      44.232 -19.229   3.099  1.00  0.00     0.030 A 
ENDBRANCH  17  20
ENDBRANCH  15  16
ENDBRANCH   1  15
TORSDOF 3
ENDMDL
MODEL 8
REMARK VINA RESULT:      -7.4      5.161      6.418
REMARK  3 active torsions:
REMARK  status: ('A' for Active; 'I' for Inactive)
REMARK    1  A    between atoms: C_5  and  N_6 
REMARK       I    between atoms: N_6  and  C_7 
REMARK    2  A    between atoms: C_7  and  C_8 
REMARK    3  A    between atoms: C_8  and  C_9 
ROOT
HETATM    1  C   UNL     1      41.402 -15.525   0.622  1.00  0.00     0.286 C 
HETATM    2  N   UNL     1      41.985 -14.938  -0.673  1.00  0.00    -0.056 N 
HETATM    3  H   UNL     1      42.559 -14.129  -0.404  1.00  0.00     0.278 HD
HETATM    4  H   UNL     1      42.691 -15.601  -1.062  1.00  0.00     0.278 HD
HETATM    5  C   UNL     1      41.031 -14.500  -1.741  1.00  0.00     0.209 C 
HETATM    6  C   UNL     1      39.843 -13.745  -1.103  1.00  0.00     0.115 C 
HETATM    7  N   UNL     1      39.223 -14.516  -0.032  1.00  0.00    -0.353 N 
HETATM    8  C   UNL     1      39.911 -15.277   0.870  1.00  0.00     0.249 C 
HETATM    9  O   UNL     1      39.334 -15.738   1.849  1.00  0.00    -0.271 OA
HETATM   10  C   UNL     1      40.602 -15.699  -2.585  1.00  0.00     0.035 C 
HETATM   11  C   UNL     1      39.570 -15.284  -3.633  1.00  0.00     0.002 C 
HETATM   12  C   UNL     1      38.374 -14.578  -2.999  1.00  0.00     0.002 C 
HETATM   13  C   UNL     1      38.808 -13.371  -2.167  1.00  0.00     0.027 C 
HETATM   14  H   UNL     1      38.267 -14.307   0.249  1.00  0.00     0.163 HD
ENDROOT
BRANCH   1  15
HETATM   15  C   UNL     1      41.717 -17.020   0.744  1.00  0.00     0.146 C 
BRANCH  15  16
HETATM   16  C   UNL     1      42.673 -17.143   1.897  1.00  0.00     0.224 C 
HETATM   17  N   UNL     1      42.436 -18.219   2.716  1.00  0.00    -0.327 N 
HETATM   18  H   UNL     1      41.835 -18.965   2.375  1.00  0.00     0.169 HD
HETATM   19  O   UNL     1      43.413 -16.181   2.107  1.00  0.00    -0.273 OA
BRANCH  17  20
HETATM   20  C   UNL     1      42.905 -18.391   4.037  1.00  0.00     0.034 A 
HETATM   21  C   UNL     1      44.104 -19.028   4.362  1.00  0.00     0.030 A 
HETATM   22  C   UNL     1      44.532 -19.099   5.691  1.00  0.00     0.009 A 
HETATM   23  C   UNL     1      43.767 -18.540   6.718  1.00  0.00    -0.062 A 
HETATM   24  C   UNL     1      44.235 -18.590   8.142  1.00  0.00     0.048 C 
HETATM   25  C   UNL     1      42.564 -17.908   6.394  1.00  0.00     0.009 A 
HETATM   26  C   UNL     1      42.132 -17.841   5.067  1.00  0.00     0.030 A 
ENDBRANCH  17  20
ENDBRANCH  15  16
ENDBRANCH   1  15
TORSDOF 3
ENDMDL
MODEL 9
REMARK VINA RESULT:      -7.4      5.529      6.288
REMARK  3 active torsions:
REMARK  status: ('A' for Active; 'I' for Inactive)
REMARK    1  A    between atoms: C_5  and  N_6 
REMARK       I    between atoms: N_6  and  C_7 
REMARK    2  A    between atoms: C_7  and  C_8 
REMARK    3  A    between atoms: C_8  and  C_9 
ROOT
HETATM    1  C   UNL     1      41.549 -14.790   0.255  1.00  0.00     0.286 C 
HETATM    2  N   UNL     1      40.991 -15.583  -0.936  1.00  0.00    -0.056 N 
HETATM    3  H   UNL     1      41.721 -16.246  -1.225  1.00  0.00     0.278 HD
HETATM    4  H   UNL     1      40.228 -16.213  -0.601  1.00  0.00     0.278 HD
HETATM    5  C   UNL     1      40.547 -14.820  -2.147  1.00  0.00     0.209 C 
HETATM    6  C   UNL     1      41.569 -13.706  -2.465  1.00  0.00     0.115 C 
HETATM    7  N   UNL     1      41.840 -12.870  -1.302  1.00  0.00    -0.353 N 
HETATM    8  C   UNL     1      41.951 -13.339  -0.024  1.00  0.00     0.249 C 
HETATM    9  O   UNL     1      42.366 -12.601   0.865  1.00  0.00    -0.271 OA
HETATM   10  C   UNL     1      39.126 -14.297  -1.945  1.00  0.00     0.035 C 
HETATM   11  C   UNL     1      38.684 -13.452  -3.139  1.00  0.00     0.002 C 
HETATM   12  C   UNL     1      39.670 -12.323  -3.428  1.00  0.00     0.002 C 
HETATM   13  C   UNL     1      41.088 -12.854  -3.642  1.00  0.00     0.027 C 
HETATM   14  H   UNL     1      42.221 -11.935  -1.433  1.00  0.00     0.163 HD
ENDROOT
BRANCH   1  15
HETATM   15  C   UNL     1      40.602 -14.855   1.458  1.00  0.00     0.146 C 
BRANCH  15  16
HETATM   16  C   UNL     1      40.876 -16.175   2.122  1.00  0.00     0.224 C 
HETATM   17  N   UNL     1      42.141 -16.295   2.642  1.00  0.00    -0.327 N 
HETATM   18  H   UNL     1      42.695 -15.452   2.770  1.00  0.00     0.169 HD
HETATM   19  O   UNL     1      40.041 -17.064   1.952  1.00  0.00    -0.273 OA
BRANCH  17  20
HETATM   20  C   UNL     1      42.800 -17.497   2.982  1.00  0.00     0.034 A 
HETATM   21  C   UNL     1      43.327 -18.388   2.046  1.00  0.00     0.030 A 
HETATM   22  C   UNL     1      44.025 -19.526   2.464  1.00  0.00     0.009 A 
HETATM   23  C   UNL     1      44.204 -19.793   3.823  1.00  0.00    -0.062 A 
HETATM   24  C   UNL     1      44.975 -20.997   4.276  1.00  0.00     0.048 C 
HETATM   25  C   UNL     1      43.672 -18.904   4.761  1.00  0.00     0.009 A 
HETATM   26  C   UNL     1      42.969 -17.771   4.344  1.00  0.00     0.030 A 
ENDBRANCH  17  20
ENDBRANCH  15  16
ENDBRANCH   1  15
TORSDOF 3
ENDMDL
MODEL 10
REMARK VINA RESULT:      -7.2      3.462      4.453
REMARK  3 active torsions:
REMARK  status: ('A' for Active; 'I' for Inactive)
REMARK    1  A    between atoms: C_5  and  N_6 
REMARK       I    between atoms: N_6  and  C_7 
REMARK    2  A    between atoms: C_7  and  C_8 
REMARK    3  A    between atoms: C_8  and  C_9 
ROOT
HETATM    1  C   UNL     1      42.224 -15.347   1.990  1.00  0.00     0.286 C 
HETATM    2  N   UNL     1      42.400 -13.873   1.594  1.00  0.00    -0.056 N 
HETATM    3  H   UNL     1      43.117 -13.478   2.217  1.00  0.00     0.278 HD
HETATM    4  H   UNL     1      42.856 -13.822   0.657  1.00  0.00     0.278 HD
HETATM    5  C   UNL     1      41.198 -12.980   1.642  1.00  0.00     0.209 C 
HETATM    6  C   UNL     1      40.384 -13.269   2.924  1.00  0.00     0.115 C 
HETATM    7  N   UNL     1      40.077 -14.686   3.064  1.00  0.00    -0.353 N 
HETATM    8  C   UNL     1      40.939 -15.697   2.747  1.00  0.00     0.249 C 
HETATM    9  O   UNL     1      40.676 -16.851   3.071  1.00  0.00    -0.271 OA
HETATM   10  C   UNL     1      40.380 -13.132   0.360  1.00  0.00     0.035 C 
HETATM   11  C   UNL     1      39.110 -12.285   0.423  1.00  0.00     0.002 C 
HETATM   12  C   UNL     1      38.282 -12.601   1.666  1.00  0.00     0.002 C 
HETATM   13  C   UNL     1      39.101 -12.434   2.947  1.00  0.00     0.027 C 
HETATM   14  H   UNL     1      39.300 -14.976   3.654  1.00  0.00     0.163 HD
ENDROOT
BRANCH   1  15
HETATM   15  C   UNL     1      42.393 -16.270   0.779  1.00  0.00     0.146 C 
BRANCH  15  16
HETATM   16  C   UNL     1      43.364 -17.334   1.209  1.00  0.00     0.224 C 
HETATM   17  N   UNL     1      42.774 -18.497   1.639  1.00  0.00    -0.327 N 
HETATM   18  H   UNL     1      41.796 -18.658   1.413  1.00  0.00     0.169 HD
HETATM   19  O   UNL     1      44.540 -16.992   1.332  1.00  0.00    -0.273 OA
BRANCH  17  20
HETATM   20  C   UNL     1      43.376 -19.503   2.426  1.00  0.00     0.034 A 
HETATM   21  C   UNL     1      43.690 -20.778   1.954  1.00  0.00     0.030 A 
HETATM   22  C   UNL     1      44.346 -21.699   2.778  1.00  0.00     0.009 A 
HETATM   23  C   UNL     1      44.694 -21.362   4.088  1.00  0.00    -0.062 A 
HETATM   24  C   UNL     1      45.420 -22.335   4.967  1.00  0.00     0.048 C 
HETATM   25  C   UNL     1      44.373 -20.087   4.563  1.00  0.00     0.009 A 
HETATM   26  C   UNL     1      43.712 -19.169   3.743  1.00  0.00     0.030 A 
ENDBRANCH  17  20
ENDBRANCH  15  16
ENDBRANCH   1  15
TORSDOF 3
ENDMDL
