MODEL 1
REMARK VINA RESULT:      -7.5      0.000      0.000
REMARK  6 active torsions:
REMARK  status: ('A' for Active; 'I' for Inactive)
REMARK    1  A    between atoms: C_3  and  N_4 
REMARK    2  A    between atoms: N_4  and  C_5 
REMARK    3  A    between atoms: C_5  and  C_6 
REMARK    4  A    between atoms: N_8  and  C_10 
REMARK    5  A    between atoms: C_10  and  C_11 
REMARK    6  A    between atoms: C_12  and  O_13 
ROOT
HETATM    1  C   UNL     1      44.088 -17.366   6.349  1.00  0.00     0.031 C 
HETATM    2  C   UNL     1      43.526 -16.783   5.053  1.00  0.00     0.241 C 
HETATM    3  N   UNL     1      42.034 -16.733   5.247  1.00  0.00    -0.067 N 
HETATM    4  H   UNL     1      41.730 -15.757   5.059  1.00  0.00     0.280 HD
HETATM    5  C   UNL     1      41.722 -17.025   6.691  1.00  0.00     0.235 C 
HETATM    6  C   UNL     1      43.067 -16.898   7.386  1.00  0.00     0.035 C 
ENDROOT
BRANCH   3   7
HETATM    7  C   UNL     1      41.228 -17.521   4.246  1.00  0.00     0.276 C 
BRANCH   7   8
HETATM    8  C   UNL     1      41.079 -16.829   2.921  1.00  0.00     0.002 A 
HETATM    9  C   UNL     1      40.434 -15.588   2.830  1.00  0.00     0.091 A 
HETATM   10  C   UNL     1      40.340 -14.913   1.611  1.00  0.00     0.044 A 
HETATM   11 BR   UNL     1      39.474 -13.235   1.501  1.00  0.00    -0.048 Br
HETATM   12  C   UNL     1      40.886 -15.476   0.461  1.00  0.00     0.022 A 
HETATM   13  C   UNL     1      41.529 -16.714   0.535  1.00  0.00     0.002 A 
HETATM   14  C   UNL     1      41.630 -17.386   1.757  1.00  0.00     0.012 A 
BRANCH   9  15
HETATM   15  O   UNL     1      39.883 -15.075   3.980  1.00  0.00    -0.359 OA
HETATM   16  H   UNL     1      40.639 -14.791   4.543  1.00  0.00     0.218 HD
ENDBRANCH   9  15
ENDBRANCH   7   8
ENDBRANCH   3   7
BRANCH   1  17
HETATM   17  C   UNL     1      44.258 -18.898   6.330  1.00  0.00     0.127 C 
BRANCH  17  18
HETATM   18  N   UNL     1      45.056 -19.294   5.174  1.00  0.00    -0.376 N 
HETATM   19  H   UNL     1      45.541 -18.503   4.740  1.00  0.00     0.161 HD
BRANCH  18  20
HETATM   20  C   UNL     1      44.669 -20.187   4.177  1.00  0.00     0.100 A 
HETATM   21  C   UNL     1      44.151 -19.670   2.977  1.00  0.00     0.048 A 
HETATM   22  C   UNL     1      43.790 -20.522   1.935  1.00  0.00     0.005 A 
HETATM   23  C   UNL     1      43.961 -21.888   2.085  1.00  0.00     0.017 A 
HETATM   24  C   UNL     1      44.500 -22.367   3.268  1.00  0.00     0.089 A 
HETATM   25  N   UNL     1      44.841 -21.518   4.254  1.00  0.00    -0.353 N 
HETATM   26  H   UNL     1      45.247 -21.920   5.090  1.00  0.00     0.166 HD
ENDBRANCH  18  20
ENDBRANCH  17  18
ENDBRANCH   1  17
TORSDOF 6
ENDMDL
MODEL 2
REMARK VINA RESULT:      -7.3      3.255      6.020
REMARK  6 active torsions:
REMARK  status: ('A' for Active; 'I' for Inactive)
REMARK    1  A    between atoms: C_3  and  N_4 
REMARK    2  A    between atoms: N_4  and  C_5 
REMARK    3  A    between atoms: C_5  and  C_6 
REMARK    4  A    between atoms: N_8  and  C_10 
REMARK    5  A    between atoms: C_10  and  C_11 
REMARK    6  A    between atoms: C_12  and  O_13 
ROOT
HETATM    1  C   UNL     1      41.039 -16.345   5.587  1.00  0.00     0.031 C 
HETATM    2  C   UNL     1      41.595 -17.668   5.061  1.00  0.00     0.241 C 
HETATM    3  N   UNL     1      43.089 -17.485   5.011  1.00  0.00    -0.067 N 
HETATM    4  H   UNL     1      43.514 -18.264   5.552  1.00  0.00     0.280 HD
HETATM    5  C   UNL     1      43.446 -16.206   5.721  1.00  0.00     0.235 C 
HETATM    6  C   UNL     1      42.178 -15.843   6.475  1.00  0.00     0.035 C 
ENDROOT
BRANCH   3   7
HETATM    7  C   UNL     1      43.714 -17.657   3.650  1.00  0.00     0.276 C 
BRANCH   7   8
HETATM    8  C   UNL     1      43.916 -19.095   3.262  1.00  0.00     0.002 A 
HETATM    9  C   UNL     1      44.459 -20.011   4.174  1.00  0.00     0.091 A 
HETATM   10  C   UNL     1      44.600 -21.361   3.840  1.00  0.00     0.044 A 
HETATM   11 BR   UNL     1      45.326 -22.591   5.080  1.00  0.00    -0.048 Br
HETATM   12  C   UNL     1      44.204 -21.810   2.583  1.00  0.00     0.022 A 
HETATM   13  C   UNL     1      43.666 -20.908   1.663  1.00  0.00     0.002 A 
HETATM   14  C   UNL     1      43.517 -19.559   2.001  1.00  0.00     0.012 A 
BRANCH   9  15
HETATM   15  O   UNL     1      44.863 -19.527   5.395  1.00  0.00    -0.359 OA
HETATM   16  H   UNL     1      45.337 -18.685   5.213  1.00  0.00     0.218 HD
ENDBRANCH   9  15
ENDBRANCH   7   8
ENDBRANCH   3   7
BRANCH   1  17
HETATM   17  C   UNL     1      40.656 -15.338   4.484  1.00  0.00     0.127 C 
BRANCH  17  18
HETATM   18  N   UNL     1      40.185 -16.054   3.302  1.00  0.00    -0.376 N 
HETATM   19  H   UNL     1      40.192 -17.071   3.427  1.00  0.00     0.161 HD
BRANCH  18  20
HETATM   20  C   UNL     1      40.513 -15.762   1.980  1.00  0.00     0.100 A 
HETATM   21  C   UNL     1      41.181 -16.739   1.223  1.00  0.00     0.048 A 
HETATM   22  C   UNL     1      41.494 -16.509  -0.115  1.00  0.00     0.005 A 
HETATM   23  C   UNL     1      41.125 -15.310  -0.702  1.00  0.00     0.017 A 
HETATM   24  C   UNL     1      40.444 -14.376   0.062  1.00  0.00     0.089 A 
HETATM   25  N   UNL     1      40.155 -14.630   1.351  1.00  0.00    -0.353 N 
HETATM   26  H   UNL     1      39.639 -13.920   1.857  1.00  0.00     0.166 HD
ENDBRANCH  18  20
ENDBRANCH  17  18
ENDBRANCH   1  17
TORSDOF 6
ENDMDL
MODEL 3
REMARK VINA RESULT:      -7.0      3.627      6.559
REMARK  6 active torsions:
REMARK  status: ('A' for Active; 'I' for Inactive)
REMARK    1  A    between atoms: C_3  and  N_4 
REMARK    2  A    between atoms: N_4  and  C_5 
REMARK    3  A    between atoms: C_5  and  C_6 
REMARK    4  A    between atoms: N_8  and  C_10 
REMARK    5  A    between atoms: C_10  and  C_11 
REMARK    6  A    between atoms: C_12  and  O_13 
ROOT
HETATM    1  C   UNL     1      40.768 -15.815   3.464  1.00  0.00     0.031 C 
HETATM    2  C   UNL     1      41.321 -17.234   3.332  1.00  0.00     0.241 C 
HETATM    3  N   UNL     1      42.659 -17.211   4.021  1.00  0.00    -0.067 N 
HETATM    4  H   UNL     1      42.655 -17.971   4.730  1.00  0.00     0.280 HD
HETATM    5  C   UNL     1      42.798 -15.911   4.768  1.00  0.00     0.235 C 
HETATM    6  C   UNL     1      41.388 -15.346   4.781  1.00  0.00     0.035 C 
ENDROOT
BRANCH   3   7
HETATM    7  C   UNL     1      43.837 -17.581   3.157  1.00  0.00     0.276 C 
BRANCH   7   8
HETATM    8  C   UNL     1      43.989 -19.063   2.956  1.00  0.00     0.002 A 
HETATM    9  C   UNL     1      44.452 -19.881   3.997  1.00  0.00     0.091 A 
HETATM   10  C   UNL     1      44.544 -21.266   3.836  1.00  0.00     0.044 A 
HETATM   11 BR   UNL     1      45.163 -22.362   5.248  1.00  0.00    -0.048 Br
HETATM   12  C   UNL     1      44.180 -21.850   2.626  1.00  0.00     0.022 A 
HETATM   13  C   UNL     1      43.721 -21.048   1.580  1.00  0.00     0.002 A 
HETATM   14  C   UNL     1      43.621 -19.663   1.743  1.00  0.00     0.012 A 
BRANCH   9  15
HETATM   15  O   UNL     1      44.827 -19.267   5.167  1.00  0.00    -0.359 OA
HETATM   16  H   UNL     1      45.332 -18.463   4.905  1.00  0.00     0.218 HD
ENDBRANCH   9  15
ENDBRANCH   7   8
ENDBRANCH   3   7
BRANCH   1  17
HETATM   17  C   UNL     1      41.115 -14.890   2.280  1.00  0.00     0.127 C 
BRANCH  17  18
HETATM   18  N   UNL     1      41.430 -15.691   1.101  1.00  0.00    -0.376 N 
HETATM   19  H   UNL     1      42.290 -16.235   1.212  1.00  0.00     0.161 HD
BRANCH  18  20
HETATM   20  C   UNL     1      41.328 -15.275  -0.225  1.00  0.00     0.100 A 
HETATM   21  C   UNL     1      41.783 -13.988  -0.561  1.00  0.00     0.048 A 
HETATM   22  C   UNL     1      41.740 -13.544  -1.881  1.00  0.00     0.005 A 
HETATM   23  C   UNL     1      41.257 -14.389  -2.867  1.00  0.00     0.017 A 
HETATM   24  C   UNL     1      40.841 -15.661  -2.509  1.00  0.00     0.089 A 
HETATM   25  N   UNL     1      40.898 -16.061  -1.226  1.00  0.00    -0.353 N 
HETATM   26  H   UNL     1      40.599 -17.007  -1.024  1.00  0.00     0.166 HD
ENDBRANCH  18  20
ENDBRANCH  17  18
ENDBRANCH   1  17
TORSDOF 6
ENDMDL
MODEL 4
REMARK VINA RESULT:      -6.9      4.088      7.479
REMARK  6 active torsions:
REMARK  status: ('A' for Active; 'I' for Inactive)
REMARK    1  A    between atoms: C_3  and  N_4 
REMARK    2  A    between atoms: N_4  and  C_5 
REMARK    3  A    between atoms: C_5  and  C_6 
REMARK    4  A    between atoms: N_8  and  C_10 
REMARK    5  A    between atoms: C_10  and  C_11 
REMARK    6  A    between atoms: C_12  and  O_13 
ROOT
HETATM    1  C   UNL     1      40.838 -16.275   0.681  1.00  0.00     0.031 C 
HETATM    2  C   UNL     1      41.752 -17.399   1.168  1.00  0.00     0.241 C 
HETATM    3  N   UNL     1      41.930 -17.164   2.644  1.00  0.00    -0.067 N 
HETATM    4  H   UNL     1      41.665 -18.043   3.132  1.00  0.00     0.280 HD
HETATM    5  C   UNL     1      40.959 -16.101   3.087  1.00  0.00     0.235 C 
HETATM    6  C   UNL     1      39.991 -15.985   1.921  1.00  0.00     0.035 C 
ENDROOT
BRANCH   3   7
HETATM    7  C   UNL     1      43.353 -16.959   3.098  1.00  0.00     0.276 C 
BRANCH   7   8
HETATM    8  C   UNL     1      43.723 -17.785   4.297  1.00  0.00     0.002 A 
HETATM    9  C   UNL     1      44.023 -19.148   4.162  1.00  0.00     0.091 A 
HETATM   10  C   UNL     1      44.421 -19.910   5.263  1.00  0.00     0.044 A 
HETATM   11 BR   UNL     1      44.832 -21.746   5.068  1.00  0.00    -0.048 Br
HETATM   12  C   UNL     1      44.517 -19.317   6.519  1.00  0.00     0.022 A 
HETATM   13  C   UNL     1      44.216 -17.962   6.671  1.00  0.00     0.002 A 
HETATM   14  C   UNL     1      43.826 -17.198   5.567  1.00  0.00     0.012 A 
BRANCH   9  15
HETATM   15  O   UNL     1      43.893 -19.704   2.912  1.00  0.00    -0.359 OA
HETATM   16  H   UNL     1      44.234 -19.034   2.277  1.00  0.00     0.218 HD
ENDBRANCH   9  15
ENDBRANCH   7   8
ENDBRANCH   3   7
BRANCH   1  17
HETATM   17  C   UNL     1      41.588 -15.030   0.167  1.00  0.00     0.127 C 
BRANCH  17  18
HETATM   18  N   UNL     1      41.553 -14.998  -1.291  1.00  0.00    -0.376 N 
HETATM   19  H   UNL     1      42.204 -14.313  -1.687  1.00  0.00     0.161 HD
BRANCH  18  20
HETATM   20  C   UNL     1      40.409 -15.042  -2.086  1.00  0.00     0.100 A 
HETATM   21  C   UNL     1      40.385 -15.925  -3.179  1.00  0.00     0.048 A 
HETATM   22  C   UNL     1      39.248 -16.035  -3.977  1.00  0.00     0.005 A 
HETATM   23  C   UNL     1      38.131 -15.275  -3.676  1.00  0.00     0.017 A 
HETATM   24  C   UNL     1      38.174 -14.433  -2.576  1.00  0.00     0.089 A 
HETATM   25  N   UNL     1      39.286 -14.352  -1.824  1.00  0.00    -0.353 N 
HETATM   26  H   UNL     1      39.257 -13.735  -1.021  1.00  0.00     0.166 HD
ENDBRANCH  18  20
ENDBRANCH  17  18
ENDBRANCH   1  17
TORSDOF 6
ENDMDL
MODEL 5
REMARK VINA RESULT:      -6.9      1.804      2.302
REMARK  6 active torsions:
REMARK  status: ('A' for Active; 'I' for Inactive)
REMARK    1  A    between atoms: C_3  and  N_4 
REMARK    2  A    between atoms: N_4  and  C_5 
REMARK    3  A    between atoms: C_5  and  C_6 
REMARK    4  A    between atoms: N_8  and  C_10 
REMARK    5  A    between atoms: C_10  and  C_11 
REMARK    6  A    between atoms: C_12  and  O_13 
ROOT
HETATM    1  C   UNL     1      43.349 -16.424   5.202  1.00  0.00     0.031 C 
HETATM    2  C   UNL     1      43.157 -15.965   3.757  1.00  0.00     0.241 C 
HETATM    3  N   UNL     1      41.703 -15.591   3.643  1.00  0.00    -0.067 N 
HETATM    4  H   UNL     1      41.661 -14.619   3.277  1.00  0.00     0.280 HD
HETATM    5  C   UNL     1      41.096 -15.572   5.021  1.00  0.00     0.235 C 
HETATM    6  C   UNL     1      42.300 -15.598   5.948  1.00  0.00     0.035 C 
ENDROOT
BRANCH   3   7
HETATM    7  C   UNL     1      40.920 -16.359   2.609  1.00  0.00     0.276 C 
BRANCH   7   8
HETATM    8  C   UNL     1      40.212 -15.478   1.619  1.00  0.00     0.002 A 
HETATM    9  C   UNL     1      40.830 -15.119   0.412  1.00  0.00     0.091 A 
HETATM   10  C   UNL     1      40.158 -14.346  -0.538  1.00  0.00     0.044 A 
HETATM   11 BR   UNL     1      40.997 -13.874  -2.166  1.00  0.00    -0.048 Br
HETATM   12  C   UNL     1      38.859 -13.914  -0.288  1.00  0.00     0.022 A 
HETATM   13  C   UNL     1      38.232 -14.259   0.911  1.00  0.00     0.002 A 
HETATM   14  C   UNL     1      38.901 -15.041   1.857  1.00  0.00     0.012 A 
BRANCH   9  15
HETATM   15  O   UNL     1      42.123 -15.541   0.212  1.00  0.00    -0.359 OA
HETATM   16  H   UNL     1      42.488 -15.737   1.104  1.00  0.00     0.218 HD
ENDBRANCH   9  15
ENDBRANCH   7   8
ENDBRANCH   3   7
BRANCH   1  17
HETATM   17  C   UNL     1      43.171 -17.941   5.411  1.00  0.00     0.127 C 
BRANCH  17  18
HETATM   18  N   UNL     1      44.294 -18.658   4.815  1.00  0.00    -0.376 N 
HETATM   19  H   UNL     1      45.026 -18.029   4.471  1.00  0.00     0.161 HD
BRANCH  18  20
HETATM   20  C   UNL     1      44.207 -19.755   3.961  1.00  0.00     0.100 A 
HETATM   21  C   UNL     1      43.670 -19.565   2.676  1.00  0.00     0.048 A 
HETATM   22  C   UNL     1      43.601 -20.623   1.772  1.00  0.00     0.005 A 
HETATM   23  C   UNL     1      44.082 -21.867   2.145  1.00  0.00     0.017 A 
HETATM   24  C   UNL     1      44.631 -22.018   3.408  1.00  0.00     0.089 A 
HETATM   25  N   UNL     1      44.685 -20.976   4.256  1.00  0.00    -0.353 N 
HETATM   26  H   UNL     1      45.113 -21.138   5.160  1.00  0.00     0.166 HD
ENDBRANCH  18  20
ENDBRANCH  17  18
ENDBRANCH   1  17
TORSDOF 6
ENDMDL
MODEL 6
REMARK VINA RESULT:      -6.8      2.378      4.224
REMARK  6 active torsions:
REMARK  status: ('A' for Active; 'I' for Inactive)
REMARK    1  A    between atoms: C_3  and  N_4 
REMARK    2  A    between atoms: N_4  and  C_5 
REMARK    3  A    between atoms: C_5  and  C_6 
REMARK    4  A    between atoms: N_8  and  C_10 
REMARK    5  A    between atoms: C_10  and  C_11 
REMARK    6  A    between atoms: C_12  and  O_13 
ROOT
HETATM    1  C   UNL     1      41.486 -17.246   0.987  1.00  0.00     0.031 C 
HETATM    2  C   UNL     1      40.199 -17.008   1.776  1.00  0.00     0.241 C 
HETATM    3  N   UNL     1      39.864 -15.555   1.572  1.00  0.00    -0.067 N 
HETATM    4  H   UNL     1      38.889 -15.509   1.214  1.00  0.00     0.280 HD
HETATM    5  C   UNL     1      40.758 -14.996   0.497  1.00  0.00     0.235 C 
HETATM    6  C   UNL     1      41.363 -16.231  -0.150  1.00  0.00     0.035 C 
ENDROOT
BRANCH   3   7
HETATM    7  C   UNL     1      39.784 -14.729   2.831  1.00  0.00     0.276 C 
BRANCH   7   8
HETATM    8  C   UNL     1      41.099 -14.605   3.548  1.00  0.00     0.002 A 
HETATM    9  C   UNL     1      41.363 -15.368   4.694  1.00  0.00     0.091 A 
HETATM   10  C   UNL     1      42.603 -15.298   5.335  1.00  0.00     0.044 A 
HETATM   11 BR   UNL     1      42.952 -16.338   6.876  1.00  0.00    -0.048 Br
HETATM   12  C   UNL     1      43.594 -14.456   4.839  1.00  0.00     0.022 A 
HETATM   13  C   UNL     1      43.344 -13.687   3.701  1.00  0.00     0.002 A 
HETATM   14  C   UNL     1      42.107 -13.763   3.055  1.00  0.00     0.012 A 
BRANCH   9  15
HETATM   15  O   UNL     1      40.351 -16.167   5.170  1.00  0.00    -0.359 OA
HETATM   16  H   UNL     1      39.515 -15.671   5.018  1.00  0.00     0.218 HD
ENDBRANCH   9  15
ENDBRANCH   7   8
ENDBRANCH   3   7
BRANCH   1  17
HETATM   17  C   UNL     1      42.775 -17.062   1.813  1.00  0.00     0.127 C 
BRANCH  17  18
HETATM   18  N   UNL     1      42.776 -17.988   2.941  1.00  0.00    -0.376 N 
HETATM   19  H   UNL     1      42.951 -17.521   3.836  1.00  0.00     0.161 HD
BRANCH  18  20
HETATM   20  C   UNL     1      43.372 -19.248   2.968  1.00  0.00     0.100 A 
HETATM   21  C   UNL     1      43.161 -20.113   1.881  1.00  0.00     0.048 A 
HETATM   22  C   UNL     1      43.769 -21.366   1.843  1.00  0.00     0.005 A 
HETATM   23  C   UNL     1      44.599 -21.750   2.883  1.00  0.00     0.017 A 
HETATM   24  C   UNL     1      44.810 -20.864   3.929  1.00  0.00     0.089 A 
HETATM   25  N   UNL     1      44.210 -19.661   3.933  1.00  0.00    -0.353 N 
HETATM   26  H   UNL     1      44.414 -19.047   4.712  1.00  0.00     0.166 HD
ENDBRANCH  18  20
ENDBRANCH  17  18
ENDBRANCH   1  17
TORSDOF 6
ENDMDL
MODEL 7
REMARK VINA RESULT:      -6.8      3.389      6.103
REMARK  6 active torsions:
REMARK  status: ('A' for Active; 'I' for Inactive)
REMARK    1  A    between atoms: C_3  and  N_4 
REMARK    2  A    between atoms: N_4  and  C_5 
REMARK    3  A    between atoms: C_5  and  C_6 
REMARK    4  A    between atoms: N_8  and  C_10 
REMARK    5  A    between atoms: C_10  and  C_11 
REMARK    6  A    between atoms: C_12  and  O_13 
ROOT
HETATM    1  C   UNL     1      40.980 -15.066   2.599  1.00  0.00     0.031 C 
HETATM    2  C   UNL     1      42.479 -15.338   2.477  1.00  0.00     0.241 C 
HETATM    3  N   UNL     1      42.609 -16.833   2.357  1.00  0.00    -0.067 N 
HETATM    4  H   UNL     1      43.159 -17.027   1.497  1.00  0.00     0.280 HD
HETATM    5  C   UNL     1      41.240 -17.424   2.150  1.00  0.00     0.235 C 
HETATM    6  C   UNL     1      40.373 -16.224   1.806  1.00  0.00     0.035 C 
ENDROOT
BRANCH   3   7
HETATM    7  C   UNL     1      43.437 -17.496   3.428  1.00  0.00     0.276 C 
BRANCH   7   8
HETATM    8  C   UNL     1      43.774 -18.928   3.121  1.00  0.00     0.002 A 
HETATM    9  C   UNL     1      44.252 -19.780   4.127  1.00  0.00     0.091 A 
HETATM   10  C   UNL     1      44.515 -21.127   3.863  1.00  0.00     0.044 A 
HETATM   11 BR   UNL     1      45.153 -22.271   5.228  1.00  0.00    -0.048 Br
HETATM   12  C   UNL     1      44.310 -21.637   2.584  1.00  0.00     0.022 A 
HETATM   13  C   UNL     1      43.838 -20.800   1.572  1.00  0.00     0.002 A 
HETATM   14  C   UNL     1      43.566 -19.454   1.838  1.00  0.00     0.012 A 
BRANCH   9  15
HETATM   15  O   UNL     1      44.468 -19.236   5.370  1.00  0.00    -0.359 OA
HETATM   16  H   UNL     1      45.368 -19.526   5.643  1.00  0.00     0.218 HD
ENDBRANCH   9  15
ENDBRANCH   7   8
ENDBRANCH   3   7
BRANCH   1  17
HETATM   17  C   UNL     1      40.466 -15.006   4.051  1.00  0.00     0.127 C 
BRANCH  17  18
HETATM   18  N   UNL     1      41.519 -14.507   4.929  1.00  0.00    -0.376 N 
HETATM   19  H   UNL     1      42.205 -13.929   4.435  1.00  0.00     0.161 HD
BRANCH  18  20
HETATM   20  C   UNL     1      42.176 -15.235   5.919  1.00  0.00     0.100 A 
HETATM   21  C   UNL     1      41.620 -16.458   6.334  1.00  0.00     0.048 A 
HETATM   22  C   UNL     1      42.262 -17.241   7.290  1.00  0.00     0.005 A 
HETATM   23  C   UNL     1      43.466 -16.812   7.823  1.00  0.00     0.017 A 
HETATM   24  C   UNL     1      44.004 -15.615   7.375  1.00  0.00     0.089 A 
HETATM   25  N   UNL     1      43.360 -14.884   6.448  1.00  0.00    -0.353 N 
HETATM   26  H   UNL     1      43.807 -14.028   6.144  1.00  0.00     0.166 HD
ENDBRANCH  18  20
ENDBRANCH  17  18
ENDBRANCH   1  17
TORSDOF 6
ENDMDL
MODEL 8
REMARK VINA RESULT:      -6.7      3.565      6.756
REMARK  6 active torsions:
REMARK  status: ('A' for Active; 'I' for Inactive)
REMARK    1  A    between atoms: C_3  and  N_4 
REMARK    2  A    between atoms: N_4  and  C_5 
REMARK    3  A    between atoms: C_5  and  C_6 
REMARK    4  A    between atoms: N_8  and  C_10 
REMARK    5  A    between atoms: C_10  and  C_11 
REMARK    6  A    between atoms: C_12  and  O_13 
ROOT
HETATM    1  C   UNL     1      39.996 -15.326   2.877  1.00  0.00     0.031 C 
HETATM    2  C   UNL     1      40.705 -16.672   3.024  1.00  0.00     0.241 C 
HETATM    3  N   UNL     1      41.891 -16.408   3.912  1.00  0.00    -0.067 N 
HETATM    4  H   UNL     1      41.840 -17.078   4.705  1.00  0.00     0.280 HD
HETATM    5  C   UNL     1      41.763 -15.024   4.494  1.00  0.00     0.235 C 
HETATM    6  C   UNL     1      40.323 -14.639   4.204  1.00  0.00     0.035 C 
ENDROOT
BRANCH   3   7
HETATM    7  C   UNL     1      43.234 -16.725   3.306  1.00  0.00     0.276 C 
BRANCH   7   8
HETATM    8  C   UNL     1      43.760 -18.078   3.695  1.00  0.00     0.002 A 
HETATM    9  C   UNL     1      43.754 -19.138   2.777  1.00  0.00     0.091 A 
HETATM   10  C   UNL     1      44.292 -20.383   3.112  1.00  0.00     0.044 A 
HETATM   11 BR   UNL     1      44.285 -21.804   1.864  1.00  0.00    -0.048 Br
HETATM   12  C   UNL     1      44.838 -20.586   4.376  1.00  0.00     0.022 A 
HETATM   13  C   UNL     1      44.847 -19.541   5.303  1.00  0.00     0.002 A 
HETATM   14  C   UNL     1      44.317 -18.293   4.964  1.00  0.00     0.012 A 
BRANCH   9  15
HETATM   15  O   UNL     1      43.183 -18.909   1.548  1.00  0.00    -0.359 OA
HETATM   16  H   UNL     1      42.760 -18.022   1.604  1.00  0.00     0.218 HD
ENDBRANCH   9  15
ENDBRANCH   7   8
ENDBRANCH   3   7
BRANCH   1  17
HETATM   17  C   UNL     1      40.449 -14.504   1.654  1.00  0.00     0.127 C 
BRANCH  17  18
HETATM   18  N   UNL     1      40.734 -15.397   0.535  1.00  0.00    -0.376 N 
HETATM   19  H   UNL     1      41.424 -16.117   0.770  1.00  0.00     0.161 HD
BRANCH  18  20
HETATM   20  C   UNL     1      40.915 -15.017  -0.793  1.00  0.00     0.100 A 
HETATM   21  C   UNL     1      41.661 -13.857  -1.064  1.00  0.00     0.048 A 
HETATM   22  C   UNL     1      41.904 -13.460  -2.377  1.00  0.00     0.005 A 
HETATM   23  C   UNL     1      41.416 -14.229  -3.420  1.00  0.00     0.017 A 
HETATM   24  C   UNL     1      40.707 -15.382  -3.123  1.00  0.00     0.089 A 
HETATM   25  N   UNL     1      40.493 -15.739  -1.845  1.00  0.00    -0.353 N 
HETATM   26  H   UNL     1      39.985 -16.601  -1.685  1.00  0.00     0.166 HD
ENDBRANCH  18  20
ENDBRANCH  17  18
ENDBRANCH   1  17
TORSDOF 6
ENDMDL
MODEL 9
REMARK VINA RESULT:      -6.5      2.551      3.735
REMARK  6 active torsions:
REMARK  status: ('A' for Active; 'I' for Inactive)
REMARK    1  A    between atoms: C_3  and  N_4 
REMARK    2  A    between atoms: N_4  and  C_5 
REMARK    3  A    between atoms: C_5  and  C_6 
REMARK    4  A    between atoms: N_8  and  C_10 
REMARK    5  A    between atoms: C_10  and  C_11 
REMARK    6  A    between atoms: C_12  and  O_13 
ROOT
HETATM    1  C   UNL     1      41.996 -15.849   3.448  1.00  0.00     0.031 C 
HETATM    2  C   UNL     1      41.764 -14.666   2.509  1.00  0.00     0.241 C 
HETATM    3  N   UNL     1      41.036 -15.232   1.319  1.00  0.00    -0.067 N 
HETATM    4  H   UNL     1      40.169 -14.673   1.191  1.00  0.00     0.280 HD
HETATM    5  C   UNL     1      40.611 -16.642   1.636  1.00  0.00     0.235 C 
HETATM    6  C   UNL     1      40.799 -16.749   3.140  1.00  0.00     0.035 C 
ENDROOT
BRANCH   3   7
HETATM    7  C   UNL     1      41.732 -15.057  -0.006  1.00  0.00     0.276 C 
BRANCH   7   8
HETATM    8  C   UNL     1      40.786 -14.947  -1.168  1.00  0.00     0.002 A 
HETATM    9  C   UNL     1      39.792 -13.957  -1.190  1.00  0.00     0.091 A 
HETATM   10  C   UNL     1      38.944 -13.813  -2.291  1.00  0.00     0.044 A 
HETATM   11 BR   UNL     1      37.612 -12.471  -2.314  1.00  0.00    -0.048 Br
HETATM   12  C   UNL     1      39.076 -14.665  -3.385  1.00  0.00     0.022 A 
HETATM   13  C   UNL     1      40.058 -15.657  -3.376  1.00  0.00     0.002 A 
HETATM   14  C   UNL     1      40.912 -15.796  -2.277  1.00  0.00     0.012 A 
BRANCH   9  15
HETATM   15  O   UNL     1      39.675 -13.152  -0.082  1.00  0.00    -0.359 OA
HETATM   16  H   UNL     1      38.817 -13.388   0.337  1.00  0.00     0.218 HD
ENDBRANCH   9  15
ENDBRANCH   7   8
ENDBRANCH   3   7
BRANCH   1  17
HETATM   17  C   UNL     1      43.346 -16.563   3.241  1.00  0.00     0.127 C 
BRANCH  17  18
HETATM   18  N   UNL     1      43.401 -17.767   4.064  1.00  0.00    -0.376 N 
HETATM   19  H   UNL     1      43.853 -17.607   4.969  1.00  0.00     0.161 HD
BRANCH  18  20
HETATM   20  C   UNL     1      43.721 -19.050   3.622  1.00  0.00     0.100 A 
HETATM   21  C   UNL     1      43.291 -19.446   2.344  1.00  0.00     0.048 A 
HETATM   22  C   UNL     1      43.621 -20.703   1.842  1.00  0.00     0.005 A 
HETATM   23  C   UNL     1      44.394 -21.558   2.610  1.00  0.00     0.017 A 
HETATM   24  C   UNL     1      44.827 -21.130   3.855  1.00  0.00     0.089 A 
HETATM   25  N   UNL     1      44.492 -19.909   4.309  1.00  0.00    -0.353 N 
HETATM   26  H   UNL     1      44.850 -19.640   5.217  1.00  0.00     0.166 HD
ENDBRANCH  18  20
ENDBRANCH  17  18
ENDBRANCH   1  17
TORSDOF 6
ENDMDL
MODEL 10
REMARK VINA RESULT:      -6.4      4.503      7.870
REMARK  6 active torsions:
REMARK  status: ('A' for Active; 'I' for Inactive)
REMARK    1  A    between atoms: C_3  and  N_4 
REMARK    2  A    between atoms: N_4  and  C_5 
REMARK    3  A    between atoms: C_5  and  C_6 
REMARK    4  A    between atoms: N_8  and  C_10 
REMARK    5  A    between atoms: C_10  and  C_11 
REMARK    6  A    between atoms: C_12  and  O_13 
ROOT
HETATM    1  C   UNL     1      42.073 -13.873   5.500  1.00  0.00     0.031 C 
HETATM    2  C   UNL     1      42.628 -15.280   5.718  1.00  0.00     0.241 C 
HETATM    3  N   UNL     1      43.111 -15.736   4.368  1.00  0.00    -0.067 N 
HETATM    4  H   UNL     1      44.103 -16.026   4.476  1.00  0.00     0.280 HD
HETATM    5  C   UNL     1      43.094 -14.563   3.424  1.00  0.00     0.235 C 
HETATM    6  C   UNL     1      42.927 -13.362   4.339  1.00  0.00     0.035 C 
ENDROOT
BRANCH   3   7
HETATM    7  C   UNL     1      42.463 -16.991   3.841  1.00  0.00     0.276 C 
BRANCH   7   8
HETATM    8  C   UNL     1      43.321 -18.215   3.992  1.00  0.00     0.002 A 
HETATM    9  C   UNL     1      43.336 -19.204   2.998  1.00  0.00     0.091 A 
HETATM   10  C   UNL     1      44.172 -20.319   3.105  1.00  0.00     0.044 A 
HETATM   11 BR   UNL     1      44.191 -21.644   1.754  1.00  0.00    -0.048 Br
HETATM   12  C   UNL     1      44.999 -20.462   4.215  1.00  0.00     0.022 A 
HETATM   13  C   UNL     1      44.992 -19.488   5.215  1.00  0.00     0.002 A 
HETATM   14  C   UNL     1      44.162 -18.368   5.103  1.00  0.00     0.012 A 
BRANCH   9  15
HETATM   15  O   UNL     1      42.487 -19.042   1.930  1.00  0.00    -0.359 OA
HETATM   16  H   UNL     1      42.975 -19.368   1.140  1.00  0.00     0.218 HD
ENDBRANCH   9  15
ENDBRANCH   7   8
ENDBRANCH   3   7
BRANCH   1  17
HETATM   17  C   UNL     1      40.563 -13.831   5.191  1.00  0.00     0.127 C 
BRANCH  17  18
HETATM   18  N   UNL     1      39.814 -13.563   6.415  1.00  0.00    -0.376 N 
HETATM   19  H   UNL     1      38.927 -14.073   6.455  1.00  0.00     0.161 HD
BRANCH  18  20
HETATM   20  C   UNL     1      39.644 -12.318   7.017  1.00  0.00     0.100 A 
HETATM   21  C   UNL     1      39.727 -11.167   6.214  1.00  0.00     0.048 A 
HETATM   22  C   UNL     1      39.522  -9.903   6.763  1.00  0.00     0.005 A 
HETATM   23  C   UNL     1      39.219  -9.788   8.109  1.00  0.00     0.017 A 
HETATM   24  C   UNL     1      39.116 -10.942   8.870  1.00  0.00     0.089 A 
HETATM   25  N   UNL     1      39.317 -12.148   8.309  1.00  0.00    -0.353 N 
HETATM   26  H   UNL     1      39.212 -12.958   8.907  1.00  0.00     0.166 HD
ENDBRANCH  18  20
ENDBRANCH  17  18
ENDBRANCH   1  17
TORSDOF 6
ENDMDL
