MODEL 1
REMARK VINA RESULT:      -7.7      0.000      0.000
REMARK  8 active torsions:
REMARK  status: ('A' for Active; 'I' for Inactive)
REMARK    1  A    between atoms: C_7  and  N_8 
REMARK    2  A    between atoms: N_8  and  C_9 
REMARK    3  A    between atoms: C_9  and  C_10 
REMARK    4  A    between atoms: C_18  and  N_19 
REMARK    5  A    between atoms: N_19  and  C_20 
REMARK    6  A    between atoms: C_20  and  C_21 
REMARK    7  A    between atoms: C_21  and  C_22 
REMARK    8  A    between atoms: C_22  and  O_23 
ROOT
HETATM    1  C   UNL     1      39.016 -13.620  -0.522  1.00  0.00     0.001 A 
HETATM    2  C   UNL     1      39.273 -14.206   0.720  1.00  0.00     0.017 A 
HETATM    3  C   UNL     1      40.304 -15.163   0.877  1.00  0.00     0.036 A 
HETATM    4  C   UNL     1      41.076 -15.484  -0.259  1.00  0.00     0.048 A 
HETATM    5  N   UNL     1      42.087 -16.347  -0.128  1.00  0.00    -0.330 N 
HETATM    6  H   UNL     1      42.655 -16.636  -0.914  1.00  0.00     0.168 HD
HETATM    7  C   UNL     1      42.384 -16.883   1.048  1.00  0.00     0.182 A 
HETATM    8  N   UNL     1      41.679 -16.669   2.164  1.00  0.00    -0.202 NA
HETATM    9  C   UNL     1      40.636 -15.821   2.086  1.00  0.00     0.139 A 
HETATM   10  C   UNL     1      40.808 -14.900  -1.505  1.00  0.00     0.030 A 
HETATM   11  C   UNL     1      39.777 -13.969  -1.633  1.00  0.00     0.002 A 
ENDROOT
BRANCH   7  12
HETATM   12  N   UNL     1      43.482 -17.737   1.101  1.00  0.00    -0.258 NA
HETATM   13  H   UNL     1      43.113 -18.641   0.787  1.00  0.00     0.130 HD
BRANCH  12  14
HETATM   14  C   UNL     1      43.921 -17.916   2.489  1.00  0.00     0.134 C 
BRANCH  14  15
HETATM   15  C   UNL     1      44.131 -19.383   2.763  1.00  0.00    -0.045 A 
HETATM   16  C   UNL     1      43.796 -20.351   1.803  1.00  0.00     0.011 A 
HETATM   17  C   UNL     1      43.997 -21.707   2.069  1.00  0.00     0.043 A 
HETATM   18  C   UNL     1      44.522 -22.097   3.295  1.00  0.00     0.116 A 
HETATM   19  F   UNL     1      44.717 -23.397   3.546  1.00  0.00    -0.206 F 
HETATM   20  C   UNL     1      44.847 -21.157   4.264  1.00  0.00     0.043 A 
HETATM   21  C   UNL     1      44.650 -19.801   4.002  1.00  0.00     0.011 A 
ENDBRANCH  14  15
ENDBRANCH  12  14
ENDBRANCH   7  12
BRANCH   9  22
HETATM   22  N   UNL     1      39.926 -15.523   3.250  1.00  0.00    -0.374 N 
HETATM   23  H   UNL     1      39.452 -16.336   3.639  1.00  0.00     0.161 HD
BRANCH  22  24
HETATM   24  C   UNL     1      40.534 -14.696   4.292  1.00  0.00     0.123 C 
BRANCH  24  25
HETATM   25  C   UNL     1      40.252 -15.236   5.692  1.00  0.00     0.045 C 
BRANCH  25  26
HETATM   26  C   UNL     1      40.990 -16.531   6.000  1.00  0.00     0.165 C 
BRANCH  26  27
HETATM   27  O   UNL     1      40.597 -17.541   5.082  1.00  0.00    -0.401 OA
HETATM   28  H   UNL     1      41.240 -17.560   4.351  1.00  0.00     0.209 HD
ENDBRANCH  26  27
ENDBRANCH  25  26
ENDBRANCH  24  25
ENDBRANCH  22  24
ENDBRANCH   9  22
TORSDOF 8
ENDMDL
MODEL 2
REMARK VINA RESULT:      -7.5      2.411      3.470
REMARK  8 active torsions:
REMARK  status: ('A' for Active; 'I' for Inactive)
REMARK    1  A    between atoms: C_7  and  N_8 
REMARK    2  A    between atoms: N_8  and  C_9 
REMARK    3  A    between atoms: C_9  and  C_10 
REMARK    4  A    between atoms: C_18  and  N_19 
REMARK    5  A    between atoms: N_19  and  C_20 
REMARK    6  A    between atoms: C_20  and  C_21 
REMARK    7  A    between atoms: C_21  and  C_22 
REMARK    8  A    between atoms: C_22  and  O_23 
ROOT
HETATM    1  C   UNL     1      39.872 -12.737   5.252  1.00  0.00     0.001 A 
HETATM    2  C   UNL     1      40.688 -13.758   5.746  1.00  0.00     0.017 A 
HETATM    3  C   UNL     1      41.039 -14.867   4.941  1.00  0.00     0.036 A 
HETATM    4  C   UNL     1      40.555 -14.893   3.617  1.00  0.00     0.048 A 
HETATM    5  N   UNL     1      40.911 -15.903   2.820  1.00  0.00    -0.330 N 
HETATM    6  H   UNL     1      40.571 -15.988   1.870  1.00  0.00     0.168 HD
HETATM    7  C   UNL     1      41.723 -16.861   3.247  1.00  0.00     0.182 A 
HETATM    8  N   UNL     1      42.192 -16.938   4.496  1.00  0.00    -0.202 NA
HETATM    9  C   UNL     1      41.849 -15.955   5.350  1.00  0.00     0.139 A 
HETATM   10  C   UNL     1      39.728 -13.871   3.128  1.00  0.00     0.030 A 
HETATM   11  C   UNL     1      39.389 -12.796   3.949  1.00  0.00     0.002 A 
ENDROOT
BRANCH   7  12
HETATM   12  N   UNL     1      42.078 -17.851   2.335  1.00  0.00    -0.258 NA
HETATM   13  H   UNL     1      41.691 -18.712   2.735  1.00  0.00     0.130 HD
BRANCH  12  14
HETATM   14  C   UNL     1      43.536 -18.015   2.302  1.00  0.00     0.134 C 
BRANCH  14  15
HETATM   15  C   UNL     1      43.888 -19.439   2.648  1.00  0.00    -0.045 A 
HETATM   16  C   UNL     1      43.607 -20.488   1.757  1.00  0.00     0.011 A 
HETATM   17  C   UNL     1      43.941 -21.803   2.088  1.00  0.00     0.043 A 
HETATM   18  C   UNL     1      44.544 -22.072   3.311  1.00  0.00     0.116 A 
HETATM   19  F   UNL     1      44.864 -23.332   3.625  1.00  0.00    -0.206 F 
HETATM   20  C   UNL     1      44.816 -21.051   4.213  1.00  0.00     0.043 A 
HETATM   21  C   UNL     1      44.488 -19.736   3.885  1.00  0.00     0.011 A 
ENDBRANCH  14  15
ENDBRANCH  12  14
ENDBRANCH   7  12
BRANCH   9  22
HETATM   22  N   UNL     1      42.380 -15.971   6.640  1.00  0.00    -0.374 N 
HETATM   23  H   UNL     1      41.966 -16.693   7.227  1.00  0.00     0.161 HD
BRANCH  22  24
HETATM   24  C   UNL     1      43.826 -15.869   6.843  1.00  0.00     0.123 C 
BRANCH  24  25
HETATM   25  C   UNL     1      44.488 -17.239   6.961  1.00  0.00     0.045 C 
BRANCH  25  26
HETATM   26  C   UNL     1      43.820 -18.148   7.981  1.00  0.00     0.165 C 
BRANCH  26  27
HETATM   27  O   UNL     1      43.564 -17.426   9.177  1.00  0.00    -0.401 OA
HETATM   28  H   UNL     1      42.738 -16.924   9.064  1.00  0.00     0.209 HD
ENDBRANCH  26  27
ENDBRANCH  25  26
ENDBRANCH  24  25
ENDBRANCH  22  24
ENDBRANCH   9  22
TORSDOF 8
ENDMDL
MODEL 3
REMARK VINA RESULT:      -7.4      3.252      7.026
REMARK  8 active torsions:
REMARK  status: ('A' for Active; 'I' for Inactive)
REMARK    1  A    between atoms: C_7  and  N_8 
REMARK    2  A    between atoms: N_8  and  C_9 
REMARK    3  A    between atoms: C_9  and  C_10 
REMARK    4  A    between atoms: C_18  and  N_19 
REMARK    5  A    between atoms: N_19  and  C_20 
REMARK    6  A    between atoms: C_20  and  C_21 
REMARK    7  A    between atoms: C_21  and  C_22 
REMARK    8  A    between atoms: C_22  and  O_23 
ROOT
HETATM    1  C   UNL     1      44.784 -22.554   4.521  1.00  0.00     0.001 A 
HETATM    2  C   UNL     1      44.728 -21.321   5.175  1.00  0.00     0.017 A 
HETATM    3  C   UNL     1      44.491 -20.124   4.460  1.00  0.00     0.036 A 
HETATM    4  C   UNL     1      44.289 -20.224   3.067  1.00  0.00     0.048 A 
HETATM    5  N   UNL     1      44.014 -19.116   2.374  1.00  0.00    -0.330 N 
HETATM    6  H   UNL     1      43.889 -19.124   1.370  1.00  0.00     0.168 HD
HETATM    7  C   UNL     1      43.908 -17.939   2.976  1.00  0.00     0.182 A 
HETATM    8  N   UNL     1      44.127 -17.747   4.281  1.00  0.00    -0.202 NA
HETATM    9  C   UNL     1      44.427 -18.828   5.026  1.00  0.00     0.139 A 
HETATM   10  C   UNL     1      44.356 -21.463   2.413  1.00  0.00     0.030 A 
HETATM   11  C   UNL     1      44.603 -22.625   3.143  1.00  0.00     0.002 A 
ENDROOT
BRANCH   7  12
HETATM   12  N   UNL     1      43.574 -16.844   2.184  1.00  0.00    -0.258 NA
HETATM   13  H   UNL     1      43.045 -16.230   2.813  1.00  0.00     0.130 HD
BRANCH  12  14
HETATM   14  C   UNL     1      42.656 -17.250   1.115  1.00  0.00     0.134 C 
BRANCH  14  15
HETATM   15  C   UNL     1      41.491 -16.294   1.064  1.00  0.00    -0.045 A 
HETATM   16  C   UNL     1      41.414 -15.303   0.072  1.00  0.00     0.011 A 
HETATM   17  C   UNL     1      40.329 -14.425   0.035  1.00  0.00     0.043 A 
HETATM   18  C   UNL     1      39.328 -14.529   0.993  1.00  0.00     0.116 A 
HETATM   19  F   UNL     1      38.288 -13.688   0.954  1.00  0.00    -0.206 F 
HETATM   20  C   UNL     1      39.392 -15.492   1.992  1.00  0.00     0.043 A 
HETATM   21  C   UNL     1      40.473 -16.373   2.031  1.00  0.00     0.011 A 
ENDBRANCH  14  15
ENDBRANCH  12  14
ENDBRANCH   7  12
BRANCH   9  22
HETATM   22  N   UNL     1      44.590 -18.669   6.403  1.00  0.00    -0.374 N 
HETATM   23  H   UNL     1      45.313 -17.991   6.637  1.00  0.00     0.161 HD
BRANCH  22  24
HETATM   24  C   UNL     1      43.421 -18.541   7.274  1.00  0.00     0.123 C 
BRANCH  24  25
HETATM   25  C   UNL     1      43.497 -17.301   8.160  1.00  0.00     0.045 C 
BRANCH  25  26
HETATM   26  C   UNL     1      43.414 -15.996   7.383  1.00  0.00     0.165 C 
BRANCH  26  27
HETATM   27  O   UNL     1      44.635 -15.764   6.695  1.00  0.00    -0.401 OA
HETATM   28  H   UNL     1      44.968 -16.616   6.363  1.00  0.00     0.209 HD
ENDBRANCH  26  27
ENDBRANCH  25  26
ENDBRANCH  24  25
ENDBRANCH  22  24
ENDBRANCH   9  22
TORSDOF 8
ENDMDL
MODEL 4
REMARK VINA RESULT:      -7.4      3.436      4.527
REMARK  8 active torsions:
REMARK  status: ('A' for Active; 'I' for Inactive)
REMARK    1  A    between atoms: C_7  and  N_8 
REMARK    2  A    between atoms: N_8  and  C_9 
REMARK    3  A    between atoms: C_9  and  C_10 
REMARK    4  A    between atoms: C_18  and  N_19 
REMARK    5  A    between atoms: N_19  and  C_20 
REMARK    6  A    between atoms: C_20  and  C_21 
REMARK    7  A    between atoms: C_21  and  C_22 
REMARK    8  A    between atoms: C_22  and  O_23 
ROOT
HETATM    1  C   UNL     1      41.020 -12.135   3.914  1.00  0.00     0.001 A 
HETATM    2  C   UNL     1      41.868 -12.553   4.942  1.00  0.00     0.017 A 
HETATM    3  C   UNL     1      42.115 -13.926   5.175  1.00  0.00     0.036 A 
HETATM    4  C   UNL     1      41.491 -14.856   4.317  1.00  0.00     0.048 A 
HETATM    5  N   UNL     1      41.746 -16.156   4.482  1.00  0.00    -0.330 N 
HETATM    6  H   UNL     1      41.305 -16.869   3.914  1.00  0.00     0.168 HD
HETATM    7  C   UNL     1      42.584 -16.578   5.419  1.00  0.00     0.182 A 
HETATM    8  N   UNL     1      43.182 -15.772   6.302  1.00  0.00    -0.202 NA
HETATM    9  C   UNL     1      42.947 -14.450   6.194  1.00  0.00     0.139 A 
HETATM   10  C   UNL     1      40.633 -14.433   3.292  1.00  0.00     0.030 A 
HETATM   11  C   UNL     1      40.399 -13.072   3.094  1.00  0.00     0.002 A 
ENDROOT
BRANCH   7  12
HETATM   12  N   UNL     1      42.825 -17.947   5.491  1.00  0.00    -0.258 NA
HETATM   13  H   UNL     1      42.802 -18.154   6.495  1.00  0.00     0.130 HD
BRANCH  12  14
HETATM   14  C   UNL     1      44.182 -18.252   5.024  1.00  0.00     0.134 C 
BRANCH  14  15
HETATM   15  C   UNL     1      44.122 -19.340   3.983  1.00  0.00    -0.045 A 
HETATM   16  C   UNL     1      44.726 -20.587   4.209  1.00  0.00     0.011 A 
HETATM   17  C   UNL     1      44.661 -21.588   3.237  1.00  0.00     0.043 A 
HETATM   18  C   UNL     1      44.005 -21.340   2.038  1.00  0.00     0.116 A 
HETATM   19  F   UNL     1      43.942 -22.302   1.109  1.00  0.00    -0.206 F 
HETATM   20  C   UNL     1      43.414 -20.108   1.788  1.00  0.00     0.043 A 
HETATM   21  C   UNL     1      43.473 -19.107   2.758  1.00  0.00     0.011 A 
ENDBRANCH  14  15
ENDBRANCH  12  14
ENDBRANCH   7  12
BRANCH   9  22
HETATM   22  N   UNL     1      43.612 -13.578   7.056  1.00  0.00    -0.374 N 
HETATM   23  H   UNL     1      43.065 -13.350   7.884  1.00  0.00     0.161 HD
BRANCH  22  24
HETATM   24  C   UNL     1      45.023 -13.795   7.379  1.00  0.00     0.123 C 
BRANCH  24  25
HETATM   25  C   UNL     1      45.596 -12.669   8.237  1.00  0.00     0.045 C 
BRANCH  25  26
HETATM   26  C   UNL     1      44.634 -12.172   9.304  1.00  0.00     0.165 C 
BRANCH  26  27
HETATM   27  O   UNL     1      44.147 -13.268  10.065  1.00  0.00    -0.401 OA
HETATM   28  H   UNL     1      43.860 -13.967   9.450  1.00  0.00     0.209 HD
ENDBRANCH  26  27
ENDBRANCH  25  26
ENDBRANCH  24  25
ENDBRANCH  22  24
ENDBRANCH   9  22
TORSDOF 8
ENDMDL
MODEL 5
REMARK VINA RESULT:      -7.4      3.345      7.096
REMARK  8 active torsions:
REMARK  status: ('A' for Active; 'I' for Inactive)
REMARK    1  A    between atoms: C_7  and  N_8 
REMARK    2  A    between atoms: N_8  and  C_9 
REMARK    3  A    between atoms: C_9  and  C_10 
REMARK    4  A    between atoms: C_18  and  N_19 
REMARK    5  A    between atoms: N_19  and  C_20 
REMARK    6  A    between atoms: C_20  and  C_21 
REMARK    7  A    between atoms: C_21  and  C_22 
REMARK    8  A    between atoms: C_22  and  O_23 
ROOT
HETATM    1  C   UNL     1      44.441 -22.233   2.268  1.00  0.00     0.001 A 
HETATM    2  C   UNL     1      44.130 -20.912   1.937  1.00  0.00     0.017 A 
HETATM    3  C   UNL     1      44.086 -19.901   2.926  1.00  0.00     0.036 A 
HETATM    4  C   UNL     1      44.391 -20.271   4.253  1.00  0.00     0.048 A 
HETATM    5  N   UNL     1      44.406 -19.328   5.197  1.00  0.00    -0.330 N 
HETATM    6  H   UNL     1      44.589 -19.540   6.170  1.00  0.00     0.168 HD
HETATM    7  C   UNL     1      44.161 -18.058   4.903  1.00  0.00     0.182 A 
HETATM    8  N   UNL     1      43.821 -17.627   3.684  1.00  0.00    -0.202 NA
HETATM    9  C   UNL     1      43.772 -18.540   2.695  1.00  0.00     0.139 A 
HETATM   10  C   UNL     1      44.693 -21.600   4.582  1.00  0.00     0.030 A 
HETATM   11  C   UNL     1      44.717 -22.578   3.588  1.00  0.00     0.002 A 
ENDROOT
BRANCH   7  12
HETATM   12  N   UNL     1      44.242 -17.135   5.942  1.00  0.00    -0.258 NA
HETATM   13  H   UNL     1      44.916 -17.549   6.595  1.00  0.00     0.130 HD
BRANCH  12  14
HETATM   14  C   UNL     1      42.960 -17.050   6.650  1.00  0.00     0.134 C 
BRANCH  14  15
HETATM   15  C   UNL     1      42.208 -15.830   6.181  1.00  0.00    -0.045 A 
HETATM   16  C   UNL     1      40.824 -15.881   5.949  1.00  0.00     0.011 A 
HETATM   17  C   UNL     1      40.140 -14.744   5.517  1.00  0.00     0.043 A 
HETATM   18  C   UNL     1      40.837 -13.560   5.305  1.00  0.00     0.116 A 
HETATM   19  F   UNL     1      40.177 -12.471   4.893  1.00  0.00    -0.206 F 
HETATM   20  C   UNL     1      42.208 -13.492   5.514  1.00  0.00     0.043 A 
HETATM   21  C   UNL     1      42.896 -14.626   5.949  1.00  0.00     0.011 A 
ENDBRANCH  14  15
ENDBRANCH  12  14
ENDBRANCH   7  12
BRANCH   9  22
HETATM   22  N   UNL     1      43.490 -18.109   1.398  1.00  0.00    -0.374 N 
HETATM   23  H   UNL     1      43.214 -18.871   0.782  1.00  0.00     0.161 HD
BRANCH  22  24
HETATM   24  C   UNL     1      42.678 -16.911   1.180  1.00  0.00     0.123 C 
BRANCH  24  25
HETATM   25  C   UNL     1      41.190 -17.236   1.076  1.00  0.00     0.045 C 
BRANCH  25  26
HETATM   26  C   UNL     1      40.403 -16.872   2.326  1.00  0.00     0.165 C 
BRANCH  26  27
HETATM   27  O   UNL     1      39.224 -16.166   1.966  1.00  0.00    -0.401 OA
HETATM   28  H   UNL     1      39.368 -15.748   1.099  1.00  0.00     0.209 HD
ENDBRANCH  26  27
ENDBRANCH  25  26
ENDBRANCH  24  25
ENDBRANCH  22  24
ENDBRANCH   9  22
TORSDOF 8
ENDMDL
MODEL 6
REMARK VINA RESULT:      -7.2      3.314      6.837
REMARK  8 active torsions:
REMARK  status: ('A' for Active; 'I' for Inactive)
REMARK    1  A    between atoms: C_7  and  N_8 
REMARK    2  A    between atoms: N_8  and  C_9 
REMARK    3  A    between atoms: C_9  and  C_10 
REMARK    4  A    between atoms: C_18  and  N_19 
REMARK    5  A    between atoms: N_19  and  C_20 
REMARK    6  A    between atoms: C_20  and  C_21 
REMARK    7  A    between atoms: C_21  and  C_22 
REMARK    8  A    between atoms: C_22  and  O_23 
ROOT
HETATM    1  C   UNL     1      44.714 -20.455   4.420  1.00  0.00     0.001 A 
HETATM    2  C   UNL     1      43.938 -19.351   4.779  1.00  0.00     0.017 A 
HETATM    3  C   UNL     1      43.157 -18.664   3.820  1.00  0.00     0.036 A 
HETATM    4  C   UNL     1      43.173 -19.149   2.495  1.00  0.00     0.048 A 
HETATM    5  N   UNL     1      42.407 -18.550   1.580  1.00  0.00    -0.330 N 
HETATM    6  H   UNL     1      42.401 -18.837   0.609  1.00  0.00     0.168 HD
HETATM    7  C   UNL     1      41.624 -17.530   1.902  1.00  0.00     0.182 A 
HETATM    8  N   UNL     1      41.580 -16.979   3.119  1.00  0.00    -0.202 NA
HETATM    9  C   UNL     1      42.347 -17.531   4.078  1.00  0.00     0.139 A 
HETATM   10  C   UNL     1      43.962 -20.252   2.138  1.00  0.00     0.030 A 
HETATM   11  C   UNL     1      44.730 -20.903   3.103  1.00  0.00     0.002 A 
ENDROOT
BRANCH   7  12
HETATM   12  N   UNL     1      40.825 -16.995   0.895  1.00  0.00    -0.258 NA
HETATM   13  H   UNL     1      41.348 -17.182   0.033  1.00  0.00     0.130 HD
BRANCH  12  14
HETATM   14  C   UNL     1      40.740 -15.537   1.032  1.00  0.00     0.134 C 
BRANCH  14  15
HETATM   15  C   UNL     1      41.092 -14.888  -0.281  1.00  0.00    -0.045 A 
HETATM   16  C   UNL     1      41.630 -13.591  -0.323  1.00  0.00     0.011 A 
HETATM   17  C   UNL     1      41.955 -13.002  -1.547  1.00  0.00     0.043 A 
HETATM   18  C   UNL     1      41.732 -13.701  -2.727  1.00  0.00     0.116 A 
HETATM   19  F   UNL     1      42.046 -13.135  -3.898  1.00  0.00    -0.206 F 
HETATM   20  C   UNL     1      41.187 -14.978  -2.709  1.00  0.00     0.043 A 
HETATM   21  C   UNL     1      40.864 -15.572  -1.488  1.00  0.00     0.011 A 
ENDBRANCH  14  15
ENDBRANCH  12  14
ENDBRANCH   7  12
BRANCH   9  22
HETATM   22  N   UNL     1      42.269 -17.023   5.375  1.00  0.00    -0.374 N 
HETATM   23  H   UNL     1      42.201 -17.754   6.081  1.00  0.00     0.161 HD
BRANCH  22  24
HETATM   24  C   UNL     1      43.159 -15.941   5.798  1.00  0.00     0.123 C 
BRANCH  24  25
HETATM   25  C   UNL     1      43.888 -16.271   7.098  1.00  0.00     0.045 C 
BRANCH  25  26
HETATM   26  C   UNL     1      43.253 -17.415   7.874  1.00  0.00     0.165 C 
BRANCH  26  27
HETATM   27  O   UNL     1      43.502 -17.254   9.263  1.00  0.00    -0.401 OA
HETATM   28  H   UNL     1      42.731 -16.815   9.665  1.00  0.00     0.209 HD
ENDBRANCH  26  27
ENDBRANCH  25  26
ENDBRANCH  24  25
ENDBRANCH  22  24
ENDBRANCH   9  22
TORSDOF 8
ENDMDL
MODEL 7
REMARK VINA RESULT:      -7.1      3.927      7.235
REMARK  8 active torsions:
REMARK  status: ('A' for Active; 'I' for Inactive)
REMARK    1  A    between atoms: C_7  and  N_8 
REMARK    2  A    between atoms: N_8  and  C_9 
REMARK    3  A    between atoms: C_9  and  C_10 
REMARK    4  A    between atoms: C_18  and  N_19 
REMARK    5  A    between atoms: N_19  and  C_20 
REMARK    6  A    between atoms: C_20  and  C_21 
REMARK    7  A    between atoms: C_21  and  C_22 
REMARK    8  A    between atoms: C_22  and  O_23 
ROOT
HETATM    1  C   UNL     1      44.600 -22.237   3.224  1.00  0.00     0.001 A 
HETATM    2  C   UNL     1      44.688 -21.256   4.214  1.00  0.00     0.017 A 
HETATM    3  C   UNL     1      44.275 -19.926   3.965  1.00  0.00     0.036 A 
HETATM    4  C   UNL     1      43.750 -19.633   2.689  1.00  0.00     0.048 A 
HETATM    5  N   UNL     1      43.306 -18.398   2.443  1.00  0.00    -0.330 N 
HETATM    6  H   UNL     1      42.946 -18.124   1.538  1.00  0.00     0.168 HD
HETATM    7  C   UNL     1      43.334 -17.459   3.380  1.00  0.00     0.182 A 
HETATM    8  N   UNL     1      43.854 -17.637   4.598  1.00  0.00    -0.202 NA
HETATM    9  C   UNL     1      44.334 -18.860   4.896  1.00  0.00     0.139 A 
HETATM   10  C   UNL     1      43.672 -20.618   1.695  1.00  0.00     0.030 A 
HETATM   11  C   UNL     1      44.098 -21.918   1.965  1.00  0.00     0.002 A 
ENDROOT
BRANCH   7  12
HETATM   12  N   UNL     1      42.810 -16.212   3.050  1.00  0.00    -0.258 NA
HETATM   13  H   UNL     1      43.337 -15.930   2.217  1.00  0.00     0.130 HD
BRANCH  12  14
HETATM   14  C   UNL     1      43.118 -15.236   4.100  1.00  0.00     0.134 C 
BRANCH  14  15
HETATM   15  C   UNL     1      41.909 -14.372   4.353  1.00  0.00    -0.045 A 
HETATM   16  C   UNL     1      40.840 -14.839   5.134  1.00  0.00     0.011 A 
HETATM   17  C   UNL     1      39.726 -14.028   5.361  1.00  0.00     0.043 A 
HETATM   18  C   UNL     1      39.675 -12.758   4.801  1.00  0.00     0.116 A 
HETATM   19  F   UNL     1      38.607 -11.982   5.024  1.00  0.00    -0.206 F 
HETATM   20  C   UNL     1      40.714 -12.282   4.013  1.00  0.00     0.043 A 
HETATM   21  C   UNL     1      41.831 -13.087   3.785  1.00  0.00     0.011 A 
ENDBRANCH  14  15
ENDBRANCH  12  14
ENDBRANCH   7  12
BRANCH   9  22
HETATM   22  N   UNL     1      44.818 -19.095   6.183  1.00  0.00    -0.374 N 
HETATM   23  H   UNL     1      45.544 -18.436   6.456  1.00  0.00     0.161 HD
BRANCH  22  24
HETATM   24  C   UNL     1      43.890 -19.369   7.281  1.00  0.00     0.123 C 
BRANCH  24  25
HETATM   25  C   UNL     1      44.054 -18.380   8.433  1.00  0.00     0.045 C 
BRANCH  25  26
HETATM   26  C   UNL     1      43.347 -17.054   8.197  1.00  0.00     0.165 C 
BRANCH  26  27
HETATM   27  O   UNL     1      42.315 -17.222   7.235  1.00  0.00    -0.401 OA
HETATM   28  H   UNL     1      42.032 -16.341   6.930  1.00  0.00     0.209 HD
ENDBRANCH  26  27
ENDBRANCH  25  26
ENDBRANCH  24  25
ENDBRANCH  22  24
ENDBRANCH   9  22
TORSDOF 8
ENDMDL
MODEL 8
REMARK VINA RESULT:      -7.1      2.480      4.214
REMARK  8 active torsions:
REMARK  status: ('A' for Active; 'I' for Inactive)
REMARK    1  A    between atoms: C_7  and  N_8 
REMARK    2  A    between atoms: N_8  and  C_9 
REMARK    3  A    between atoms: C_9  and  C_10 
REMARK    4  A    between atoms: C_18  and  N_19 
REMARK    5  A    between atoms: N_19  and  C_20 
REMARK    6  A    between atoms: C_20  and  C_21 
REMARK    7  A    between atoms: C_21  and  C_22 
REMARK    8  A    between atoms: C_22  and  O_23 
ROOT
HETATM    1  C   UNL     1      41.833 -12.568   2.855  1.00  0.00     0.001 A 
HETATM    2  C   UNL     1      41.289 -13.333   1.821  1.00  0.00     0.017 A 
HETATM    3  C   UNL     1      41.560 -14.718   1.714  1.00  0.00     0.036 A 
HETATM    4  C   UNL     1      42.381 -15.301   2.702  1.00  0.00     0.048 A 
HETATM    5  N   UNL     1      42.613 -16.615   2.655  1.00  0.00    -0.330 N 
HETATM    6  H   UNL     1      43.217 -17.081   3.320  1.00  0.00     0.168 HD
HETATM    7  C   UNL     1      42.070 -17.373   1.712  1.00  0.00     0.182 A 
HETATM    8  N   UNL     1      41.318 -16.899   0.714  1.00  0.00    -0.202 NA
HETATM    9  C   UNL     1      41.066 -15.576   0.702  1.00  0.00     0.139 A 
HETATM   10  C   UNL     1      42.934 -14.527   3.733  1.00  0.00     0.030 A 
HETATM   11  C   UNL     1      42.658 -13.161   3.806  1.00  0.00     0.002 A 
ENDROOT
BRANCH   7  12
HETATM   12  N   UNL     1      42.329 -18.740   1.765  1.00  0.00    -0.258 NA
HETATM   13  H   UNL     1      42.037 -19.016   2.708  1.00  0.00     0.130 HD
BRANCH  12  14
HETATM   14  C   UNL     1      43.772 -18.989   1.677  1.00  0.00     0.134 C 
BRANCH  14  15
HETATM   15  C   UNL     1      44.158 -20.058   2.667  1.00  0.00    -0.045 A 
HETATM   16  C   UNL     1      44.202 -21.410   2.289  1.00  0.00     0.011 A 
HETATM   17  C   UNL     1      44.563 -22.390   3.216  1.00  0.00     0.043 A 
HETATM   18  C   UNL     1      44.868 -22.023   4.521  1.00  0.00     0.116 A 
HETATM   19  F   UNL     1      45.215 -22.964   5.406  1.00  0.00    -0.206 F 
HETATM   20  C   UNL     1      44.815 -20.694   4.920  1.00  0.00     0.043 A 
HETATM   21  C   UNL     1      44.458 -19.710   3.997  1.00  0.00     0.011 A 
ENDBRANCH  14  15
ENDBRANCH  12  14
ENDBRANCH   7  12
BRANCH   9  22
HETATM   22  N   UNL     1      40.226 -15.062  -0.287  1.00  0.00    -0.374 N 
HETATM   23  H   UNL     1      39.554 -14.390   0.079  1.00  0.00     0.161 HD
BRANCH  22  24
HETATM   24  C   UNL     1      40.777 -14.636  -1.574  1.00  0.00     0.123 C 
BRANCH  24  25
HETATM   25  C   UNL     1      40.846 -15.784  -2.579  1.00  0.00     0.045 C 
BRANCH  25  26
HETATM   26  C   UNL     1      39.676 -15.806  -3.551  1.00  0.00     0.165 C 
BRANCH  26  27
HETATM   27  O   UNL     1      39.133 -17.117  -3.624  1.00  0.00    -0.401 OA
HETATM   28  H   UNL     1      39.864 -17.757  -3.567  1.00  0.00     0.209 HD
ENDBRANCH  26  27
ENDBRANCH  25  26
ENDBRANCH  24  25
ENDBRANCH  22  24
ENDBRANCH   9  22
TORSDOF 8
ENDMDL
MODEL 9
REMARK VINA RESULT:      -7.0      3.478      7.161
REMARK  8 active torsions:
REMARK  status: ('A' for Active; 'I' for Inactive)
REMARK    1  A    between atoms: C_7  and  N_8 
REMARK    2  A    between atoms: N_8  and  C_9 
REMARK    3  A    between atoms: C_9  and  C_10 
REMARK    4  A    between atoms: C_18  and  N_19 
REMARK    5  A    between atoms: N_19  and  C_20 
REMARK    6  A    between atoms: C_20  and  C_21 
REMARK    7  A    between atoms: C_21  and  C_22 
REMARK    8  A    between atoms: C_22  and  O_23 
ROOT
HETATM    1  C   UNL     1      44.655 -21.373   3.686  1.00  0.00     0.001 A 
HETATM    2  C   UNL     1      44.569 -20.142   4.341  1.00  0.00     0.017 A 
HETATM    3  C   UNL     1      43.984 -19.018   3.711  1.00  0.00     0.036 A 
HETATM    4  C   UNL     1      43.472 -19.192   2.408  1.00  0.00     0.048 A 
HETATM    5  N   UNL     1      42.871 -18.161   1.809  1.00  0.00    -0.330 N 
HETATM    6  H   UNL     1      42.511 -18.220   0.865  1.00  0.00     0.168 HD
HETATM    7  C   UNL     1      42.732 -16.995   2.426  1.00  0.00     0.182 A 
HETATM    8  N   UNL     1      43.225 -16.730   3.640  1.00  0.00    -0.202 NA
HETATM    9  C   UNL     1      43.859 -17.729   4.284  1.00  0.00     0.139 A 
HETATM   10  C   UNL     1      43.571 -20.426   1.751  1.00  0.00     0.030 A 
HETATM   11  C   UNL     1      44.163 -21.514   2.393  1.00  0.00     0.002 A 
ENDROOT
BRANCH   7  12
HETATM   12  N   UNL     1      42.053 -15.989   1.744  1.00  0.00    -0.258 NA
HETATM   13  H   UNL     1      42.593 -15.141   1.943  1.00  0.00     0.130 HD
BRANCH  12  14
HETATM   14  C   UNL     1      40.720 -15.791   2.323  1.00  0.00     0.134 C 
BRANCH  14  15
HETATM   15  C   UNL     1      39.848 -15.058   1.336  1.00  0.00    -0.045 A 
HETATM   16  C   UNL     1      38.501 -14.788   1.626  1.00  0.00     0.011 A 
HETATM   17  C   UNL     1      37.704 -14.106   0.703  1.00  0.00     0.043 A 
HETATM   18  C   UNL     1      38.249 -13.704  -0.510  1.00  0.00     0.116 A 
HETATM   19  F   UNL     1      37.484 -13.048  -1.391  1.00  0.00    -0.206 F 
HETATM   20  C   UNL     1      39.575 -13.973  -0.822  1.00  0.00     0.043 A 
HETATM   21  C   UNL     1      40.375 -14.652   0.097  1.00  0.00     0.011 A 
ENDBRANCH  14  15
ENDBRANCH  12  14
ENDBRANCH   7  12
BRANCH   9  22
HETATM   22  N   UNL     1      44.321 -17.503   5.581  1.00  0.00    -0.374 N 
HETATM   23  H   UNL     1      45.288 -17.185   5.603  1.00  0.00     0.161 HD
BRANCH  22  24
HETATM   24  C   UNL     1      43.488 -16.784   6.545  1.00  0.00     0.123 C 
BRANCH  24  25
HETATM   25  C   UNL     1      43.006 -17.689   7.676  1.00  0.00     0.045 C 
BRANCH  25  26
HETATM   26  C   UNL     1      43.983 -18.803   8.018  1.00  0.00     0.165 C 
BRANCH  26  27
HETATM   27  O   UNL     1      44.317 -18.747   9.397  1.00  0.00    -0.401 OA
HETATM   28  H   UNL     1      44.523 -17.824   9.627  1.00  0.00     0.209 HD
ENDBRANCH  26  27
ENDBRANCH  25  26
ENDBRANCH  24  25
ENDBRANCH  22  24
ENDBRANCH   9  22
TORSDOF 8
ENDMDL
MODEL 10
REMARK VINA RESULT:      -7.0      2.486      4.314
REMARK  8 active torsions:
REMARK  status: ('A' for Active; 'I' for Inactive)
REMARK    1  A    between atoms: C_7  and  N_8 
REMARK    2  A    between atoms: N_8  and  C_9 
REMARK    3  A    between atoms: C_9  and  C_10 
REMARK    4  A    between atoms: C_18  and  N_19 
REMARK    5  A    between atoms: N_19  and  C_20 
REMARK    6  A    between atoms: C_20  and  C_21 
REMARK    7  A    between atoms: C_21  and  C_22 
REMARK    8  A    between atoms: C_22  and  O_23 
ROOT
HETATM    1  C   UNL     1      38.769 -11.808   3.125  1.00  0.00     0.001 A 
HETATM    2  C   UNL     1      39.046 -12.737   2.120  1.00  0.00     0.017 A 
HETATM    3  C   UNL     1      39.696 -13.959   2.413  1.00  0.00     0.036 A 
HETATM    4  C   UNL     1      40.033 -14.214   3.759  1.00  0.00     0.048 A 
HETATM    5  N   UNL     1      40.602 -15.381   4.072  1.00  0.00    -0.330 N 
HETATM    6  H   UNL     1      40.891 -15.605   5.015  1.00  0.00     0.168 HD
HETATM    7  C   UNL     1      40.834 -16.301   3.145  1.00  0.00     0.182 A 
HETATM    8  N   UNL     1      40.589 -16.126   1.843  1.00  0.00    -0.202 NA
HETATM    9  C   UNL     1      40.031 -14.959   1.468  1.00  0.00     0.139 A 
HETATM   10  C   UNL     1      39.761 -13.274   4.764  1.00  0.00     0.030 A 
HETATM   11  C   UNL     1      39.130 -12.072   4.443  1.00  0.00     0.002 A 
ENDROOT
BRANCH   7  12
HETATM   12  N   UNL     1      41.390 -17.506   3.567  1.00  0.00    -0.258 NA
HETATM   13  H   UNL     1      41.134 -17.568   4.558  1.00  0.00     0.130 HD
BRANCH  12  14
HETATM   14  C   UNL     1      42.854 -17.440   3.507  1.00  0.00     0.134 C 
BRANCH  14  15
HETATM   15  C   UNL     1      43.407 -18.820   3.255  1.00  0.00    -0.045 A 
HETATM   16  C   UNL     1      44.292 -19.419   4.166  1.00  0.00     0.011 A 
HETATM   17  C   UNL     1      44.796 -20.698   3.922  1.00  0.00     0.043 A 
HETATM   18  C   UNL     1      44.427 -21.373   2.765  1.00  0.00     0.116 A 
HETATM   19  F   UNL     1      44.910 -22.599   2.534  1.00  0.00    -0.206 F 
HETATM   20  C   UNL     1      43.565 -20.792   1.843  1.00  0.00     0.043 A 
HETATM   21  C   UNL     1      43.057 -19.516   2.085  1.00  0.00     0.011 A 
ENDBRANCH  14  15
ENDBRANCH  12  14
ENDBRANCH   7  12
BRANCH   9  22
HETATM   22  N   UNL     1      39.698 -14.776   0.125  1.00  0.00    -0.374 N 
HETATM   23  H   UNL     1      39.090 -13.972  -0.023  1.00  0.00     0.161 HD
BRANCH  22  24
HETATM   24  C   UNL     1      40.727 -14.877  -0.910  1.00  0.00     0.123 C 
BRANCH  24  25
HETATM   25  C   UNL     1      41.808 -13.811  -0.752  1.00  0.00     0.045 C 
BRANCH  25  26
HETATM   26  C   UNL     1      42.001 -12.956  -1.996  1.00  0.00     0.165 C 
BRANCH  26  27
HETATM   27  O   UNL     1      43.007 -13.525  -2.822  1.00  0.00    -0.401 OA
HETATM   28  H   UNL     1      43.481 -12.804  -3.272  1.00  0.00     0.209 HD
ENDBRANCH  26  27
ENDBRANCH  25  26
ENDBRANCH  24  25
ENDBRANCH  22  24
ENDBRANCH   9  22
TORSDOF 8
ENDMDL
