MODEL 1
REMARK VINA RESULT:      -7.5      0.000      0.000
REMARK  4 active torsions:
REMARK  status: ('A' for Active; 'I' for Inactive)
REMARK    1  A    between atoms: O_2  and  C_3 
REMARK    2  A    between atoms: C_4  and  O_5 
REMARK    3  A    between atoms: C_6  and  C_7 
REMARK    4  A    between atoms: C_7  and  N_8 
ROOT
HETATM    1  N   UNL     1      42.328 -17.469   1.253  1.00  0.00    -0.066 N 
HETATM    2  H   UNL     1      42.456 -18.328   0.687  1.00  0.00     0.280 HD
HETATM    3  C   UNL     1      41.206 -17.822   2.206  1.00  0.00     0.246 C 
HETATM    4  C   UNL     1      40.472 -16.592   2.772  1.00  0.00     0.062 C 
HETATM    5  C   UNL     1      39.978 -15.720   1.625  1.00  0.00     0.020 C 
HETATM    6  C   UNL     1      41.202 -15.214   0.876  1.00  0.00     0.031 C 
HETATM    7  C   UNL     1      42.029 -14.323   1.807  1.00  0.00     0.138 C 
HETATM    8  N   UNL     1      42.146 -14.770   3.197  1.00  0.00    -0.317 N 
HETATM    9  C   UNL     1      41.358 -15.802   3.712  1.00  0.00     0.020 A 
HETATM   10  C   UNL     1      41.413 -16.094   5.025  1.00  0.00     0.026 A 
HETATM   11  C   UNL     1      43.015 -14.019   4.004  1.00  0.00     0.247 A 
HETATM   12  O   UNL     1      43.745 -13.132   3.576  1.00  0.00    -0.268 OA
HETATM   13  C   UNL     1      43.054 -14.375   5.443  1.00  0.00     0.074 A 
HETATM   14  C   UNL     1      42.282 -15.362   5.908  1.00  0.00     0.007 A 
HETATM   15  C   UNL     1      41.995 -16.381   0.271  1.00  0.00     0.241 C 
ENDROOT
BRANCH   1  16
HETATM   16  C   UNL     1      43.717 -17.362   1.858  1.00  0.00     0.276 C 
BRANCH  16  17
HETATM   17  C   UNL     1      43.991 -18.351   2.959  1.00  0.00     0.005 A 
HETATM   18  C   UNL     1      44.082 -19.721   2.700  1.00  0.00     0.107 A 
HETATM   19  C   UNL     1      44.368 -20.655   3.706  1.00  0.00     0.103 A 
HETATM   20  C   UNL     1      44.566 -20.204   5.008  1.00  0.00     0.058 A 
HETATM   21  C   UNL     1      44.481 -18.837   5.283  1.00  0.00     0.014 A 
HETATM   22  C   UNL     1      44.202 -17.912   4.272  1.00  0.00     0.030 A 
HETATM   23 BR   UNL     1      44.743 -18.222   7.052  1.00  0.00    -0.051 Br
BRANCH  18  24
HETATM   24  O   UNL     1      43.855 -20.163   1.415  1.00  0.00    -0.357 OA
HETATM   25  H   UNL     1      42.875 -20.247   1.360  1.00  0.00     0.218 HD
ENDBRANCH  18  24
BRANCH  19  26
HETATM   26  O   UNL     1      44.411 -21.955   3.278  1.00  0.00    -0.353 OA
HETATM   27  C   UNL     1      44.731 -22.940   4.261  1.00  0.00     0.210 C 
ENDBRANCH  19  26
ENDBRANCH  16  17
ENDBRANCH   1  16
TORSDOF 4
ENDMDL
MODEL 2
REMARK VINA RESULT:      -7.4      2.717      4.347
REMARK  4 active torsions:
REMARK  status: ('A' for Active; 'I' for Inactive)
REMARK    1  A    between atoms: O_2  and  C_3 
REMARK    2  A    between atoms: C_4  and  O_5 
REMARK    3  A    between atoms: C_6  and  C_7 
REMARK    4  A    between atoms: C_7  and  N_8 
ROOT
HETATM    1  N   UNL     1      41.624 -14.860   5.938  1.00  0.00    -0.066 N 
HETATM    2  H   UNL     1      41.921 -15.133   6.894  1.00  0.00     0.280 HD
HETATM    3  C   UNL     1      42.914 -14.455   5.256  1.00  0.00     0.246 C 
HETATM    4  C   UNL     1      42.703 -13.522   4.049  1.00  0.00     0.062 C 
HETATM    5  C   UNL     1      41.893 -12.306   4.480  1.00  0.00     0.020 C 
HETATM    6  C   UNL     1      40.522 -12.801   4.917  1.00  0.00     0.031 C 
HETATM    7  C   UNL     1      39.807 -13.426   3.716  1.00  0.00     0.138 C 
HETATM    8  N   UNL     1      40.634 -14.237   2.819  1.00  0.00    -0.317 N 
HETATM    9  C   UNL     1      42.029 -14.244   2.901  1.00  0.00     0.020 A 
HETATM   10  C   UNL     1      42.750 -14.906   1.978  1.00  0.00     0.026 A 
HETATM   11  C   UNL     1      39.942 -14.913   1.802  1.00  0.00     0.247 A 
HETATM   12  O   UNL     1      38.720 -14.955   1.723  1.00  0.00    -0.268 OA
HETATM   13  C   UNL     1      40.771 -15.638   0.808  1.00  0.00     0.074 A 
HETATM   14  C   UNL     1      42.104 -15.619   0.908  1.00  0.00     0.007 A 
HETATM   15  C   UNL     1      40.638 -13.740   6.125  1.00  0.00     0.241 C 
ENDROOT
BRANCH   1  16
HETATM   16  C   UNL     1      41.004 -16.170   5.485  1.00  0.00     0.276 C 
BRANCH  16  17
HETATM   17  C   UNL     1      41.996 -17.275   5.248  1.00  0.00     0.005 A 
HETATM   18  C   UNL     1      42.659 -17.898   6.309  1.00  0.00     0.107 A 
HETATM   19  C   UNL     1      43.563 -18.952   6.111  1.00  0.00     0.103 A 
HETATM   20  C   UNL     1      43.812 -19.391   4.814  1.00  0.00     0.058 A 
HETATM   21  C   UNL     1      43.157 -18.780   3.742  1.00  0.00     0.014 A 
HETATM   22  C   UNL     1      42.251 -17.735   3.950  1.00  0.00     0.030 A 
HETATM   23 BR   UNL     1      43.498 -19.369   1.978  1.00  0.00    -0.051 Br
BRANCH  18  24
HETATM   24  O   UNL     1      42.430 -17.438   7.586  1.00  0.00    -0.357 OA
HETATM   25  H   UNL     1      43.276 -17.001   7.840  1.00  0.00     0.218 HD
ENDBRANCH  18  24
BRANCH  19  26
HETATM   26  O   UNL     1      44.127 -19.440   7.259  1.00  0.00    -0.353 OA
HETATM   27  C   UNL     1      43.661 -20.711   7.709  1.00  0.00     0.210 C 
ENDBRANCH  19  26
ENDBRANCH  16  17
ENDBRANCH   1  16
TORSDOF 4
ENDMDL
MODEL 3
REMARK VINA RESULT:      -7.3      2.090      2.383
REMARK  4 active torsions:
REMARK  status: ('A' for Active; 'I' for Inactive)
REMARK    1  A    between atoms: O_2  and  C_3 
REMARK    2  A    between atoms: C_4  and  O_5 
REMARK    3  A    between atoms: C_6  and  C_7 
REMARK    4  A    between atoms: C_7  and  N_8 
ROOT
HETATM    1  N   UNL     1      42.090 -16.592   1.143  1.00  0.00    -0.066 N 
HETATM    2  H   UNL     1      42.360 -17.377   0.521  1.00  0.00     0.280 HD
HETATM    3  C   UNL     1      40.817 -17.072   1.808  1.00  0.00     0.246 C 
HETATM    4  C   UNL     1      39.939 -15.929   2.349  1.00  0.00     0.062 C 
HETATM    5  C   UNL     1      39.645 -14.937   1.230  1.00  0.00     0.020 C 
HETATM    6  C   UNL     1      40.971 -14.328   0.800  1.00  0.00     0.031 C 
HETATM    7  C   UNL     1      41.564 -13.537   1.970  1.00  0.00     0.138 C 
HETATM    8  N   UNL     1      41.424 -14.140   3.297  1.00  0.00    -0.317 N 
HETATM    9  C   UNL     1      40.592 -15.238   3.528  1.00  0.00     0.020 A 
HETATM   10  C   UNL     1      40.400 -15.679   4.785  1.00  0.00     0.026 A 
HETATM   11  C   UNL     1      42.088 -13.474   4.339  1.00  0.00     0.247 A 
HETATM   12  O   UNL     1      42.852 -12.530   4.166  1.00  0.00    -0.268 OA
HETATM   13  C   UNL     1      41.859 -13.994   5.708  1.00  0.00     0.074 A 
HETATM   14  C   UNL     1      41.050 -15.041   5.899  1.00  0.00     0.007 A 
HETATM   15  C   UNL     1      41.913 -15.402   0.241  1.00  0.00     0.241 C 
ENDROOT
BRANCH   1  16
HETATM   16  C   UNL     1      43.328 -16.532   2.020  1.00  0.00     0.276 C 
BRANCH  16  17
HETATM   17  C   UNL     1      43.662 -17.827   2.709  1.00  0.00     0.005 A 
HETATM   18  C   UNL     1      43.852 -17.888   4.092  1.00  0.00     0.107 A 
HETATM   19  C   UNL     1      44.132 -19.091   4.757  1.00  0.00     0.103 A 
HETATM   20  C   UNL     1      44.227 -20.265   4.014  1.00  0.00     0.058 A 
HETATM   21  C   UNL     1      44.038 -20.221   2.631  1.00  0.00     0.014 A 
HETATM   22  C   UNL     1      43.752 -19.019   1.978  1.00  0.00     0.030 A 
HETATM   23 BR   UNL     1      44.173 -21.813   1.618  1.00  0.00    -0.051 Br
BRANCH  18  24
HETATM   24  O   UNL     1      43.786 -16.718   4.815  1.00  0.00    -0.357 OA
HETATM   25  H   UNL     1      44.601 -16.228   4.554  1.00  0.00     0.218 HD
ENDBRANCH  18  24
BRANCH  19  26
HETATM   26  O   UNL     1      44.297 -18.967   6.110  1.00  0.00    -0.353 OA
HETATM   27  C   UNL     1      43.805 -20.039   6.913  1.00  0.00     0.210 C 
ENDBRANCH  19  26
ENDBRANCH  16  17
ENDBRANCH   1  16
TORSDOF 4
ENDMDL
MODEL 4
REMARK VINA RESULT:      -7.2      3.284      6.259
REMARK  4 active torsions:
REMARK  status: ('A' for Active; 'I' for Inactive)
REMARK    1  A    between atoms: O_2  and  C_3 
REMARK    2  A    between atoms: C_4  and  O_5 
REMARK    3  A    between atoms: C_6  and  C_7 
REMARK    4  A    between atoms: C_7  and  N_8 
ROOT
HETATM    1  N   UNL     1      40.566 -15.307   3.890  1.00  0.00    -0.066 N 
HETATM    2  H   UNL     1      39.613 -14.927   4.041  1.00  0.00     0.280 HD
HETATM    3  C   UNL     1      40.835 -16.125   5.135  1.00  0.00     0.246 C 
HETATM    4  C   UNL     1      42.334 -16.346   5.411  1.00  0.00     0.062 C 
HETATM    5  C   UNL     1      43.048 -15.001   5.460  1.00  0.00     0.020 C 
HETATM    6  C   UNL     1      42.928 -14.369   4.081  1.00  0.00     0.031 C 
HETATM    7  C   UNL     1      43.665 -15.242   3.063  1.00  0.00     0.138 C 
HETATM    8  N   UNL     1      43.522 -16.690   3.226  1.00  0.00    -0.317 N 
HETATM    9  C   UNL     1      42.961 -17.255   4.374  1.00  0.00     0.020 A 
HETATM   10  C   UNL     1      42.964 -18.591   4.534  1.00  0.00     0.026 A 
HETATM   11  C   UNL     1      44.089 -17.474   2.209  1.00  0.00     0.247 A 
HETATM   12  O   UNL     1      44.558 -17.012   1.175  1.00  0.00    -0.268 OA
HETATM   13  C   UNL     1      44.067 -18.943   2.416  1.00  0.00     0.074 A 
HETATM   14  C   UNL     1      43.531 -19.453   3.530  1.00  0.00     0.007 A 
HETATM   15  C   UNL     1      41.458 -14.108   3.724  1.00  0.00     0.241 C 
ENDROOT
BRANCH   1  16
HETATM   16  C   UNL     1      40.323 -16.087   2.610  1.00  0.00     0.276 C 
BRANCH  16  17
HETATM   17  C   UNL     1      39.966 -15.235   1.423  1.00  0.00     0.005 A 
HETATM   18  C   UNL     1      40.726 -15.265   0.250  1.00  0.00     0.107 A 
HETATM   19  C   UNL     1      40.392 -14.503  -0.878  1.00  0.00     0.103 A 
HETATM   20  C   UNL     1      39.268 -13.684  -0.829  1.00  0.00     0.058 A 
HETATM   21  C   UNL     1      38.496 -13.643   0.335  1.00  0.00     0.014 A 
HETATM   22  C   UNL     1      38.833 -14.413   1.452  1.00  0.00     0.030 A 
HETATM   23 BR   UNL     1      36.972 -12.527   0.407  1.00  0.00    -0.051 Br
BRANCH  18  24
HETATM   24  O   UNL     1      41.854 -16.055   0.219  1.00  0.00    -0.357 OA
HETATM   25  H   UNL     1      42.170 -15.987  -0.712  1.00  0.00     0.218 HD
ENDBRANCH  18  24
BRANCH  19  26
HETATM   26  O   UNL     1      41.249 -14.648  -1.937  1.00  0.00    -0.353 OA
HETATM   27  C   UNL     1      40.795 -15.460  -3.018  1.00  0.00     0.210 C 
ENDBRANCH  19  26
ENDBRANCH  16  17
ENDBRANCH   1  16
TORSDOF 4
ENDMDL
MODEL 5
REMARK VINA RESULT:      -6.9      2.982      6.832
REMARK  4 active torsions:
REMARK  status: ('A' for Active; 'I' for Inactive)
REMARK    1  A    between atoms: O_2  and  C_3 
REMARK    2  A    between atoms: C_4  and  O_5 
REMARK    3  A    between atoms: C_6  and  C_7 
REMARK    4  A    between atoms: C_7  and  N_8 
ROOT
HETATM    1  N   UNL     1      42.969 -15.636   5.758  1.00  0.00    -0.066 N 
HETATM    2  H   UNL     1      42.991 -15.032   6.601  1.00  0.00     0.280 HD
HETATM    3  C   UNL     1      41.510 -16.015   5.618  1.00  0.00     0.246 C 
HETATM    4  C   UNL     1      41.286 -17.300   4.799  1.00  0.00     0.062 C 
HETATM    5  C   UNL     1      42.104 -18.437   5.398  1.00  0.00     0.020 C 
HETATM    6  C   UNL     1      43.573 -18.062   5.265  1.00  0.00     0.031 C 
HETATM    7  C   UNL     1      43.935 -17.970   3.780  1.00  0.00     0.138 C 
HETATM    8  N   UNL     1      42.934 -17.356   2.905  1.00  0.00    -0.317 N 
HETATM    9  C   UNL     1      41.632 -17.094   3.339  1.00  0.00     0.020 A 
HETATM   10  C   UNL     1      40.713 -16.645   2.464  1.00  0.00     0.026 A 
HETATM   11  C   UNL     1      43.333 -17.154   1.575  1.00  0.00     0.247 A 
HETATM   12  O   UNL     1      44.476 -17.341   1.171  1.00  0.00    -0.268 OA
HETATM   13  C   UNL     1      42.296 -16.650   0.643  1.00  0.00     0.074 A 
HETATM   14  C   UNL     1      41.055 -16.418   1.085  1.00  0.00     0.007 A 
HETATM   15  C   UNL     1      43.888 -16.787   6.059  1.00  0.00     0.241 C 
ENDROOT
BRANCH   1  16
HETATM   16  C   UNL     1      43.511 -14.653   4.734  1.00  0.00     0.276 C 
BRANCH  16  17
HETATM   17  C   UNL     1      42.568 -13.533   4.392  1.00  0.00     0.005 A 
HETATM   18  C   UNL     1      42.134 -12.625   5.362  1.00  0.00     0.107 A 
HETATM   19  C   UNL     1      41.281 -11.554   5.057  1.00  0.00     0.103 A 
HETATM   20  C   UNL     1      40.849 -11.391   3.744  1.00  0.00     0.058 A 
HETATM   21  C   UNL     1      41.275 -12.288   2.762  1.00  0.00     0.014 A 
HETATM   22  C   UNL     1      42.132 -13.348   3.074  1.00  0.00     0.030 A 
HETATM   23 BR   UNL     1      40.684 -12.073   0.979  1.00  0.00    -0.051 Br
BRANCH  18  24
HETATM   24  O   UNL     1      42.542 -12.811   6.664  1.00  0.00    -0.357 OA
HETATM   25  H   UNL     1      42.405 -11.931   7.087  1.00  0.00     0.218 HD
ENDBRANCH  18  24
BRANCH  19  26
HETATM   26  O   UNL     1      40.949 -10.769   6.128  1.00  0.00    -0.353 OA
HETATM   27  C   UNL     1      41.421  -9.422   6.102  1.00  0.00     0.210 C 
ENDBRANCH  19  26
ENDBRANCH  16  17
ENDBRANCH   1  16
TORSDOF 4
ENDMDL
MODEL 6
REMARK VINA RESULT:      -6.9      1.805      2.097
REMARK  4 active torsions:
REMARK  status: ('A' for Active; 'I' for Inactive)
REMARK    1  A    between atoms: O_2  and  C_3 
REMARK    2  A    between atoms: C_4  and  O_5 
REMARK    3  A    between atoms: C_6  and  C_7 
REMARK    4  A    between atoms: C_7  and  N_8 
ROOT
HETATM    1  N   UNL     1      41.753 -15.677   1.343  1.00  0.00    -0.066 N 
HETATM    2  H   UNL     1      42.170 -16.439   0.777  1.00  0.00     0.280 HD
HETATM    3  C   UNL     1      40.568 -16.331   2.022  1.00  0.00     0.246 C 
HETATM    4  C   UNL     1      39.491 -15.329   2.477  1.00  0.00     0.062 C 
HETATM    5  C   UNL     1      39.055 -14.476   1.292  1.00  0.00     0.020 C 
HETATM    6  C   UNL     1      40.264 -13.671   0.840  1.00  0.00     0.031 C 
HETATM    7  C   UNL     1      40.681 -12.717   1.963  1.00  0.00     0.138 C 
HETATM    8  N   UNL     1      40.618 -13.251   3.325  1.00  0.00    -0.317 N 
HETATM    9  C   UNL     1      39.985 -14.463   3.617  1.00  0.00     0.020 A 
HETATM   10  C   UNL     1      39.844 -14.852   4.897  1.00  0.00     0.026 A 
HETATM   11  C   UNL     1      41.131 -12.415   4.329  1.00  0.00     0.247 A 
HETATM   12  O   UNL     1      41.721 -11.365   4.104  1.00  0.00    -0.268 OA
HETATM   13  C   UNL     1      40.963 -12.882   5.726  1.00  0.00     0.074 A 
HETATM   14  C   UNL     1      40.345 -14.041   5.975  1.00  0.00     0.007 A 
HETATM   15  C   UNL     1      41.392 -14.596   0.363  1.00  0.00     0.241 C 
ENDROOT
BRANCH   1  16
HETATM   16  C   UNL     1      42.940 -15.346   2.230  1.00  0.00     0.276 C 
BRANCH  16  17
HETATM   17  C   UNL     1      43.252 -16.393   3.264  1.00  0.00     0.005 A 
HETATM   18  C   UNL     1      43.668 -17.677   2.897  1.00  0.00     0.107 A 
HETATM   19  C   UNL     1      43.994 -18.657   3.846  1.00  0.00     0.103 A 
HETATM   20  C   UNL     1      43.897 -18.344   5.199  1.00  0.00     0.058 A 
HETATM   21  C   UNL     1      43.484 -17.065   5.582  1.00  0.00     0.014 A 
HETATM   22  C   UNL     1      43.169 -16.092   4.629  1.00  0.00     0.030 A 
HETATM   23 BR   UNL     1      43.345 -16.639   7.419  1.00  0.00    -0.051 Br
BRANCH  18  24
HETATM   24  O   UNL     1      43.733 -17.988   1.558  1.00  0.00    -0.357 OA
HETATM   25  H   UNL     1      43.029 -18.667   1.435  1.00  0.00     0.218 HD
ENDBRANCH  18  24
BRANCH  19  26
HETATM   26  O   UNL     1      44.374 -19.859   3.313  1.00  0.00    -0.353 OA
HETATM   27  C   UNL     1      45.007 -20.779   4.201  1.00  0.00     0.210 C 
ENDBRANCH  19  26
ENDBRANCH  16  17
ENDBRANCH   1  16
TORSDOF 4
ENDMDL
MODEL 7
REMARK VINA RESULT:      -6.8      3.422      6.449
REMARK  4 active torsions:
REMARK  status: ('A' for Active; 'I' for Inactive)
REMARK    1  A    between atoms: O_2  and  C_3 
REMARK    2  A    between atoms: C_4  and  O_5 
REMARK    3  A    between atoms: C_6  and  C_7 
REMARK    4  A    between atoms: C_7  and  N_8 
ROOT
HETATM    1  N   UNL     1      40.793 -16.417   1.149  1.00  0.00    -0.066 N 
HETATM    2  H   UNL     1      40.161 -16.255   0.343  1.00  0.00     0.280 HD
HETATM    3  C   UNL     1      41.920 -15.429   0.933  1.00  0.00     0.246 C 
HETATM    4  C   UNL     1      43.222 -15.815   1.658  1.00  0.00     0.062 C 
HETATM    5  C   UNL     1      43.631 -17.227   1.256  1.00  0.00     0.020 C 
HETATM    6  C   UNL     1      42.543 -18.174   1.739  1.00  0.00     0.031 C 
HETATM    7  C   UNL     1      42.484 -18.132   3.269  1.00  0.00     0.138 C 
HETATM    8  N   UNL     1      42.646 -16.815   3.888  1.00  0.00    -0.317 N 
HETATM    9  C   UNL     1      43.075 -15.701   3.161  1.00  0.00     0.020 A 
HETATM   10  C   UNL     1      43.329 -14.544   3.798  1.00  0.00     0.026 A 
HETATM   11  C   UNL     1      42.455 -16.770   5.278  1.00  0.00     0.247 A 
HETATM   12  O   UNL     1      42.046 -17.719   5.940  1.00  0.00    -0.268 OA
HETATM   13  C   UNL     1      42.736 -15.475   5.943  1.00  0.00     0.074 A 
HETATM   14  C   UNL     1      43.154 -14.430   5.222  1.00  0.00     0.007 A 
HETATM   15  C   UNL     1      41.202 -17.861   1.060  1.00  0.00     0.241 C 
ENDROOT
BRANCH   1  16
HETATM   16  C   UNL     1      39.834 -16.107   2.285  1.00  0.00     0.276 C 
BRANCH  16  17
HETATM   17  C   UNL     1      39.496 -14.649   2.430  1.00  0.00     0.005 A 
HETATM   18  C   UNL     1      38.827 -13.953   1.419  1.00  0.00     0.107 A 
HETATM   19  C   UNL     1      38.474 -12.602   1.548  1.00  0.00     0.103 A 
HETATM   20  C   UNL     1      38.805 -11.928   2.721  1.00  0.00     0.058 A 
HETATM   21  C   UNL     1      39.473 -12.609   3.741  1.00  0.00     0.014 A 
HETATM   22  C   UNL     1      39.813 -13.959   3.607  1.00  0.00     0.030 A 
HETATM   23 BR   UNL     1      39.930 -11.696   5.332  1.00  0.00    -0.051 Br
BRANCH  18  24
HETATM   24  O   UNL     1      38.529 -14.618   0.251  1.00  0.00    -0.357 OA
HETATM   25  H   UNL     1      39.312 -15.198   0.099  1.00  0.00     0.218 HD
ENDBRANCH  18  24
BRANCH  19  26
HETATM   26  O   UNL     1      37.830 -12.076   0.461  1.00  0.00    -0.353 OA
HETATM   27  C   UNL     1      36.493 -11.622   0.668  1.00  0.00     0.210 C 
ENDBRANCH  19  26
ENDBRANCH  16  17
ENDBRANCH   1  16
TORSDOF 4
ENDMDL
MODEL 8
REMARK VINA RESULT:      -6.7      3.620      5.404
REMARK  4 active torsions:
REMARK  status: ('A' for Active; 'I' for Inactive)
REMARK    1  A    between atoms: O_2  and  C_3 
REMARK    2  A    between atoms: C_4  and  O_5 
REMARK    3  A    between atoms: C_6  and  C_7 
REMARK    4  A    between atoms: C_7  and  N_8 
ROOT
HETATM    1  N   UNL     1      40.933 -12.712   3.342  1.00  0.00    -0.066 N 
HETATM    2  H   UNL     1      40.522 -12.278   2.495  1.00  0.00     0.280 HD
HETATM    3  C   UNL     1      39.921 -13.766   3.740  1.00  0.00     0.246 C 
HETATM    4  C   UNL     1      40.012 -14.176   5.222  1.00  0.00     0.062 C 
HETATM    5  C   UNL     1      39.903 -12.937   6.101  1.00  0.00     0.020 C 
HETATM    6  C   UNL     1      41.106 -12.055   5.798  1.00  0.00     0.031 C 
HETATM    7  C   UNL     1      42.385 -12.794   6.202  1.00  0.00     0.138 C 
HETATM    8  N   UNL     1      42.427 -14.227   5.906  1.00  0.00    -0.317 N 
HETATM    9  C   UNL     1      41.290 -14.936   5.510  1.00  0.00     0.020 A 
HETATM   10  C   UNL     1      41.350 -16.272   5.369  1.00  0.00     0.026 A 
HETATM   11  C   UNL     1      43.653 -14.862   6.156  1.00  0.00     0.247 A 
HETATM   12  O   UNL     1      44.677 -14.266   6.470  1.00  0.00    -0.268 OA
HETATM   13  C   UNL     1      43.683 -16.335   5.982  1.00  0.00     0.074 A 
HETATM   14  C   UNL     1      42.576 -16.986   5.611  1.00  0.00     0.007 A 
HETATM   15  C   UNL     1      41.093 -11.595   4.334  1.00  0.00     0.241 C 
ENDROOT
BRANCH   1  16
HETATM   16  C   UNL     1      42.238 -13.219   2.754  1.00  0.00     0.276 C 
BRANCH  16  17
HETATM   17  C   UNL     1      42.085 -14.394   1.828  1.00  0.00     0.005 A 
HETATM   18  C   UNL     1      41.365 -14.290   0.634  1.00  0.00     0.107 A 
HETATM   19  C   UNL     1      41.238 -15.364  -0.259  1.00  0.00     0.103 A 
HETATM   20  C   UNL     1      41.846 -16.576   0.054  1.00  0.00     0.058 A 
HETATM   21  C   UNL     1      42.570 -16.696   1.243  1.00  0.00     0.014 A 
HETATM   22  C   UNL     1      42.698 -15.618   2.124  1.00  0.00     0.030 A 
HETATM   23 BR   UNL     1      43.391 -18.344   1.675  1.00  0.00    -0.051 Br
BRANCH  18  24
HETATM   24  O   UNL     1      40.743 -13.096   0.345  1.00  0.00    -0.357 OA
HETATM   25  H   UNL     1      40.261 -13.274  -0.497  1.00  0.00     0.218 HD
ENDBRANCH  18  24
BRANCH  19  26
HETATM   26  O   UNL     1      40.494 -15.090  -1.375  1.00  0.00    -0.353 OA
HETATM   27  C   UNL     1      41.040 -15.507  -2.625  1.00  0.00     0.210 C 
ENDBRANCH  19  26
ENDBRANCH  16  17
ENDBRANCH   1  16
TORSDOF 4
ENDMDL
MODEL 9
REMARK VINA RESULT:      -6.7      2.809      4.543
REMARK  4 active torsions:
REMARK  status: ('A' for Active; 'I' for Inactive)
REMARK    1  A    between atoms: O_2  and  C_3 
REMARK    2  A    between atoms: C_4  and  O_5 
REMARK    3  A    between atoms: C_6  and  C_7 
REMARK    4  A    between atoms: C_7  and  N_8 
ROOT
HETATM    1  N   UNL     1      41.773 -14.260   3.661  1.00  0.00    -0.066 N 
HETATM    2  H   UNL     1      42.144 -14.413   4.617  1.00  0.00     0.280 HD
HETATM    3  C   UNL     1      41.740 -12.752   3.518  1.00  0.00     0.246 C 
HETATM    4  C   UNL     1      40.757 -12.259   2.441  1.00  0.00     0.062 C 
HETATM    5  C   UNL     1      39.370 -12.824   2.719  1.00  0.00     0.020 C 
HETATM    6  C   UNL     1      39.460 -14.338   2.595  1.00  0.00     0.031 C 
HETATM    7  C   UNL     1      39.822 -14.703   1.152  1.00  0.00     0.138 C 
HETATM    8  N   UNL     1      40.814 -13.847   0.497  1.00  0.00    -0.317 N 
HETATM    9  C   UNL     1      41.225 -12.631   1.050  1.00  0.00     0.020 A 
HETATM   10  C   UNL     1      42.044 -11.822   0.353  1.00  0.00     0.026 A 
HETATM   11  C   UNL     1      41.237 -14.271  -0.772  1.00  0.00     0.247 A 
HETATM   12  O   UNL     1      40.924 -15.347  -1.270  1.00  0.00    -0.268 OA
HETATM   13  C   UNL     1      42.145 -13.357  -1.506  1.00  0.00     0.074 A 
HETATM   14  C   UNL     1      42.514 -12.196  -0.955  1.00  0.00     0.007 A 
HETATM   15  C   UNL     1      40.422 -14.918   3.640  1.00  0.00     0.241 C 
ENDROOT
BRANCH   1  16
HETATM   16  C   UNL     1      42.837 -14.990   2.860  1.00  0.00     0.276 C 
BRANCH  16  17
HETATM   17  C   UNL     1      43.219 -16.333   3.418  1.00  0.00     0.005 A 
HETATM   18  C   UNL     1      43.528 -16.499   4.771  1.00  0.00     0.107 A 
HETATM   19  C   UNL     1      43.854 -17.748   5.317  1.00  0.00     0.103 A 
HETATM   20  C   UNL     1      43.875 -18.863   4.484  1.00  0.00     0.058 A 
HETATM   21  C   UNL     1      43.568 -18.715   3.129  1.00  0.00     0.014 A 
HETATM   22  C   UNL     1      43.236 -17.466   2.595  1.00  0.00     0.030 A 
HETATM   23 BR   UNL     1      43.602 -20.226   1.992  1.00  0.00    -0.051 Br
BRANCH  18  24
HETATM   24  O   UNL     1      43.533 -15.386   5.583  1.00  0.00    -0.357 OA
HETATM   25  H   UNL     1      42.797 -15.549   6.218  1.00  0.00     0.218 HD
ENDBRANCH  18  24
BRANCH  19  26
HETATM   26  O   UNL     1      44.136 -17.727   6.657  1.00  0.00    -0.353 OA
HETATM   27  C   UNL     1      43.922 -18.943   7.373  1.00  0.00     0.210 C 
ENDBRANCH  19  26
ENDBRANCH  16  17
ENDBRANCH   1  16
TORSDOF 4
ENDMDL
MODEL 10
REMARK VINA RESULT:      -6.6      3.541      7.208
REMARK  4 active torsions:
REMARK  status: ('A' for Active; 'I' for Inactive)
REMARK    1  A    between atoms: O_2  and  C_3 
REMARK    2  A    between atoms: C_4  and  O_5 
REMARK    3  A    between atoms: C_6  and  C_7 
REMARK    4  A    between atoms: C_7  and  N_8 
ROOT
HETATM    1  N   UNL     1      41.491 -12.886   2.974  1.00  0.00    -0.066 N 
HETATM    2  H   UNL     1      41.399 -11.878   2.750  1.00  0.00     0.280 HD
HETATM    3  C   UNL     1      40.098 -13.438   2.756  1.00  0.00     0.246 C 
HETATM    4  C   UNL     1      39.834 -14.753   3.513  1.00  0.00     0.062 C 
HETATM    5  C   UNL     1      40.132 -14.557   4.994  1.00  0.00     0.020 C 
HETATM    6  C   UNL     1      41.616 -14.248   5.124  1.00  0.00     0.031 C 
HETATM    7  C   UNL     1      42.425 -15.458   4.649  1.00  0.00     0.138 C 
HETATM    8  N   UNL     1      41.917 -16.153   3.465  1.00  0.00    -0.317 N 
HETATM    9  C   UNL     1      40.647 -15.895   2.942  1.00  0.00     0.020 A 
HETATM   10  C   UNL     1      40.175 -16.646   1.930  1.00  0.00     0.026 A 
HETATM   11  C   UNL     1      42.739 -17.174   2.961  1.00  0.00     0.247 A 
HETATM   12  O   UNL     1      43.870 -17.402   3.374  1.00  0.00    -0.268 OA
HETATM   13  C   UNL     1      42.188 -17.974   1.841  1.00  0.00     0.074 A 
HETATM   14  C   UNL     1      40.966 -17.709   1.368  1.00  0.00     0.007 A 
HETATM   15  C   UNL     1      41.970 -12.943   4.397  1.00  0.00     0.241 C 
ENDROOT
BRANCH   1  16
HETATM   16  C   UNL     1      42.539 -13.275   1.945  1.00  0.00     0.276 C 
BRANCH  16  17
HETATM   17  C   UNL     1      42.106 -13.083   0.518  1.00  0.00     0.005 A 
HETATM   18  C   UNL     1      42.105 -11.819  -0.079  1.00  0.00     0.107 A 
HETATM   19  C   UNL     1      41.736 -11.623  -1.418  1.00  0.00     0.103 A 
HETATM   20  C   UNL     1      41.354 -12.724  -2.179  1.00  0.00     0.058 A 
HETATM   21  C   UNL     1      41.351 -13.995  -1.598  1.00  0.00     0.014 A 
HETATM   22  C   UNL     1      41.728 -14.181  -0.265  1.00  0.00     0.030 A 
HETATM   23 BR   UNL     1      40.827 -15.492  -2.628  1.00  0.00    -0.051 Br
BRANCH  18  24
HETATM   24  O   UNL     1      42.456 -10.731   0.689  1.00  0.00    -0.357 OA
HETATM   25  H   UNL     1      41.650 -10.548   1.228  1.00  0.00     0.218 HD
ENDBRANCH  18  24
BRANCH  19  26
HETATM   26  O   UNL     1      41.785 -10.321  -1.836  1.00  0.00    -0.353 OA
HETATM   27  C   UNL     1      42.832  -9.981  -2.744  1.00  0.00     0.210 C 
ENDBRANCH  19  26
ENDBRANCH  16  17
ENDBRANCH   1  16
TORSDOF 4
ENDMDL
