MODEL 1
REMARK VINA RESULT:      -8.3      0.000      0.000
REMARK  7 active torsions:
REMARK  status: ('A' for Active; 'I' for Inactive)
REMARK    1  A    between atoms: C_10  and  C_11 
REMARK       I    between atoms: C_11  and  N_12 
REMARK    2  A    between atoms: N_12  and  C_13 
REMARK    3  A    between atoms: C_13  and  C_14 
REMARK    4  A    between atoms: C_14  and  O_15 
REMARK    5  A    between atoms: C_14  and  C_16 
REMARK    6  A    between atoms: C_16  and  O_17 
REMARK    7  A    between atoms: O_17  and  C_18 
ROOT
HETATM    1  C   UNL     1      45.128 -12.844   8.293  1.00  0.00     0.257 C 
HETATM    2  N   UNL     1      44.256 -13.836   7.918  1.00  0.00    -0.354 N 
HETATM    3  O   UNL     1      46.249 -12.727   7.806  1.00  0.00    -0.267 OA
HETATM    4  H   UNL     1      43.399 -13.939   8.460  1.00  0.00     0.162 HD
ENDROOT
BRANCH   2   5
HETATM    5  C   UNL     1      44.576 -14.865   6.950  1.00  0.00     0.156 C 
BRANCH   5   6
HETATM    6  C   UNL     1      43.692 -16.114   7.060  1.00  0.00     0.160 C 
BRANCH   6   7
HETATM    7  O   UNL     1      43.543 -16.478   8.442  1.00  0.00    -0.392 OA
HETATM    8  H   UNL     1      42.643 -16.198   8.694  1.00  0.00     0.210 HD
ENDBRANCH   6   7
BRANCH   6   9
HETATM    9  C   UNL     1      44.222 -17.305   6.252  1.00  0.00     0.209 C 
BRANCH   9  10
HETATM   10  O   UNL     1      43.784 -17.126   4.896  1.00  0.00    -0.349 OA
BRANCH  10  11
HETATM   11  C   UNL     1      43.878 -18.213   4.071  1.00  0.00     0.069 A 
HETATM   12  C   UNL     1      44.536 -19.313   4.627  1.00  0.00     0.038 A 
HETATM   13  C   UNL     1      44.696 -20.492   3.897  1.00  0.00     0.026 A 
HETATM   14  C   UNL     1      44.185 -20.574   2.604  1.00  0.00     0.034 A 
HETATM   15 CL   UNL     1      44.372 -22.025   1.699  1.00  0.00    -0.084 Cl
HETATM   16  C   UNL     1      43.521 -19.486   2.041  1.00  0.00     0.026 A 
HETATM   17  C   UNL     1      43.368 -18.303   2.774  1.00  0.00     0.038 A 
ENDBRANCH  10  11
ENDBRANCH   9  10
ENDBRANCH   6   9
ENDBRANCH   5   6
ENDBRANCH   2   5
BRANCH   1  18
HETATM   18  C   UNL     1      44.640 -11.955   9.328  1.00  0.00     0.098 A 
HETATM   19  C   UNL     1      43.553 -11.098   9.291  1.00  0.00     0.167 A 
HETATM   20  N   UNL     1      43.514 -10.461  10.536  1.00  0.00    -0.226 N 
HETATM   21  N   UNL     1      42.629 -10.830   8.311  1.00  0.00    -0.240 NA
HETATM   22  C   UNL     1      42.531  -9.519  10.820  1.00  0.00     0.128 A 
HETATM   23  N   UNL     1      44.512 -10.879  11.349  1.00  0.00    -0.178 NA
HETATM   24  C   UNL     1      41.600  -9.205   9.904  1.00  0.00    -0.027 A 
HETATM   25  C   UNL     1      40.499  -8.219  10.065  1.00  0.00     0.051 C 
HETATM   26  C   UNL     1      41.724  -9.945   8.611  1.00  0.00     0.127 A 
HETATM   27  C   UNL     1      45.181 -11.772  10.616  1.00  0.00     0.160 A 
ENDBRANCH   1  18
TORSDOF 7
ENDMDL
MODEL 2
REMARK VINA RESULT:      -8.3      4.131      5.978
REMARK  7 active torsions:
REMARK  status: ('A' for Active; 'I' for Inactive)
REMARK    1  A    between atoms: C_10  and  C_11 
REMARK       I    between atoms: C_11  and  N_12 
REMARK    2  A    between atoms: N_12  and  C_13 
REMARK    3  A    between atoms: C_13  and  C_14 
REMARK    4  A    between atoms: C_14  and  O_15 
REMARK    5  A    between atoms: C_14  and  C_16 
REMARK    6  A    between atoms: C_16  and  O_17 
REMARK    7  A    between atoms: O_17  and  C_18 
ROOT
HETATM    1  C   UNL     1      43.556 -14.408   5.784  1.00  0.00     0.257 C 
HETATM    2  N   UNL     1      43.628 -15.772   5.918  1.00  0.00    -0.354 N 
HETATM    3  O   UNL     1      44.047 -13.634   6.601  1.00  0.00    -0.267 OA
HETATM    4  H   UNL     1      43.087 -16.338   5.267  1.00  0.00     0.162 HD
ENDROOT
BRANCH   2   5
HETATM    5  C   UNL     1      44.247 -16.438   7.047  1.00  0.00     0.156 C 
BRANCH   5   6
HETATM    6  C   UNL     1      43.330 -17.451   7.745  1.00  0.00     0.160 C 
BRANCH   6   7
HETATM    7  O   UNL     1      43.558 -17.410   9.163  1.00  0.00    -0.392 OA
HETATM    8  H   UNL     1      43.342 -18.304   9.491  1.00  0.00     0.210 HD
ENDBRANCH   6   7
BRANCH   6   9
HETATM    9  C   UNL     1      43.501 -18.883   7.222  1.00  0.00     0.209 C 
BRANCH   9  10
HETATM   10  O   UNL     1      44.622 -18.875   6.324  1.00  0.00    -0.349 OA
BRANCH  10  11
HETATM   11  C   UNL     1      44.538 -19.690   5.228  1.00  0.00     0.069 A 
HETATM   12  C   UNL     1      44.171 -19.043   4.045  1.00  0.00     0.038 A 
HETATM   13  C   UNL     1      44.055 -19.754   2.850  1.00  0.00     0.026 A 
HETATM   14  C   UNL     1      44.316 -21.122   2.836  1.00  0.00     0.034 A 
HETATM   15 CL   UNL     1      44.182 -22.005   1.366  1.00  0.00    -0.084 Cl
HETATM   16  C   UNL     1      44.690 -21.777   4.008  1.00  0.00     0.026 A 
HETATM   17  C   UNL     1      44.799 -21.062   5.206  1.00  0.00     0.038 A 
ENDBRANCH  10  11
ENDBRANCH   9  10
ENDBRANCH   6   9
ENDBRANCH   5   6
ENDBRANCH   2   5
BRANCH   1  18
HETATM   18  C   UNL     1      42.834 -13.942   4.617  1.00  0.00     0.098 A 
HETATM   19  C   UNL     1      42.586 -14.609   3.430  1.00  0.00     0.167 A 
HETATM   20  N   UNL     1      41.856 -13.724   2.628  1.00  0.00    -0.226 N 
HETATM   21  N   UNL     1      42.924 -15.867   2.996  1.00  0.00    -0.240 NA
HETATM   22  C   UNL     1      41.454 -14.093   1.349  1.00  0.00     0.128 A 
HETATM   23  N   UNL     1      41.630 -12.545   3.255  1.00  0.00    -0.178 NA
HETATM   24  C   UNL     1      41.756 -15.307   0.861  1.00  0.00    -0.027 A 
HETATM   25  C   UNL     1      41.398 -15.833  -0.482  1.00  0.00     0.051 C 
HETATM   26  C   UNL     1      42.530 -16.179   1.797  1.00  0.00     0.127 A 
HETATM   27  C   UNL     1      42.220 -12.685   4.443  1.00  0.00     0.160 A 
ENDBRANCH   1  18
TORSDOF 7
ENDMDL
MODEL 3
REMARK VINA RESULT:      -8.2      1.829      2.135
REMARK  7 active torsions:
REMARK  status: ('A' for Active; 'I' for Inactive)
REMARK    1  A    between atoms: C_10  and  C_11 
REMARK       I    between atoms: C_11  and  N_12 
REMARK    2  A    between atoms: N_12  and  C_13 
REMARK    3  A    between atoms: C_13  and  C_14 
REMARK    4  A    between atoms: C_14  and  O_15 
REMARK    5  A    between atoms: C_14  and  C_16 
REMARK    6  A    between atoms: C_16  and  O_17 
REMARK    7  A    between atoms: O_17  and  C_18 
ROOT
HETATM    1  C   UNL     1      45.102 -13.645   7.153  1.00  0.00     0.257 C 
HETATM    2  N   UNL     1      44.216 -14.539   7.701  1.00  0.00    -0.354 N 
HETATM    3  O   UNL     1      45.522 -13.747   6.003  1.00  0.00    -0.267 OA
HETATM    4  H   UNL     1      44.018 -14.455   8.697  1.00  0.00     0.162 HD
ENDROOT
BRANCH   2   5
HETATM    5  C   UNL     1      43.718 -15.708   7.004  1.00  0.00     0.156 C 
BRANCH   5   6
HETATM    6  C   UNL     1      42.657 -15.389   5.943  1.00  0.00     0.160 C 
BRANCH   6   7
HETATM    7  O   UNL     1      41.349 -15.465   6.533  1.00  0.00    -0.392 OA
HETATM    8  H   UNL     1      40.733 -15.129   5.854  1.00  0.00     0.210 HD
ENDBRANCH   6   7
BRANCH   6   9
HETATM    9  C   UNL     1      42.737 -16.301   4.712  1.00  0.00     0.209 C 
BRANCH   9  10
HETATM   10  O   UNL     1      43.766 -17.270   4.970  1.00  0.00    -0.349 OA
BRANCH  10  11
HETATM   11  C   UNL     1      43.860 -18.315   4.092  1.00  0.00     0.069 A 
HETATM   12  C   UNL     1      44.493 -19.451   4.603  1.00  0.00     0.038 A 
HETATM   13  C   UNL     1      44.650 -20.594   3.816  1.00  0.00     0.026 A 
HETATM   14  C   UNL     1      44.162 -20.603   2.512  1.00  0.00     0.034 A 
HETATM   15 CL   UNL     1      44.346 -22.008   1.537  1.00  0.00    -0.084 Cl
HETATM   16  C   UNL     1      43.524 -19.478   1.993  1.00  0.00     0.026 A 
HETATM   17  C   UNL     1      43.374 -18.332   2.783  1.00  0.00     0.038 A 
ENDBRANCH  10  11
ENDBRANCH   9  10
ENDBRANCH   6   9
ENDBRANCH   5   6
ENDBRANCH   2   5
BRANCH   1  18
HETATM   18  C   UNL     1      45.531 -12.582   8.039  1.00  0.00     0.098 A 
HETATM   19  C   UNL     1      44.886 -12.070   9.152  1.00  0.00     0.167 A 
HETATM   20  N   UNL     1      45.711 -11.056   9.651  1.00  0.00    -0.226 N 
HETATM   21  N   UNL     1      43.692 -12.392   9.749  1.00  0.00    -0.240 NA
HETATM   22  C   UNL     1      45.337 -10.328  10.776  1.00  0.00     0.128 A 
HETATM   23  N   UNL     1      46.837 -10.913   8.914  1.00  0.00    -0.178 NA
HETATM   24  C   UNL     1      44.179 -10.586  11.405  1.00  0.00    -0.027 A 
HETATM   25  C   UNL     1      43.652  -9.890  12.607  1.00  0.00     0.051 C 
HETATM   26  C   UNL     1      43.375 -11.692  10.799  1.00  0.00     0.127 A 
HETATM   27  C   UNL     1      46.719 -11.829   7.951  1.00  0.00     0.160 A 
ENDBRANCH   1  18
TORSDOF 7
ENDMDL
MODEL 4
REMARK VINA RESULT:      -8.2      4.820      6.258
REMARK  7 active torsions:
REMARK  status: ('A' for Active; 'I' for Inactive)
REMARK    1  A    between atoms: C_10  and  C_11 
REMARK       I    between atoms: C_11  and  N_12 
REMARK    2  A    between atoms: N_12  and  C_13 
REMARK    3  A    between atoms: C_13  and  C_14 
REMARK    4  A    between atoms: C_14  and  O_15 
REMARK    5  A    between atoms: C_14  and  C_16 
REMARK    6  A    between atoms: C_16  and  O_17 
REMARK    7  A    between atoms: O_17  and  C_18 
ROOT
HETATM    1  C   UNL     1      42.353 -15.528   4.609  1.00  0.00     0.257 C 
HETATM    2  N   UNL     1      42.212 -16.342   5.705  1.00  0.00    -0.354 N 
HETATM    3  O   UNL     1      43.269 -14.717   4.498  1.00  0.00    -0.267 OA
HETATM    4  H   UNL     1      41.357 -16.892   5.776  1.00  0.00     0.162 HD
ENDROOT
BRANCH   2   5
HETATM    5  C   UNL     1      43.094 -16.304   6.855  1.00  0.00     0.156 C 
BRANCH   5   6
HETATM    6  C   UNL     1      42.952 -17.518   7.782  1.00  0.00     0.160 C 
BRANCH   6   7
HETATM    7  O   UNL     1      43.536 -17.218   9.060  1.00  0.00    -0.392 OA
HETATM    8  H   UNL     1      44.065 -16.408   8.926  1.00  0.00     0.210 HD
ENDBRANCH   6   7
BRANCH   6   9
HETATM    9  C   UNL     1      43.570 -18.797   7.204  1.00  0.00     0.209 C 
BRANCH   9  10
HETATM   10  O   UNL     1      44.444 -18.400   6.135  1.00  0.00    -0.349 OA
BRANCH  10  11
HETATM   11  C   UNL     1      44.394 -19.148   4.991  1.00  0.00     0.069 A 
HETATM   12  C   UNL     1      44.746 -20.491   5.156  1.00  0.00     0.038 A 
HETATM   13  C   UNL     1      44.731 -21.370   4.070  1.00  0.00     0.026 A 
HETATM   14  C   UNL     1      44.354 -20.904   2.814  1.00  0.00     0.034 A 
HETATM   15 CL   UNL     1      44.327 -21.981   1.473  1.00  0.00    -0.084 Cl
HETATM   16  C   UNL     1      43.995 -19.568   2.639  1.00  0.00     0.026 A 
HETATM   17  C   UNL     1      44.017 -18.689   3.727  1.00  0.00     0.038 A 
ENDBRANCH  10  11
ENDBRANCH   9  10
ENDBRANCH   6   9
ENDBRANCH   5   6
ENDBRANCH   2   5
BRANCH   1  18
HETATM   18  C   UNL     1      41.325 -15.674   3.598  1.00  0.00     0.098 A 
HETATM   19  C   UNL     1      40.468 -14.713   3.091  1.00  0.00     0.167 A 
HETATM   20  N   UNL     1      39.667 -15.362   2.144  1.00  0.00    -0.226 N 
HETATM   21  N   UNL     1      40.323 -13.375   3.366  1.00  0.00    -0.240 NA
HETATM   22  C   UNL     1      38.682 -14.666   1.451  1.00  0.00     0.128 A 
HETATM   23  N   UNL     1      39.984 -16.673   2.029  1.00  0.00    -0.178 NA
HETATM   24  C   UNL     1      38.483 -13.357   1.676  1.00  0.00    -0.027 A 
HETATM   25  C   UNL     1      37.471 -12.491   1.018  1.00  0.00     0.051 C 
HETATM   26  C   UNL     1      39.394 -12.756   2.699  1.00  0.00     0.127 A 
HETATM   27  C   UNL     1      40.976 -16.850   2.904  1.00  0.00     0.160 A 
ENDBRANCH   1  18
TORSDOF 7
ENDMDL
MODEL 5
REMARK VINA RESULT:      -8.2      1.411      2.444
REMARK  7 active torsions:
REMARK  status: ('A' for Active; 'I' for Inactive)
REMARK    1  A    between atoms: C_10  and  C_11 
REMARK       I    between atoms: C_11  and  N_12 
REMARK    2  A    between atoms: N_12  and  C_13 
REMARK    3  A    between atoms: C_13  and  C_14 
REMARK    4  A    between atoms: C_14  and  O_15 
REMARK    5  A    between atoms: C_14  and  C_16 
REMARK    6  A    between atoms: C_16  and  O_17 
REMARK    7  A    between atoms: O_17  and  C_18 
ROOT
HETATM    1  C   UNL     1      44.417 -13.872   7.436  1.00  0.00     0.257 C 
HETATM    2  N   UNL     1      43.618 -14.987   7.496  1.00  0.00    -0.354 N 
HETATM    3  O   UNL     1      45.558 -13.896   6.981  1.00  0.00    -0.267 OA
HETATM    4  H   UNL     1      42.738 -14.908   8.003  1.00  0.00     0.162 HD
ENDROOT
BRANCH   2   5
HETATM    5  C   UNL     1      44.045 -16.305   7.073  1.00  0.00     0.156 C 
BRANCH   5   6
HETATM    6  C   UNL     1      43.330 -17.449   7.803  1.00  0.00     0.160 C 
BRANCH   6   7
HETATM    7  O   UNL     1      43.611 -17.373   9.210  1.00  0.00    -0.392 OA
HETATM    8  H   UNL     1      43.947 -18.254   9.461  1.00  0.00     0.210 HD
ENDBRANCH   6   7
BRANCH   6   9
HETATM    9  C   UNL     1      43.698 -18.837   7.264  1.00  0.00     0.209 C 
BRANCH   9  10
HETATM   10  O   UNL     1      44.647 -18.641   6.204  1.00  0.00    -0.349 OA
BRANCH  10  11
HETATM   11  C   UNL     1      44.554 -19.485   5.131  1.00  0.00     0.069 A 
HETATM   12  C   UNL     1      44.098 -18.884   3.954  1.00  0.00     0.038 A 
HETATM   13  C   UNL     1      43.962 -19.628   2.780  1.00  0.00     0.026 A 
HETATM   14  C   UNL     1      44.293 -20.980   2.782  1.00  0.00     0.034 A 
HETATM   15 CL   UNL     1      44.134 -21.903   1.339  1.00  0.00    -0.084 Cl
HETATM   16  C   UNL     1      44.754 -21.589   3.948  1.00  0.00     0.026 A 
HETATM   17  C   UNL     1      44.883 -20.842   5.124  1.00  0.00     0.038 A 
ENDBRANCH  10  11
ENDBRANCH   9  10
ENDBRANCH   6   9
ENDBRANCH   5   6
ENDBRANCH   2   5
BRANCH   1  18
HETATM   18  C   UNL     1      43.827 -12.662   7.973  1.00  0.00     0.098 A 
HETATM   19  C   UNL     1      43.936 -12.140   9.251  1.00  0.00     0.167 A 
HETATM   20  N   UNL     1      43.176 -10.965   9.260  1.00  0.00    -0.226 N 
HETATM   21  N   UNL     1      44.609 -12.575  10.366  1.00  0.00    -0.240 NA
HETATM   22  C   UNL     1      43.071 -10.197  10.415  1.00  0.00     0.128 A 
HETATM   23  N   UNL     1      42.606 -10.723   8.056  1.00  0.00    -0.178 NA
HETATM   24  C   UNL     1      43.698 -10.569  11.542  1.00  0.00    -0.027 A 
HETATM   25  C   UNL     1      43.672  -9.854  12.846  1.00  0.00     0.051 C 
HETATM   26  C   UNL     1      44.489 -11.833  11.427  1.00  0.00     0.127 A 
HETATM   27  C   UNL     1      43.000 -11.745   7.294  1.00  0.00     0.160 A 
ENDBRANCH   1  18
TORSDOF 7
ENDMDL
MODEL 6
REMARK VINA RESULT:      -8.1      4.197      5.224
REMARK  7 active torsions:
REMARK  status: ('A' for Active; 'I' for Inactive)
REMARK    1  A    between atoms: C_10  and  C_11 
REMARK       I    between atoms: C_11  and  N_12 
REMARK    2  A    between atoms: N_12  and  C_13 
REMARK    3  A    between atoms: C_13  and  C_14 
REMARK    4  A    between atoms: C_14  and  O_15 
REMARK    5  A    between atoms: C_14  and  C_16 
REMARK    6  A    between atoms: C_16  and  O_17 
REMARK    7  A    between atoms: O_17  and  C_18 
ROOT
HETATM    1  C   UNL     1      41.398 -16.272   6.309  1.00  0.00     0.257 C 
HETATM    2  N   UNL     1      42.661 -16.071   6.809  1.00  0.00    -0.354 N 
HETATM    3  O   UNL     1      40.600 -17.053   6.818  1.00  0.00    -0.267 OA
HETATM    4  H   UNL     1      43.302 -15.504   6.255  1.00  0.00     0.162 HD
ENDROOT
BRANCH   2   5
HETATM    5  C   UNL     1      43.197 -16.784   7.952  1.00  0.00     0.156 C 
BRANCH   5   6
HETATM    6  C   UNL     1      43.760 -18.168   7.607  1.00  0.00     0.160 C 
BRANCH   6   7
HETATM    7  O   UNL     1      44.157 -18.840   8.814  1.00  0.00    -0.392 OA
HETATM    8  H   UNL     1      43.690 -19.697   8.806  1.00  0.00     0.210 HD
ENDBRANCH   6   7
BRANCH   6   9
HETATM    9  C   UNL     1      44.933 -18.117   6.619  1.00  0.00     0.209 C 
BRANCH   9  10
HETATM   10  O   UNL     1      44.379 -17.852   5.320  1.00  0.00    -0.349 OA
BRANCH  10  11
HETATM   11  C   UNL     1      44.344 -18.900   4.442  1.00  0.00     0.069 A 
HETATM   12  C   UNL     1      43.772 -18.603   3.201  1.00  0.00     0.038 A 
HETATM   13  C   UNL     1      43.679 -19.579   2.207  1.00  0.00     0.026 A 
HETATM   14  C   UNL     1      44.169 -20.859   2.454  1.00  0.00     0.034 A 
HETATM   15 CL   UNL     1      44.063 -22.067   1.233  1.00  0.00    -0.084 Cl
HETATM   16  C   UNL     1      44.747 -21.165   3.684  1.00  0.00     0.026 A 
HETATM   17  C   UNL     1      44.833 -20.186   4.681  1.00  0.00     0.038 A 
ENDBRANCH  10  11
ENDBRANCH   9  10
ENDBRANCH   6   9
ENDBRANCH   5   6
ENDBRANCH   2   5
BRANCH   1  18
HETATM   18  C   UNL     1      41.080 -15.511   5.118  1.00  0.00     0.098 A 
HETATM   19  C   UNL     1      40.398 -14.311   5.014  1.00  0.00     0.167 A 
HETATM   20  N   UNL     1      40.352 -14.003   3.649  1.00  0.00    -0.226 N 
HETATM   21  N   UNL     1      39.833 -13.492   5.960  1.00  0.00    -0.240 NA
HETATM   22  C   UNL     1      39.718 -12.849   3.204  1.00  0.00     0.128 A 
HETATM   23  N   UNL     1      40.975 -14.943   2.899  1.00  0.00    -0.178 NA
HETATM   24  C   UNL     1      39.140 -12.006   4.075  1.00  0.00    -0.027 A 
HETATM   25  C   UNL     1      38.425 -10.745   3.745  1.00  0.00     0.051 C 
HETATM   26  C   UNL     1      39.250 -12.420   5.508  1.00  0.00     0.127 A 
HETATM   27  C   UNL     1      41.405 -15.841   3.787  1.00  0.00     0.160 A 
ENDBRANCH   1  18
TORSDOF 7
ENDMDL
MODEL 7
REMARK VINA RESULT:      -8.0      4.382     10.063
REMARK  7 active torsions:
REMARK  status: ('A' for Active; 'I' for Inactive)
REMARK    1  A    between atoms: C_10  and  C_11 
REMARK       I    between atoms: C_11  and  N_12 
REMARK    2  A    between atoms: N_12  and  C_13 
REMARK    3  A    between atoms: C_13  and  C_14 
REMARK    4  A    between atoms: C_14  and  O_15 
REMARK    5  A    between atoms: C_14  and  C_16 
REMARK    6  A    between atoms: C_16  and  O_17 
REMARK    7  A    between atoms: O_17  and  C_18 
ROOT
HETATM    1  C   UNL     1      42.400 -16.262   5.188  1.00  0.00     0.257 C 
HETATM    2  N   UNL     1      43.023 -15.048   5.034  1.00  0.00    -0.354 N 
HETATM    3  O   UNL     1      41.932 -16.637   6.259  1.00  0.00    -0.267 OA
HETATM    4  H   UNL     1      43.494 -14.870   4.149  1.00  0.00     0.162 HD
ENDROOT
BRANCH   2   5
HETATM    5  C   UNL     1      43.229 -14.108   6.117  1.00  0.00     0.156 C 
BRANCH   5   6
HETATM    6  C   UNL     1      44.406 -14.468   7.032  1.00  0.00     0.160 C 
BRANCH   6   7
HETATM    7  O   UNL     1      43.957 -15.360   8.066  1.00  0.00    -0.392 OA
HETATM    8  H   UNL     1      43.520 -16.101   7.605  1.00  0.00     0.210 HD
ENDBRANCH   6   7
BRANCH   6   9
HETATM    9  C   UNL     1      45.092 -13.243   7.650  1.00  0.00     0.209 C 
BRANCH   9  10
HETATM   10  O   UNL     1      44.959 -13.359   9.076  1.00  0.00    -0.349 OA
BRANCH  10  11
HETATM   11  C   UNL     1      44.394 -12.298   9.729  1.00  0.00     0.069 A 
HETATM   12  C   UNL     1      43.587 -11.484   8.929  1.00  0.00     0.038 A 
HETATM   13  C   UNL     1      42.942 -10.369   9.470  1.00  0.00     0.026 A 
HETATM   14  C   UNL     1      43.099 -10.073  10.821  1.00  0.00     0.034 A 
HETATM   15 CL   UNL     1      42.303  -8.705  11.496  1.00  0.00    -0.084 Cl
HETATM   16  C   UNL     1      43.895 -10.881  11.630  1.00  0.00     0.026 A 
HETATM   17  C   UNL     1      44.546 -11.994  11.083  1.00  0.00     0.038 A 
ENDBRANCH  10  11
ENDBRANCH   9  10
ENDBRANCH   6   9
ENDBRANCH   5   6
ENDBRANCH   2   5
BRANCH   1  18
HETATM   18  C   UNL     1      42.357 -17.086   3.997  1.00  0.00     0.098 A 
HETATM   19  C   UNL     1      43.028 -18.269   3.738  1.00  0.00     0.167 A 
HETATM   20  N   UNL     1      42.649 -18.661   2.449  1.00  0.00    -0.226 N 
HETATM   21  N   UNL     1      43.906 -19.010   4.491  1.00  0.00    -0.240 NA
HETATM   22  C   UNL     1      43.164 -19.821   1.881  1.00  0.00     0.128 A 
HETATM   23  N   UNL     1      41.774 -17.790   1.894  1.00  0.00    -0.178 NA
HETATM   24  C   UNL     1      44.032 -20.589   2.560  1.00  0.00    -0.027 A 
HETATM   25  C   UNL     1      44.663 -21.846   2.080  1.00  0.00     0.051 C 
HETATM   26  C   UNL     1      44.365 -20.089   3.929  1.00  0.00     0.127 A 
HETATM   27  C   UNL     1      41.607 -16.851   2.827  1.00  0.00     0.160 A 
ENDBRANCH   1  18
TORSDOF 7
ENDMDL
MODEL 8
REMARK VINA RESULT:      -7.9      4.941      8.464
REMARK  7 active torsions:
REMARK  status: ('A' for Active; 'I' for Inactive)
REMARK    1  A    between atoms: C_10  and  C_11 
REMARK       I    between atoms: C_11  and  N_12 
REMARK    2  A    between atoms: N_12  and  C_13 
REMARK    3  A    between atoms: C_13  and  C_14 
REMARK    4  A    between atoms: C_14  and  O_15 
REMARK    5  A    between atoms: C_14  and  C_16 
REMARK    6  A    between atoms: C_16  and  O_17 
REMARK    7  A    between atoms: O_17  and  C_18 
ROOT
HETATM    1  C   UNL     1      43.233 -15.931   4.522  1.00  0.00     0.257 C 
HETATM    2  N   UNL     1      42.411 -15.475   5.522  1.00  0.00    -0.354 N 
HETATM    3  O   UNL     1      43.497 -15.265   3.524  1.00  0.00    -0.267 OA
HETATM    4  H   UNL     1      42.142 -16.136   6.249  1.00  0.00     0.162 HD
ENDROOT
BRANCH   2   5
HETATM    5  C   UNL     1      41.741 -14.190   5.490  1.00  0.00     0.156 C 
BRANCH   5   6
HETATM    6  C   UNL     1      40.228 -14.289   5.258  1.00  0.00     0.160 C 
BRANCH   6   7
HETATM    7  O   UNL     1      39.740 -15.533   5.785  1.00  0.00    -0.392 OA
HETATM    8  H   UNL     1      39.007 -15.298   6.385  1.00  0.00     0.210 HD
ENDBRANCH   6   7
BRANCH   6   9
HETATM    9  C   UNL     1      39.829 -14.146   3.783  1.00  0.00     0.209 C 
BRANCH   9  10
HETATM   10  O   UNL     1      40.048 -15.422   3.161  1.00  0.00    -0.349 OA
BRANCH  10  11
HETATM   11  C   UNL     1      40.351 -15.411   1.827  1.00  0.00     0.069 A 
HETATM   12  C   UNL     1      39.782 -14.356   1.108  1.00  0.00     0.038 A 
HETATM   13  C   UNL     1      40.016 -14.219  -0.262  1.00  0.00     0.026 A 
HETATM   14  C   UNL     1      40.831 -15.140  -0.915  1.00  0.00     0.034 A 
HETATM   15 CL   UNL     1      41.129 -14.976  -2.601  1.00  0.00    -0.084 Cl
HETATM   16  C   UNL     1      41.409 -16.192  -0.208  1.00  0.00     0.026 A 
HETATM   17  C   UNL     1      41.168 -16.330   1.164  1.00  0.00     0.038 A 
ENDBRANCH  10  11
ENDBRANCH   9  10
ENDBRANCH   6   9
ENDBRANCH   5   6
ENDBRANCH   2   5
BRANCH   1  18
HETATM   18  C   UNL     1      43.749 -17.271   4.713  1.00  0.00     0.098 A 
HETATM   19  C   UNL     1      43.809 -18.313   3.804  1.00  0.00     0.167 A 
HETATM   20  N   UNL     1      44.388 -19.392   4.483  1.00  0.00    -0.226 N 
HETATM   21  N   UNL     1      43.420 -18.409   2.491  1.00  0.00    -0.240 NA
HETATM   22  C   UNL     1      44.581 -20.611   3.842  1.00  0.00     0.128 A 
HETATM   23  N   UNL     1      44.699 -19.076   5.762  1.00  0.00    -0.178 NA
HETATM   24  C   UNL     1      44.218 -20.775   2.559  1.00  0.00    -0.027 A 
HETATM   25  C   UNL     1      44.358 -22.015   1.752  1.00  0.00     0.051 C 
HETATM   26  C   UNL     1      43.617 -19.562   1.923  1.00  0.00     0.127 A 
HETATM   27  C   UNL     1      44.311 -17.805   5.890  1.00  0.00     0.160 A 
ENDBRANCH   1  18
TORSDOF 7
ENDMDL
MODEL 9
REMARK VINA RESULT:      -7.8      5.617      7.984
REMARK  7 active torsions:
REMARK  status: ('A' for Active; 'I' for Inactive)
REMARK    1  A    between atoms: C_10  and  C_11 
REMARK       I    between atoms: C_11  and  N_12 
REMARK    2  A    between atoms: N_12  and  C_13 
REMARK    3  A    between atoms: C_13  and  C_14 
REMARK    4  A    between atoms: C_14  and  O_15 
REMARK    5  A    between atoms: C_14  and  C_16 
REMARK    6  A    between atoms: C_16  and  O_17 
REMARK    7  A    between atoms: O_17  and  C_18 
ROOT
HETATM    1  C   UNL     1      42.068 -13.982   2.098  1.00  0.00     0.257 C 
HETATM    2  N   UNL     1      41.045 -14.456   2.880  1.00  0.00    -0.354 N 
HETATM    3  O   UNL     1      43.105 -13.522   2.567  1.00  0.00    -0.267 OA
HETATM    4  H   UNL     1      40.172 -14.701   2.416  1.00  0.00     0.162 HD
ENDROOT
BRANCH   2   5
HETATM    5  C   UNL     1      41.062 -14.428   4.329  1.00  0.00     0.156 C 
BRANCH   5   6
HETATM    6  C   UNL     1      41.038 -15.819   4.975  1.00  0.00     0.160 C 
BRANCH   6   7
HETATM    7  O   UNL     1      40.045 -15.851   6.013  1.00  0.00    -0.392 OA
HETATM    8  H   UNL     1      39.844 -16.795   6.158  1.00  0.00     0.210 HD
ENDBRANCH   6   7
BRANCH   6   9
HETATM    9  C   UNL     1      42.399 -16.253   5.531  1.00  0.00     0.209 C 
BRANCH   9  10
HETATM   10  O   UNL     1      43.333 -16.219   4.439  1.00  0.00    -0.349 OA
BRANCH  10  11
HETATM   11  C   UNL     1      43.503 -17.382   3.740  1.00  0.00     0.069 A 
HETATM   12  C   UNL     1      43.932 -18.468   4.508  1.00  0.00     0.038 A 
HETATM   13  C   UNL     1      44.139 -19.719   3.923  1.00  0.00     0.026 A 
HETATM   14  C   UNL     1      43.906 -19.886   2.560  1.00  0.00     0.034 A 
HETATM   15 CL   UNL     1      44.152 -21.425   1.831  1.00  0.00    -0.084 Cl
HETATM   16  C   UNL     1      43.471 -18.812   1.785  1.00  0.00     0.026 A 
HETATM   17  C   UNL     1      43.271 -17.559   2.374  1.00  0.00     0.038 A 
ENDBRANCH  10  11
ENDBRANCH   9  10
ENDBRANCH   6   9
ENDBRANCH   5   6
ENDBRANCH   2   5
BRANCH   1  18
HETATM   18  C   UNL     1      41.827 -14.038   0.670  1.00  0.00     0.098 A 
HETATM   19  C   UNL     1      42.083 -13.073  -0.289  1.00  0.00     0.167 A 
HETATM   20  N   UNL     1      41.665 -13.614  -1.511  1.00  0.00    -0.226 N 
HETATM   21  N   UNL     1      42.625 -11.814  -0.203  1.00  0.00    -0.240 NA
HETATM   22  C   UNL     1      41.779 -12.881  -2.687  1.00  0.00     0.128 A 
HETATM   23  N   UNL     1      41.169 -14.865  -1.365  1.00  0.00    -0.178 NA
HETATM   24  C   UNL     1      42.294 -11.641  -2.673  1.00  0.00    -0.027 A 
HETATM   25  C   UNL     1      42.471 -10.744  -3.845  1.00  0.00     0.051 C 
HETATM   26  C   UNL     1      42.718 -11.158  -1.322  1.00  0.00     0.127 A 
HETATM   27  C   UNL     1      41.269 -15.109  -0.057  1.00  0.00     0.160 A 
ENDBRANCH   1  18
TORSDOF 7
ENDMDL
MODEL 10
REMARK VINA RESULT:      -7.7      5.273      8.699
REMARK  7 active torsions:
REMARK  status: ('A' for Active; 'I' for Inactive)
REMARK    1  A    between atoms: C_10  and  C_11 
REMARK       I    between atoms: C_11  and  N_12 
REMARK    2  A    between atoms: N_12  and  C_13 
REMARK    3  A    between atoms: C_13  and  C_14 
REMARK    4  A    between atoms: C_14  and  O_15 
REMARK    5  A    between atoms: C_14  and  C_16 
REMARK    6  A    between atoms: C_16  and  O_17 
REMARK    7  A    between atoms: O_17  and  C_18 
ROOT
HETATM    1  C   UNL     1      43.266 -15.894   3.713  1.00  0.00     0.257 C 
HETATM    2  N   UNL     1      42.502 -15.901   4.854  1.00  0.00    -0.354 N 
HETATM    3  O   UNL     1      43.629 -14.857   3.164  1.00  0.00    -0.267 OA
HETATM    4  H   UNL     1      42.139 -16.799   5.171  1.00  0.00     0.162 HD
ENDROOT
BRANCH   2   5
HETATM    5  C   UNL     1      42.012 -14.701   5.502  1.00  0.00     0.156 C 
BRANCH   5   6
HETATM    6  C   UNL     1      40.482 -14.618   5.572  1.00  0.00     0.160 C 
BRANCH   6   7
HETATM    7  O   UNL     1      39.943 -15.918   5.863  1.00  0.00    -0.392 OA
HETATM    8  H   UNL     1      40.133 -16.465   5.077  1.00  0.00     0.210 HD
ENDBRANCH   6   7
BRANCH   6   9
HETATM    9  C   UNL     1      39.846 -14.054   4.295  1.00  0.00     0.209 C 
BRANCH   9  10
HETATM   10  O   UNL     1      39.848 -15.109   3.320  1.00  0.00    -0.349 OA
BRANCH  10  11
HETATM   11  C   UNL     1      40.356 -14.805   2.087  1.00  0.00     0.069 A 
HETATM   12  C   UNL     1      40.664 -13.455   1.900  1.00  0.00     0.038 A 
HETATM   13  C   UNL     1      41.198 -13.007   0.689  1.00  0.00     0.026 A 
HETATM   14  C   UNL     1      41.433 -13.918  -0.336  1.00  0.00     0.034 A 
HETATM   15 CL   UNL     1      42.097 -13.376  -1.828  1.00  0.00    -0.084 Cl
HETATM   16  C   UNL     1      41.137 -15.268  -0.159  1.00  0.00     0.026 A 
HETATM   17  C   UNL     1      40.596 -15.712   1.053  1.00  0.00     0.038 A 
ENDBRANCH  10  11
ENDBRANCH   9  10
ENDBRANCH   6   9
ENDBRANCH   5   6
ENDBRANCH   2   5
BRANCH   1  18
HETATM   18  C   UNL     1      43.595 -17.202   3.185  1.00  0.00     0.098 A 
HETATM   19  C   UNL     1      43.939 -18.352   3.874  1.00  0.00     0.167 A 
HETATM   20  N   UNL     1      44.165 -19.337   2.905  1.00  0.00    -0.226 N 
HETATM   21  N   UNL     1      44.071 -18.614   5.215  1.00  0.00    -0.240 NA
HETATM   22  C   UNL     1      44.542 -20.623   3.276  1.00  0.00     0.128 A 
HETATM   23  N   UNL     1      43.973 -18.865   1.651  1.00  0.00    -0.178 NA
HETATM   24  C   UNL     1      44.695 -20.945   4.571  1.00  0.00    -0.027 A 
HETATM   25  C   UNL     1      45.097 -22.269   5.112  1.00  0.00     0.051 C 
HETATM   26  C   UNL     1      44.423 -19.826   5.526  1.00  0.00     0.127 A 
HETATM   27  C   UNL     1      43.633 -17.586   1.829  1.00  0.00     0.160 A 
ENDBRANCH   1  18
TORSDOF 7
ENDMDL
