MODEL 1
REMARK VINA RESULT:      -8.4      0.000      0.000
REMARK  5 active torsions:
REMARK  status: ('A' for Active; 'I' for Inactive)
REMARK    1  A    between atoms: C_3  and  O_4 
REMARK    2  A    between atoms: O_4  and  C_5 
REMARK    3  A    between atoms: C_5  and  C_6 
REMARK       I    between atoms: C_6  and  N_7 
REMARK    4  A    between atoms: N_7  and  N_8 
REMARK    5  A    between atoms: C_9  and  C_10 
ROOT
HETATM    1  C   UNL     1      43.040 -13.882   2.850  1.00  0.00     0.261 C 
HETATM    2  N   UNL     1      42.880 -15.154   2.303  1.00  0.00    -0.246 N 
HETATM    3  O   UNL     1      43.947 -13.538   3.606  1.00  0.00    -0.269 OA
HETATM    4  H   UNL     1      41.975 -15.373   1.895  1.00  0.00     0.192 HD
ENDROOT
BRANCH   2   5
HETATM    5  N   UNL     1      43.598 -16.257   2.708  1.00  0.00    -0.184 NA
HETATM    6  C   UNL     1      43.105 -16.959   3.678  1.00  0.00     0.153 C 
BRANCH   6   7
HETATM    7  C   UNL     1      43.761 -18.183   4.107  1.00  0.00     0.018 A 
HETATM    8  C   UNL     1      43.885 -19.440   3.424  1.00  0.00     0.004 A 
HETATM    9  C   UNL     1      44.578 -20.309   4.267  1.00  0.00     0.043 A 
HETATM   10  C   UNL     1      43.460 -19.933   2.170  1.00  0.00     0.014 A 
HETATM   11  C   UNL     1      44.866 -21.636   3.925  1.00  0.00     0.030 A 
HETATM   12  N   UNL     1      44.873 -19.612   5.413  1.00  0.00    -0.358 N 
HETATM   13  C   UNL     1      44.432 -22.095   2.680  1.00  0.00     0.002 A 
HETATM   14  C   UNL     1      43.740 -21.258   1.812  1.00  0.00     0.001 A 
HETATM   15  H   UNL     1      45.373 -20.002   6.200  1.00  0.00     0.166 HD
HETATM   16  C   UNL     1      44.386 -18.332   5.341  1.00  0.00     0.018 A 
HETATM   17  C   UNL     1      44.567 -17.373   6.463  1.00  0.00     0.069 C 
ENDBRANCH   6   7
ENDBRANCH   2   5
BRANCH   1  18
HETATM   18  C   UNL     1      41.895 -12.935   2.500  1.00  0.00     0.280 C 
BRANCH  18  19
HETATM   19  O   UNL     1      40.673 -13.386   3.078  1.00  0.00    -0.342 OA
BRANCH  19  20
HETATM   20  C   UNL     1      39.559 -13.204   2.299  1.00  0.00     0.075 A 
HETATM   21  C   UNL     1      38.965 -14.360   1.764  1.00  0.00    -0.029 A 
HETATM   22  C   UNL     1      39.568 -15.723   1.966  1.00  0.00     0.051 C 
HETATM   23  C   UNL     1      37.826 -14.232   0.953  1.00  0.00     0.009 A 
HETATM   24  C   UNL     1      37.263 -12.980   0.711  1.00  0.00     0.001 A 
HETATM   25  C   UNL     1      37.835 -11.842   1.271  1.00  0.00     0.003 A 
HETATM   26  C   UNL     1      38.978 -11.952   2.065  1.00  0.00     0.037 A 
ENDBRANCH  19  20
ENDBRANCH  18  19
ENDBRANCH   1  18
TORSDOF 5
ENDMDL
MODEL 2
REMARK VINA RESULT:      -8.3      5.103      6.680
REMARK  5 active torsions:
REMARK  status: ('A' for Active; 'I' for Inactive)
REMARK    1  A    between atoms: C_3  and  O_4 
REMARK    2  A    between atoms: O_4  and  C_5 
REMARK    3  A    between atoms: C_5  and  C_6 
REMARK       I    between atoms: C_6  and  N_7 
REMARK    4  A    between atoms: N_7  and  N_8 
REMARK    5  A    between atoms: C_9  and  C_10 
ROOT
HETATM    1  C   UNL     1      44.934 -13.626   7.699  1.00  0.00     0.261 C 
HETATM    2  N   UNL     1      44.129 -14.753   7.539  1.00  0.00    -0.246 N 
HETATM    3  O   UNL     1      45.843 -13.284   6.945  1.00  0.00    -0.269 OA
HETATM    4  H   UNL     1      43.584 -15.052   8.343  1.00  0.00     0.192 HD
ENDROOT
BRANCH   2   5
HETATM    5  N   UNL     1      44.386 -15.753   6.627  1.00  0.00    -0.184 NA
HETATM    6  C   UNL     1      43.415 -16.566   6.354  1.00  0.00     0.153 C 
BRANCH   6   7
HETATM    7  C   UNL     1      43.581 -17.596   5.342  1.00  0.00     0.018 A 
HETATM    8  C   UNL     1      43.579 -17.477   3.911  1.00  0.00     0.004 A 
HETATM    9  C   UNL     1      43.747 -18.758   3.384  1.00  0.00     0.043 A 
HETATM   10  C   UNL     1      43.434 -16.403   3.005  1.00  0.00     0.014 A 
HETATM   11  C   UNL     1      43.776 -19.020   2.009  1.00  0.00     0.030 A 
HETATM   12  N   UNL     1      43.858 -19.622   4.446  1.00  0.00    -0.358 N 
HETATM   13  C   UNL     1      43.629 -17.938   1.138  1.00  0.00     0.002 A 
HETATM   14  C   UNL     1      43.461 -16.646   1.626  1.00  0.00     0.001 A 
HETATM   15  H   UNL     1      43.986 -20.620   4.353  1.00  0.00     0.166 HD
HETATM   16  C   UNL     1      43.754 -18.944   5.635  1.00  0.00     0.018 A 
HETATM   17  C   UNL     1      43.833 -19.655   6.938  1.00  0.00     0.069 C 
ENDBRANCH   6   7
ENDBRANCH   2   5
BRANCH   1  18
HETATM   18  C   UNL     1      44.652 -12.872   8.996  1.00  0.00     0.280 C 
BRANCH  18  19
HETATM   19  O   UNL     1      44.440 -11.487   8.738  1.00  0.00    -0.342 OA
BRANCH  19  20
HETATM   20  C   UNL     1      43.812 -10.796   9.743  1.00  0.00     0.075 A 
HETATM   21  C   UNL     1      42.533 -10.288   9.460  1.00  0.00    -0.029 A 
HETATM   22  C   UNL     1      41.915 -10.423   8.095  1.00  0.00     0.051 C 
HETATM   23  C   UNL     1      41.847  -9.567  10.451  1.00  0.00     0.009 A 
HETATM   24  C   UNL     1      42.407  -9.389  11.715  1.00  0.00     0.001 A 
HETATM   25  C   UNL     1      43.659  -9.922  12.001  1.00  0.00     0.003 A 
HETATM   26  C   UNL     1      44.360 -10.627  11.020  1.00  0.00     0.037 A 
ENDBRANCH  19  20
ENDBRANCH  18  19
ENDBRANCH   1  18
TORSDOF 5
ENDMDL
MODEL 3
REMARK VINA RESULT:      -8.3      4.933      6.649
REMARK  5 active torsions:
REMARK  status: ('A' for Active; 'I' for Inactive)
REMARK    1  A    between atoms: C_3  and  O_4 
REMARK    2  A    between atoms: O_4  and  C_5 
REMARK    3  A    between atoms: C_5  and  C_6 
REMARK       I    between atoms: C_6  and  N_7 
REMARK    4  A    between atoms: N_7  and  N_8 
REMARK    5  A    between atoms: C_9  and  C_10 
ROOT
HETATM    1  C   UNL     1      44.836 -13.669   7.355  1.00  0.00     0.261 C 
HETATM    2  N   UNL     1      43.839 -14.609   7.097  1.00  0.00    -0.246 N 
HETATM    3  O   UNL     1      45.780 -13.406   6.611  1.00  0.00    -0.269 OA
HETATM    4  H   UNL     1      43.262 -14.899   7.882  1.00  0.00     0.192 HD
ENDROOT
BRANCH   2   5
HETATM    5  N   UNL     1      43.897 -15.523   6.069  1.00  0.00    -0.184 NA
HETATM    6  C   UNL     1      42.789 -16.101   5.729  1.00  0.00     0.153 C 
BRANCH   6   7
HETATM    7  C   UNL     1      42.752 -17.016   4.601  1.00  0.00     0.018 A 
HETATM    8  C   UNL     1      43.510 -18.214   4.372  1.00  0.00     0.004 A 
HETATM    9  C   UNL     1      43.131 -18.719   3.128  1.00  0.00     0.043 A 
HETATM   10  C   UNL     1      44.499 -18.914   5.097  1.00  0.00     0.014 A 
HETATM   11  C   UNL     1      43.686 -19.879   2.574  1.00  0.00     0.030 A 
HETATM   12  N   UNL     1      42.175 -17.873   2.622  1.00  0.00    -0.358 N 
HETATM   13  C   UNL     1      44.663 -20.550   3.314  1.00  0.00     0.002 A 
HETATM   14  C   UNL     1      45.065 -20.077   4.559  1.00  0.00     0.001 A 
HETATM   15  H   UNL     1      41.724 -18.000   1.726  1.00  0.00     0.166 HD
HETATM   16  C   UNL     1      41.935 -16.837   3.489  1.00  0.00     0.018 A 
HETATM   17  C   UNL     1      40.945 -15.776   3.169  1.00  0.00     0.069 C 
ENDBRANCH   6   7
ENDBRANCH   2   5
BRANCH   1  18
HETATM   18  C   UNL     1      44.715 -13.036   8.738  1.00  0.00     0.280 C 
BRANCH  18  19
HETATM   19  O   UNL     1      44.659 -11.615   8.639  1.00  0.00    -0.342 OA
BRANCH  19  20
HETATM   20  C   UNL     1      44.022 -10.983   9.677  1.00  0.00     0.075 A 
HETATM   21  C   UNL     1      42.722 -10.511   9.428  1.00  0.00    -0.029 A 
HETATM   22  C   UNL     1      42.090 -10.618   8.068  1.00  0.00     0.051 C 
HETATM   23  C   UNL     1      42.026  -9.850  10.454  1.00  0.00     0.009 A 
HETATM   24  C   UNL     1      42.597  -9.697  11.716  1.00  0.00     0.001 A 
HETATM   25  C   UNL     1      43.871 -10.196  11.966  1.00  0.00     0.003 A 
HETATM   26  C   UNL     1      44.582 -10.841  10.952  1.00  0.00     0.037 A 
ENDBRANCH  19  20
ENDBRANCH  18  19
ENDBRANCH   1  18
TORSDOF 5
ENDMDL
MODEL 4
REMARK VINA RESULT:      -8.2      2.531      3.222
REMARK  5 active torsions:
REMARK  status: ('A' for Active; 'I' for Inactive)
REMARK    1  A    between atoms: C_3  and  O_4 
REMARK    2  A    between atoms: O_4  and  C_5 
REMARK    3  A    between atoms: C_5  and  C_6 
REMARK       I    between atoms: C_6  and  N_7 
REMARK    4  A    between atoms: N_7  and  N_8 
REMARK    5  A    between atoms: C_9  and  C_10 
ROOT
HETATM    1  C   UNL     1      39.458 -14.958   1.960  1.00  0.00     0.261 C 
HETATM    2  N   UNL     1      39.976 -16.178   1.527  1.00  0.00    -0.246 N 
HETATM    3  O   UNL     1      39.738 -14.400   3.019  1.00  0.00    -0.269 OA
HETATM    4  H   UNL     1      39.492 -16.641   0.761  1.00  0.00     0.192 HD
ENDROOT
BRANCH   2   5
HETATM    5  N   UNL     1      40.707 -17.026   2.327  1.00  0.00    -0.184 NA
HETATM    6  C   UNL     1      41.985 -17.076   2.123  1.00  0.00     0.153 C 
BRANCH   6   7
HETATM    7  C   UNL     1      42.837 -17.884   2.980  1.00  0.00     0.018 A 
HETATM    8  C   UNL     1      43.340 -19.213   2.773  1.00  0.00     0.004 A 
HETATM    9  C   UNL     1      44.089 -19.557   3.899  1.00  0.00     0.043 A 
HETATM   10  C   UNL     1      43.220 -20.169   1.742  1.00  0.00     0.014 A 
HETATM   11  C   UNL     1      44.718 -20.799   4.048  1.00  0.00     0.030 A 
HETATM   12  N   UNL     1      44.054 -18.481   4.753  1.00  0.00    -0.358 N 
HETATM   13  C   UNL     1      44.580 -21.725   3.011  1.00  0.00     0.002 A 
HETATM   14  C   UNL     1      43.843 -21.417   1.873  1.00  0.00     0.001 A 
HETATM   15  H   UNL     1      44.514 -18.457   5.653  1.00  0.00     0.166 HD
HETATM   16  C   UNL     1      43.300 -17.465   4.222  1.00  0.00     0.018 A 
HETATM   17  C   UNL     1      43.098 -16.189   4.958  1.00  0.00     0.069 C 
ENDBRANCH   6   7
ENDBRANCH   2   5
BRANCH   1  18
HETATM   18  C   UNL     1      38.396 -14.394   1.020  1.00  0.00     0.280 C 
BRANCH  18  19
HETATM   19  O   UNL     1      38.983 -13.520   0.061  1.00  0.00    -0.342 OA
BRANCH  19  20
HETATM   20  C   UNL     1      39.088 -14.032  -1.207  1.00  0.00     0.075 A 
HETATM   21  C   UNL     1      40.383 -14.330  -1.665  1.00  0.00    -0.029 A 
HETATM   22  C   UNL     1      41.602 -14.027  -0.838  1.00  0.00     0.051 C 
HETATM   23  C   UNL     1      40.549 -14.850  -2.959  1.00  0.00     0.009 A 
HETATM   24  C   UNL     1      39.444 -15.106  -3.769  1.00  0.00     0.001 A 
HETATM   25  C   UNL     1      38.162 -14.841  -3.298  1.00  0.00     0.003 A 
HETATM   26  C   UNL     1      37.983 -14.307  -2.020  1.00  0.00     0.037 A 
ENDBRANCH  19  20
ENDBRANCH  18  19
ENDBRANCH   1  18
TORSDOF 5
ENDMDL
MODEL 5
REMARK VINA RESULT:      -8.2      2.610      3.192
REMARK  5 active torsions:
REMARK  status: ('A' for Active; 'I' for Inactive)
REMARK    1  A    between atoms: C_3  and  O_4 
REMARK    2  A    between atoms: O_4  and  C_5 
REMARK    3  A    between atoms: C_5  and  C_6 
REMARK       I    between atoms: C_6  and  N_7 
REMARK    4  A    between atoms: N_7  and  N_8 
REMARK    5  A    between atoms: C_9  and  C_10 
ROOT
HETATM    1  C   UNL     1      40.951 -14.936   2.604  1.00  0.00     0.261 C 
HETATM    2  N   UNL     1      42.115 -15.684   2.434  1.00  0.00    -0.246 N 
HETATM    3  O   UNL     1      40.146 -15.067   3.524  1.00  0.00    -0.269 OA
HETATM    4  H   UNL     1      42.562 -15.645   1.522  1.00  0.00     0.192 HD
ENDROOT
BRANCH   2   5
HETATM    5  N   UNL     1      42.409 -16.817   3.159  1.00  0.00    -0.184 NA
HETATM    6  C   UNL     1      43.622 -17.267   3.087  1.00  0.00     0.153 C 
BRANCH   6   7
HETATM    7  C   UNL     1      44.032 -18.409   3.887  1.00  0.00     0.018 A 
HETATM    8  C   UNL     1      44.187 -19.783   3.502  1.00  0.00     0.004 A 
HETATM    9  C   UNL     1      44.572 -20.495   4.638  1.00  0.00     0.043 A 
HETATM   10  C   UNL     1      44.022 -20.500   2.297  1.00  0.00     0.014 A 
HETATM   11  C   UNL     1      44.798 -21.877   4.633  1.00  0.00     0.030 A 
HETATM   12  N   UNL     1      44.659 -19.594   5.671  1.00  0.00    -0.358 N 
HETATM   13  C   UNL     1      44.625 -22.559   3.426  1.00  0.00     0.002 A 
HETATM   14  C   UNL     1      44.244 -21.883   2.272  1.00  0.00     0.001 A 
HETATM   15  H   UNL     1      44.918 -19.840   6.617  1.00  0.00     0.166 HD
HETATM   16  C   UNL     1      44.332 -18.333   5.243  1.00  0.00     0.018 A 
HETATM   17  C   UNL     1      44.339 -17.175   6.176  1.00  0.00     0.069 C 
ENDBRANCH   6   7
ENDBRANCH   2   5
BRANCH   1  18
HETATM   18  C   UNL     1      40.691 -13.968   1.453  1.00  0.00     0.280 C 
BRANCH  18  19
HETATM   19  O   UNL     1      41.844 -13.850   0.624  1.00  0.00    -0.342 OA
BRANCH  19  20
HETATM   20  C   UNL     1      41.635 -14.121  -0.705  1.00  0.00     0.075 A 
HETATM   21  C   UNL     1      42.076 -13.155  -1.626  1.00  0.00    -0.029 A 
HETATM   22  C   UNL     1      42.672 -11.850  -1.175  1.00  0.00     0.051 C 
HETATM   23  C   UNL     1      41.881 -13.379  -2.998  1.00  0.00     0.009 A 
HETATM   24  C   UNL     1      41.295 -14.560  -3.450  1.00  0.00     0.001 A 
HETATM   25  C   UNL     1      40.892 -15.528  -2.536  1.00  0.00     0.003 A 
HETATM   26  C   UNL     1      41.063 -15.312  -1.167  1.00  0.00     0.037 A 
ENDBRANCH  19  20
ENDBRANCH  18  19
ENDBRANCH   1  18
TORSDOF 5
ENDMDL
MODEL 6
REMARK VINA RESULT:      -8.1      2.934      3.319
REMARK  5 active torsions:
REMARK  status: ('A' for Active; 'I' for Inactive)
REMARK    1  A    between atoms: C_3  and  O_4 
REMARK    2  A    between atoms: O_4  and  C_5 
REMARK    3  A    between atoms: C_5  and  C_6 
REMARK       I    between atoms: C_6  and  N_7 
REMARK    4  A    between atoms: N_7  and  N_8 
REMARK    5  A    between atoms: C_9  and  C_10 
ROOT
HETATM    1  C   UNL     1      40.783 -15.680   1.851  1.00  0.00     0.261 C 
HETATM    2  N   UNL     1      41.969 -15.817   2.570  1.00  0.00    -0.246 N 
HETATM    3  O   UNL     1      39.825 -16.450   1.899  1.00  0.00    -0.269 OA
HETATM    4  H   UNL     1      42.762 -15.257   2.266  1.00  0.00     0.192 HD
ENDROOT
BRANCH   2   5
HETATM    5  N   UNL     1      42.313 -16.951   3.269  1.00  0.00    -0.184 NA
HETATM    6  C   UNL     1      43.550 -17.329   3.210  1.00  0.00     0.153 C 
BRANCH   6   7
HETATM    7  C   UNL     1      44.010 -18.469   3.987  1.00  0.00     0.018 A 
HETATM    8  C   UNL     1      44.180 -19.837   3.586  1.00  0.00     0.004 A 
HETATM    9  C   UNL     1      44.616 -20.550   4.703  1.00  0.00     0.043 A 
HETATM   10  C   UNL     1      43.990 -20.548   2.381  1.00  0.00     0.014 A 
HETATM   11  C   UNL     1      44.869 -21.927   4.679  1.00  0.00     0.030 A 
HETATM   12  N   UNL     1      44.718 -19.655   5.740  1.00  0.00    -0.358 N 
HETATM   13  C   UNL     1      44.671 -22.603   3.473  1.00  0.00     0.002 A 
HETATM   14  C   UNL     1      44.238 -21.926   2.338  1.00  0.00     0.001 A 
HETATM   15  H   UNL     1      45.012 -19.903   6.675  1.00  0.00     0.166 HD
HETATM   16  C   UNL     1      44.352 -18.397   5.333  1.00  0.00     0.018 A 
HETATM   17  C   UNL     1      44.367 -17.247   6.274  1.00  0.00     0.069 C 
ENDBRANCH   6   7
ENDBRANCH   2   5
BRANCH   1  18
HETATM   18  C   UNL     1      40.806 -14.501   0.881  1.00  0.00     0.280 C 
BRANCH  18  19
HETATM   19  O   UNL     1      41.239 -14.919  -0.410  1.00  0.00    -0.342 OA
BRANCH  19  20
HETATM   20  C   UNL     1      41.602 -13.904  -1.260  1.00  0.00     0.075 A 
HETATM   21  C   UNL     1      41.332 -14.094  -2.626  1.00  0.00    -0.029 A 
HETATM   22  C   UNL     1      40.750 -15.380  -3.144  1.00  0.00     0.051 C 
HETATM   23  C   UNL     1      41.690 -13.090  -3.540  1.00  0.00     0.009 A 
HETATM   24  C   UNL     1      42.269 -11.901  -3.100  1.00  0.00     0.001 A 
HETATM   25  C   UNL     1      42.503 -11.704  -1.743  1.00  0.00     0.003 A 
HETATM   26  C   UNL     1      42.168 -12.701  -0.824  1.00  0.00     0.037 A 
ENDBRANCH  19  20
ENDBRANCH  18  19
ENDBRANCH   1  18
TORSDOF 5
ENDMDL
MODEL 7
REMARK VINA RESULT:      -8.0      2.372      2.978
REMARK  5 active torsions:
REMARK  status: ('A' for Active; 'I' for Inactive)
REMARK    1  A    between atoms: C_3  and  O_4 
REMARK    2  A    between atoms: O_4  and  C_5 
REMARK    3  A    between atoms: C_5  and  C_6 
REMARK       I    between atoms: C_6  and  N_7 
REMARK    4  A    between atoms: N_7  and  N_8 
REMARK    5  A    between atoms: C_9  and  C_10 
ROOT
HETATM    1  C   UNL     1      41.077 -15.374   2.044  1.00  0.00     0.261 C 
HETATM    2  N   UNL     1      42.275 -15.613   2.717  1.00  0.00    -0.246 N 
HETATM    3  O   UNL     1      40.056 -16.052   2.141  1.00  0.00    -0.269 OA
HETATM    4  H   UNL     1      43.102 -15.132   2.374  1.00  0.00     0.192 HD
ENDROOT
BRANCH   2   5
HETATM    5  N   UNL     1      42.542 -16.768   3.417  1.00  0.00    -0.184 NA
HETATM    6  C   UNL     1      43.704 -17.310   3.241  1.00  0.00     0.153 C 
BRANCH   6   7
HETATM    7  C   UNL     1      44.093 -18.484   4.006  1.00  0.00     0.018 A 
HETATM    8  C   UNL     1      44.220 -19.849   3.580  1.00  0.00     0.004 A 
HETATM    9  C   UNL     1      44.591 -20.602   4.695  1.00  0.00     0.043 A 
HETATM   10  C   UNL     1      44.039 -20.526   2.355  1.00  0.00     0.014 A 
HETATM   11  C   UNL     1      44.790 -21.988   4.648  1.00  0.00     0.030 A 
HETATM   12  N   UNL     1      44.697 -19.734   5.754  1.00  0.00    -0.358 N 
HETATM   13  C   UNL     1      44.602 -22.630   3.421  1.00  0.00     0.002 A 
HETATM   14  C   UNL     1      44.233 -21.912   2.289  1.00  0.00     0.001 A 
HETATM   15  H   UNL     1      44.951 -20.013   6.691  1.00  0.00     0.166 HD
HETATM   16  C   UNL     1      44.395 -18.454   5.364  1.00  0.00     0.018 A 
HETATM   17  C   UNL     1      44.426 -17.325   6.330  1.00  0.00     0.069 C 
ENDBRANCH   6   7
ENDBRANCH   2   5
BRANCH   1  18
HETATM   18  C   UNL     1      41.168 -14.212   1.058  1.00  0.00     0.280 C 
BRANCH  18  19
HETATM   19  O   UNL     1      39.940 -14.050   0.355  1.00  0.00    -0.342 OA
BRANCH  19  20
HETATM   20  C   UNL     1      39.963 -14.451  -0.957  1.00  0.00     0.075 A 
HETATM   21  C   UNL     1      38.934 -13.970  -1.784  1.00  0.00    -0.029 A 
HETATM   22  C   UNL     1      37.815 -13.125  -1.242  1.00  0.00     0.051 C 
HETATM   23  C   UNL     1      38.905 -14.355  -3.135  1.00  0.00     0.009 A 
HETATM   24  C   UNL     1      39.905 -15.170  -3.663  1.00  0.00     0.001 A 
HETATM   25  C   UNL     1      40.940 -15.616  -2.848  1.00  0.00     0.003 A 
HETATM   26  C   UNL     1      40.972 -15.256  -1.499  1.00  0.00     0.037 A 
ENDBRANCH  19  20
ENDBRANCH  18  19
ENDBRANCH   1  18
TORSDOF 5
ENDMDL
MODEL 8
REMARK VINA RESULT:      -7.9      3.182      3.678
REMARK  5 active torsions:
REMARK  status: ('A' for Active; 'I' for Inactive)
REMARK    1  A    between atoms: C_3  and  O_4 
REMARK    2  A    between atoms: O_4  and  C_5 
REMARK    3  A    between atoms: C_5  and  C_6 
REMARK       I    between atoms: C_6  and  N_7 
REMARK    4  A    between atoms: N_7  and  N_8 
REMARK    5  A    between atoms: C_9  and  C_10 
ROOT
HETATM    1  C   UNL     1      41.156 -14.938  -0.298  1.00  0.00     0.261 C 
HETATM    2  N   UNL     1      41.262 -16.318  -0.137  1.00  0.00    -0.246 N 
HETATM    3  O   UNL     1      41.992 -14.110   0.061  1.00  0.00    -0.269 OA
HETATM    4  H   UNL     1      40.412 -16.865  -0.256  1.00  0.00     0.192 HD
ENDROOT
BRANCH   2   5
HETATM    5  N   UNL     1      42.220 -16.926   0.642  1.00  0.00    -0.184 NA
HETATM    6  C   UNL     1      41.889 -17.231   1.857  1.00  0.00     0.153 C 
BRANCH   6   7
HETATM    7  C   UNL     1      42.817 -17.949   2.715  1.00  0.00     0.018 A 
HETATM    8  C   UNL     1      43.315 -19.290   2.599  1.00  0.00     0.004 A 
HETATM    9  C   UNL     1      44.157 -19.520   3.687  1.00  0.00     0.043 A 
HETATM   10  C   UNL     1      43.119 -20.344   1.680  1.00  0.00     0.014 A 
HETATM   11  C   UNL     1      44.809 -20.740   3.903  1.00  0.00     0.030 A 
HETATM   12  N   UNL     1      44.182 -18.365   4.431  1.00  0.00    -0.358 N 
HETATM   13  C   UNL     1      44.595 -21.764   2.978  1.00  0.00     0.002 A 
HETATM   14  C   UNL     1      43.763 -21.572   1.880  1.00  0.00     0.001 A 
HETATM   15  H   UNL     1      44.715 -18.252   5.282  1.00  0.00     0.166 HD
HETATM   16  C   UNL     1      43.377 -17.408   3.868  1.00  0.00     0.018 A 
HETATM   17  C   UNL     1      43.223 -16.066   4.488  1.00  0.00     0.069 C 
ENDBRANCH   6   7
ENDBRANCH   2   5
BRANCH   1  18
HETATM   18  C   UNL     1      39.818 -14.507  -0.894  1.00  0.00     0.280 C 
BRANCH  18  19
HETATM   19  O   UNL     1      39.915 -14.373  -2.309  1.00  0.00    -0.342 OA
BRANCH  19  20
HETATM   20  C   UNL     1      38.750 -14.019  -2.942  1.00  0.00     0.075 A 
HETATM   21  C   UNL     1      38.178 -14.976  -3.797  1.00  0.00    -0.029 A 
HETATM   22  C   UNL     1      38.851 -16.293  -4.070  1.00  0.00     0.051 C 
HETATM   23  C   UNL     1      36.989 -14.663  -4.476  1.00  0.00     0.009 A 
HETATM   24  C   UNL     1      36.359 -13.436  -4.277  1.00  0.00     0.001 A 
HETATM   25  C   UNL     1      36.912 -12.505  -3.404  1.00  0.00     0.003 A 
HETATM   26  C   UNL     1      38.103 -12.795  -2.735  1.00  0.00     0.037 A 
ENDBRANCH  19  20
ENDBRANCH  18  19
ENDBRANCH   1  18
TORSDOF 5
ENDMDL
MODEL 9
REMARK VINA RESULT:      -7.9      3.655      8.518
REMARK  5 active torsions:
REMARK  status: ('A' for Active; 'I' for Inactive)
REMARK    1  A    between atoms: C_3  and  O_4 
REMARK    2  A    between atoms: O_4  and  C_5 
REMARK    3  A    between atoms: C_5  and  C_6 
REMARK       I    between atoms: C_6  and  N_7 
REMARK    4  A    between atoms: N_7  and  N_8 
REMARK    5  A    between atoms: C_9  and  C_10 
ROOT
HETATM    1  C   UNL     1      41.229 -15.870   2.759  1.00  0.00     0.261 C 
HETATM    2  N   UNL     1      40.655 -16.110   1.512  1.00  0.00    -0.246 N 
HETATM    3  O   UNL     1      41.607 -14.775   3.174  1.00  0.00    -0.269 OA
HETATM    4  H   UNL     1      40.609 -17.077   1.202  1.00  0.00     0.192 HD
ENDROOT
BRANCH   2   5
HETATM    5  N   UNL     1      40.630 -15.187   0.491  1.00  0.00    -0.184 NA
HETATM    6  C   UNL     1      41.382 -15.422  -0.537  1.00  0.00     0.153 C 
BRANCH   6   7
HETATM    7  C   UNL     1      41.350 -14.538  -1.690  1.00  0.00     0.018 A 
HETATM    8  C   UNL     1      41.889 -13.216  -1.842  1.00  0.00     0.004 A 
HETATM    9  C   UNL     1      41.571 -12.779  -3.128  1.00  0.00     0.043 A 
HETATM   10  C   UNL     1      42.607 -12.336  -1.003  1.00  0.00     0.014 A 
HETATM   11  C   UNL     1      41.929 -11.516  -3.616  1.00  0.00     0.030 A 
HETATM   12  N   UNL     1      40.876 -13.793  -3.740  1.00  0.00    -0.358 N 
HETATM   13  C   UNL     1      42.638 -10.667  -2.762  1.00  0.00     0.002 A 
HETATM   14  C   UNL     1      42.974 -11.069  -1.474  1.00  0.00     0.001 A 
HETATM   15  H   UNL     1      40.518 -13.745  -4.684  1.00  0.00     0.166 HD
HETATM   16  C   UNL     1      40.725 -14.860  -2.891  1.00  0.00     0.018 A 
HETATM   17  C   UNL     1      39.999 -16.086  -3.313  1.00  0.00     0.069 C 
ENDBRANCH   6   7
ENDBRANCH   2   5
BRANCH   1  18
HETATM   18  C   UNL     1      41.454 -17.145   3.568  1.00  0.00     0.280 C 
BRANCH  18  19
HETATM   19  O   UNL     1      42.842 -17.340   3.826  1.00  0.00    -0.342 OA
BRANCH  19  20
HETATM   20  C   UNL     1      43.346 -18.549   3.417  1.00  0.00     0.075 A 
HETATM   21  C   UNL     1      44.225 -19.200   4.299  1.00  0.00    -0.029 A 
HETATM   22  C   UNL     1      44.658 -18.567   5.592  1.00  0.00     0.051 C 
HETATM   23  C   UNL     1      44.776 -20.437   3.927  1.00  0.00     0.009 A 
HETATM   24  C   UNL     1      44.429 -21.035   2.716  1.00  0.00     0.001 A 
HETATM   25  C   UNL     1      43.532 -20.402   1.862  1.00  0.00     0.003 A 
HETATM   26  C   UNL     1      42.989 -19.163   2.211  1.00  0.00     0.037 A 
ENDBRANCH  19  20
ENDBRANCH  18  19
ENDBRANCH   1  18
TORSDOF 5
ENDMDL
MODEL 10
REMARK VINA RESULT:      -7.7      2.521      8.191
REMARK  5 active torsions:
REMARK  status: ('A' for Active; 'I' for Inactive)
REMARK    1  A    between atoms: C_3  and  O_4 
REMARK    2  A    between atoms: O_4  and  C_5 
REMARK    3  A    between atoms: C_5  and  C_6 
REMARK       I    between atoms: C_6  and  N_7 
REMARK    4  A    between atoms: N_7  and  N_8 
REMARK    5  A    between atoms: C_9  and  C_10 
ROOT
HETATM    1  C   UNL     1      43.318 -18.005   6.189  1.00  0.00     0.261 C 
HETATM    2  N   UNL     1      42.093 -17.821   5.549  1.00  0.00    -0.246 N 
HETATM    3  O   UNL     1      44.046 -17.108   6.611  1.00  0.00    -0.269 OA
HETATM    4  H   UNL     1      41.710 -18.615   5.043  1.00  0.00     0.192 HD
ENDROOT
BRANCH   2   5
HETATM    5  N   UNL     1      41.635 -16.598   5.112  1.00  0.00    -0.184 NA
HETATM    6  C   UNL     1      41.237 -16.522   3.882  1.00  0.00     0.153 C 
BRANCH   6   7
HETATM    7  C   UNL     1      40.663 -15.289   3.369  1.00  0.00     0.018 A 
HETATM    8  C   UNL     1      40.099 -14.179   4.084  1.00  0.00     0.004 A 
HETATM    9  C   UNL     1      39.657 -13.253   3.139  1.00  0.00     0.043 A 
HETATM   10  C   UNL     1      39.904 -13.875   5.449  1.00  0.00     0.014 A 
HETATM   11  C   UNL     1      39.034 -12.047   3.485  1.00  0.00     0.030 A 
HETATM   12  N   UNL     1      39.947 -13.769   1.900  1.00  0.00    -0.358 N 
HETATM   13  C   UNL     1      38.854 -11.775   4.843  1.00  0.00     0.002 A 
HETATM   14  C   UNL     1      39.283 -12.674   5.814  1.00  0.00     0.001 A 
HETATM   15  H   UNL     1      39.732 -13.304   1.029  1.00  0.00     0.166 HD
HETATM   16  C   UNL     1      40.547 -14.997   2.014  1.00  0.00     0.018 A 
HETATM   17  C   UNL     1      40.954 -15.772   0.813  1.00  0.00     0.069 C 
ENDBRANCH   6   7
ENDBRANCH   2   5
BRANCH   1  18
HETATM   18  C   UNL     1      43.750 -19.469   6.238  1.00  0.00     0.280 C 
BRANCH  18  19
HETATM   19  O   UNL     1      44.855 -19.697   5.367  1.00  0.00    -0.342 OA
BRANCH  19  20
HETATM   20  C   UNL     1      44.536 -20.264   4.158  1.00  0.00     0.075 A 
HETATM   21  C   UNL     1      44.695 -21.655   4.049  1.00  0.00    -0.029 A 
HETATM   22  C   UNL     1      45.264 -22.475   5.174  1.00  0.00     0.051 C 
HETATM   23  C   UNL     1      44.391 -22.285   2.832  1.00  0.00     0.009 A 
HETATM   24  C   UNL     1      43.899 -21.551   1.754  1.00  0.00     0.001 A 
HETATM   25  C   UNL     1      43.711 -20.178   1.879  1.00  0.00     0.003 A 
HETATM   26  C   UNL     1      44.026 -19.535   3.078  1.00  0.00     0.037 A 
ENDBRANCH  19  20
ENDBRANCH  18  19
ENDBRANCH   1  18
TORSDOF 5
ENDMDL
