MODEL 1
REMARK VINA RESULT:      -8.7      0.000      0.000
REMARK  4 active torsions:
REMARK  status: ('A' for Active; 'I' for Inactive)
REMARK    1  A    between atoms: C_4  and  C_5 
REMARK    2  A    between atoms: C_9  and  C_10 
REMARK       I    between atoms: C_10  and  N_11 
REMARK    3  A    between atoms: C_17  and  O_18 
REMARK    4  A    between atoms: C_25  and  O_26 
ROOT
HETATM    1  C   UNL     1      42.509 -17.718   2.144  1.00  0.00     0.065 A 
HETATM    2  N   UNL     1      41.329 -17.252   2.660  1.00  0.00    -0.277 N 
HETATM    3  H   UNL     1      40.870 -17.543   3.517  1.00  0.00     0.189 HD
HETATM    4  N   UNL     1      40.756 -16.282   1.933  1.00  0.00    -0.169 NA
HETATM    5  C   UNL     1      41.576 -16.117   0.877  1.00  0.00     0.149 A 
HETATM    6  C   UNL     1      42.688 -17.001   0.978  1.00  0.00     0.071 A 
ENDROOT
BRANCH   5   7
HETATM    7  C   UNL     1      41.352 -15.135  -0.205  1.00  0.00     0.299 C 
HETATM    8  N   UNL     1      41.549 -13.836   0.190  1.00  0.00    -0.183 NA
HETATM    9  C   UNL     1      41.802 -12.976  -0.726  1.00  0.00     0.175 A 
HETATM   10  S   UNL     1      42.046 -11.270  -0.232  1.00  0.00    -0.050 SA
HETATM   11  N   UNL     1      41.916 -13.094  -2.092  1.00  0.00    -0.334 N 
HETATM   12  C   UNL     1      42.181 -10.769  -1.937  1.00  0.00     0.037 A 
HETATM   13  C   UNL     1      42.052 -11.885  -2.776  1.00  0.00     0.051 A 
HETATM   14  C   UNL     1      42.381  -9.497  -2.442  1.00  0.00     0.058 A 
HETATM   15  C   UNL     1      42.170 -11.735  -4.146  1.00  0.00     0.034 A 
HETATM   16  C   UNL     1      42.374 -10.452  -4.673  1.00  0.00     0.039 A 
HETATM   17  C   UNL     1      42.477  -9.334  -3.828  1.00  0.00     0.069 A 
HETATM   18  H   UNL     1      41.579 -13.933  -2.549  1.00  0.00     0.168 HD
HETATM   19  O   UNL     1      41.022 -15.485  -1.337  1.00  0.00    -0.263 OA
BRANCH  17  20
HETATM   20  O   UNL     1      42.677  -8.042  -4.233  1.00  0.00    -0.356 OA
HETATM   21  C   UNL     1      42.565  -7.776  -5.626  1.00  0.00     0.210 C 
ENDBRANCH  17  20
ENDBRANCH   5   7
BRANCH   1  22
HETATM   22  C   UNL     1      43.307 -18.761   2.781  1.00  0.00     0.026 A 
HETATM   23  C   UNL     1      43.555 -19.958   2.087  1.00  0.00     0.023 A 
HETATM   24  C   UNL     1      44.320 -20.986   2.660  1.00  0.00    -0.061 A 
HETATM   25  C   UNL     1      44.602 -22.245   1.894  1.00  0.00     0.048 C 
HETATM   26  C   UNL     1      44.873 -20.797   3.930  1.00  0.00     0.009 A 
HETATM   27  C   UNL     1      44.639 -19.615   4.630  1.00  0.00     0.038 A 
HETATM   28  C   UNL     1      43.855 -18.612   4.064  1.00  0.00     0.078 A 
BRANCH  28  29
HETATM   29  O   UNL     1      43.645 -17.508   4.846  1.00  0.00    -0.360 OA
HETATM   30  H   UNL     1      42.936 -17.710   5.478  1.00  0.00     0.217 HD
ENDBRANCH  28  29
ENDBRANCH   1  22
TORSDOF 4
ENDMDL
MODEL 2
REMARK VINA RESULT:      -8.2      2.411      2.750
REMARK  4 active torsions:
REMARK  status: ('A' for Active; 'I' for Inactive)
REMARK    1  A    between atoms: C_4  and  C_5 
REMARK    2  A    between atoms: C_9  and  C_10 
REMARK       I    between atoms: C_10  and  N_11 
REMARK    3  A    between atoms: C_17  and  O_18 
REMARK    4  A    between atoms: C_25  and  O_26 
ROOT
HETATM    1  C   UNL     1      42.252 -17.743   3.254  1.00  0.00     0.065 A 
HETATM    2  N   UNL     1      41.744 -17.017   4.299  1.00  0.00    -0.277 N 
HETATM    3  H   UNL     1      41.944 -17.131   5.287  1.00  0.00     0.189 HD
HETATM    4  N   UNL     1      40.910 -16.034   3.930  1.00  0.00    -0.169 NA
HETATM    5  C   UNL     1      40.840 -16.130   2.588  1.00  0.00     0.149 A 
HETATM    6  C   UNL     1      41.673 -17.190   2.129  1.00  0.00     0.071 A 
ENDROOT
BRANCH   5   7
HETATM    7  C   UNL     1      40.034 -15.236   1.731  1.00  0.00     0.299 C 
HETATM    8  N   UNL     1      40.793 -14.373   0.981  1.00  0.00    -0.183 NA
HETATM    9  C   UNL     1      40.252 -13.880  -0.072  1.00  0.00     0.175 A 
HETATM   10  S   UNL     1      41.221 -12.737  -1.057  1.00  0.00    -0.050 SA
HETATM   11  N   UNL     1      39.003 -14.043  -0.626  1.00  0.00    -0.334 N 
HETATM   12  C   UNL     1      39.827 -12.442  -2.128  1.00  0.00     0.037 A 
HETATM   13  C   UNL     1      38.731 -13.208  -1.711  1.00  0.00     0.051 A 
HETATM   14  C   UNL     1      39.754 -11.600  -3.225  1.00  0.00     0.058 A 
HETATM   15  C   UNL     1      37.549 -13.169  -2.429  1.00  0.00     0.034 A 
HETATM   16  C   UNL     1      37.459 -12.323  -3.543  1.00  0.00     0.039 A 
HETATM   17  C   UNL     1      38.555 -11.537  -3.941  1.00  0.00     0.069 A 
HETATM   18  H   UNL     1      38.265 -14.464  -0.075  1.00  0.00     0.168 HD
HETATM   19  O   UNL     1      38.805 -15.288   1.718  1.00  0.00    -0.263 OA
BRANCH  17  20
HETATM   20  O   UNL     1      38.578 -10.681  -5.009  1.00  0.00    -0.356 OA
HETATM   21  C   UNL     1      39.847 -10.169  -5.399  1.00  0.00     0.210 C 
ENDBRANCH  17  20
ENDBRANCH   5   7
BRANCH   1  22
HETATM   22  C   UNL     1      43.191 -18.848   3.426  1.00  0.00     0.026 A 
HETATM   23  C   UNL     1      43.260 -19.851   2.444  1.00  0.00     0.023 A 
HETATM   24  C   UNL     1      44.150 -20.929   2.567  1.00  0.00    -0.061 A 
HETATM   25  C   UNL     1      44.234 -21.976   1.495  1.00  0.00     0.048 C 
HETATM   26  C   UNL     1      45.007 -20.984   3.671  1.00  0.00     0.009 A 
HETATM   27  C   UNL     1      44.953 -19.995   4.652  1.00  0.00     0.038 A 
HETATM   28  C   UNL     1      44.047 -18.943   4.534  1.00  0.00     0.078 A 
BRANCH  28  29
HETATM   29  O   UNL     1      44.037 -18.047   5.569  1.00  0.00    -0.360 OA
HETATM   30  H   UNL     1      44.097 -18.541   6.403  1.00  0.00     0.217 HD
ENDBRANCH  28  29
ENDBRANCH   1  22
TORSDOF 4
ENDMDL
MODEL 3
REMARK VINA RESULT:      -8.2      4.736      5.165
REMARK  4 active torsions:
REMARK  status: ('A' for Active; 'I' for Inactive)
REMARK    1  A    between atoms: C_4  and  C_5 
REMARK    2  A    between atoms: C_9  and  C_10 
REMARK       I    between atoms: C_10  and  N_11 
REMARK    3  A    between atoms: C_17  and  O_18 
REMARK    4  A    between atoms: C_25  and  O_26 
ROOT
HETATM    1  C   UNL     1      43.487 -17.944   4.390  1.00  0.00     0.065 A 
HETATM    2  N   UNL     1      43.854 -17.119   5.420  1.00  0.00    -0.277 N 
HETATM    3  H   UNL     1      44.441 -17.345   6.217  1.00  0.00     0.189 HD
HETATM    4  N   UNL     1      43.384 -15.867   5.314  1.00  0.00    -0.169 NA
HETATM    5  C   UNL     1      42.654 -15.871   4.182  1.00  0.00     0.149 A 
HETATM    6  C   UNL     1      42.698 -17.159   3.575  1.00  0.00     0.071 A 
ENDROOT
BRANCH   5   7
HETATM    7  C   UNL     1      41.940 -14.692   3.648  1.00  0.00     0.299 C 
HETATM    8  N   UNL     1      41.042 -15.002   2.659  1.00  0.00    -0.183 NA
HETATM    9  C   UNL     1      40.096 -14.164   2.441  1.00  0.00     0.175 A 
HETATM   10  S   UNL     1      38.921 -14.543   1.142  1.00  0.00    -0.050 SA
HETATM   11  N   UNL     1      39.788 -12.954   3.021  1.00  0.00    -0.334 N 
HETATM   12  C   UNL     1      38.121 -12.968   1.372  1.00  0.00     0.037 A 
HETATM   13  C   UNL     1      38.753 -12.254   2.399  1.00  0.00     0.051 A 
HETATM   14  C   UNL     1      37.037 -12.449   0.685  1.00  0.00     0.058 A 
HETATM   15  C   UNL     1      38.267 -11.016   2.780  1.00  0.00     0.034 A 
HETATM   16  C   UNL     1      37.169 -10.478   2.094  1.00  0.00     0.039 A 
HETATM   17  C   UNL     1      36.555 -11.187   1.048  1.00  0.00     0.069 A 
HETATM   18  H   UNL     1      40.477 -12.491   3.600  1.00  0.00     0.168 HD
HETATM   19  O   UNL     1      42.158 -13.558   4.073  1.00  0.00    -0.263 OA
BRANCH  17  20
HETATM   20  O   UNL     1      35.482 -10.760   0.314  1.00  0.00    -0.356 OA
HETATM   21  C   UNL     1      34.277 -10.496   1.024  1.00  0.00     0.210 C 
ENDBRANCH  17  20
ENDBRANCH   5   7
BRANCH   1  22
HETATM   22  C   UNL     1      43.901 -19.342   4.297  1.00  0.00     0.026 A 
HETATM   23  C   UNL     1      43.927 -19.969   3.039  1.00  0.00     0.023 A 
HETATM   24  C   UNL     1      44.321 -21.309   2.902  1.00  0.00    -0.061 A 
HETATM   25  C   UNL     1      44.375 -21.954   1.548  1.00  0.00     0.048 C 
HETATM   26  C   UNL     1      44.728 -22.019   4.036  1.00  0.00     0.009 A 
HETATM   27  C   UNL     1      44.710 -21.411   5.290  1.00  0.00     0.038 A 
HETATM   28  C   UNL     1      44.291 -20.089   5.419  1.00  0.00     0.078 A 
BRANCH  28  29
HETATM   29  O   UNL     1      44.264 -19.594   6.695  1.00  0.00    -0.360 OA
HETATM   30  H   UNL     1      43.470 -19.934   7.140  1.00  0.00     0.217 HD
ENDBRANCH  28  29
ENDBRANCH   1  22
TORSDOF 4
ENDMDL
MODEL 4
REMARK VINA RESULT:      -8.1      1.026      1.790
REMARK  4 active torsions:
REMARK  status: ('A' for Active; 'I' for Inactive)
REMARK    1  A    between atoms: C_4  and  C_5 
REMARK    2  A    between atoms: C_9  and  C_10 
REMARK       I    between atoms: C_10  and  N_11 
REMARK    3  A    between atoms: C_17  and  O_18 
REMARK    4  A    between atoms: C_25  and  O_26 
ROOT
HETATM    1  C   UNL     1      42.565 -17.446   2.536  1.00  0.00     0.065 A 
HETATM    2  N   UNL     1      41.255 -17.190   2.847  1.00  0.00    -0.277 N 
HETATM    3  H   UNL     1      40.721 -17.555   3.629  1.00  0.00     0.189 HD
HETATM    4  N   UNL     1      40.651 -16.333   2.011  1.00  0.00    -0.169 NA
HETATM    5  C   UNL     1      41.590 -16.030   1.093  1.00  0.00     0.149 A 
HETATM    6  C   UNL     1      42.805 -16.710   1.394  1.00  0.00     0.071 A 
ENDROOT
BRANCH   5   7
HETATM    7  C   UNL     1      41.379 -15.103  -0.037  1.00  0.00     0.299 C 
HETATM    8  N   UNL     1      41.525 -13.783   0.308  1.00  0.00    -0.183 NA
HETATM    9  C   UNL     1      41.789 -12.955  -0.636  1.00  0.00     0.175 A 
HETATM   10  S   UNL     1      41.968 -11.223  -0.208  1.00  0.00    -0.050 SA
HETATM   11  N   UNL     1      41.956 -13.129  -1.991  1.00  0.00    -0.334 N 
HETATM   12  C   UNL     1      42.152 -10.793  -1.927  1.00  0.00     0.037 A 
HETATM   13  C   UNL     1      42.084 -11.946  -2.721  1.00  0.00     0.051 A 
HETATM   14  C   UNL     1      42.335  -9.537  -2.481  1.00  0.00     0.058 A 
HETATM   15  C   UNL     1      42.248 -11.851  -4.091  1.00  0.00     0.034 A 
HETATM   16  C   UNL     1      42.437 -10.587  -4.666  1.00  0.00     0.039 A 
HETATM   17  C   UNL     1      42.478  -9.431  -3.867  1.00  0.00     0.069 A 
HETATM   18  H   UNL     1      41.659 -13.995  -2.422  1.00  0.00     0.168 HD
HETATM   19  O   UNL     1      41.100 -15.510  -1.165  1.00  0.00    -0.263 OA
BRANCH  17  20
HETATM   20  O   UNL     1      42.657  -8.152  -4.321  1.00  0.00    -0.356 OA
HETATM   21  C   UNL     1      42.229  -7.871  -5.648  1.00  0.00     0.210 C 
ENDBRANCH  17  20
ENDBRANCH   5   7
BRANCH   1  22
HETATM   22  C   UNL     1      43.415 -18.337   3.321  1.00  0.00     0.026 A 
HETATM   23  C   UNL     1      43.858 -17.923   4.590  1.00  0.00     0.023 A 
HETATM   24  C   UNL     1      44.674 -18.748   5.380  1.00  0.00    -0.061 A 
HETATM   25  C   UNL     1      45.112 -18.305   6.745  1.00  0.00     0.048 C 
HETATM   26  C   UNL     1      45.021 -20.017   4.908  1.00  0.00     0.009 A 
HETATM   27  C   UNL     1      44.588 -20.443   3.653  1.00  0.00     0.038 A 
HETATM   28  C   UNL     1      43.801 -19.606   2.865  1.00  0.00     0.078 A 
BRANCH  28  29
HETATM   29  O   UNL     1      43.464 -20.094   1.631  1.00  0.00    -0.360 OA
HETATM   30  H   UNL     1      44.279 -20.349   1.169  1.00  0.00     0.217 HD
ENDBRANCH  28  29
ENDBRANCH   1  22
TORSDOF 4
ENDMDL
MODEL 5
REMARK VINA RESULT:      -8.0      6.481     10.350
REMARK  4 active torsions:
REMARK  status: ('A' for Active; 'I' for Inactive)
REMARK    1  A    between atoms: C_4  and  C_5 
REMARK    2  A    between atoms: C_9  and  C_10 
REMARK       I    between atoms: C_10  and  N_11 
REMARK    3  A    between atoms: C_17  and  O_18 
REMARK    4  A    between atoms: C_25  and  O_26 
ROOT
HETATM    1  C   UNL     1      41.595 -11.556   6.446  1.00  0.00     0.065 A 
HETATM    2  N   UNL     1      41.304 -11.088   5.192  1.00  0.00    -0.277 N 
HETATM    3  H   UNL     1      40.838 -10.220   4.947  1.00  0.00     0.189 HD
HETATM    4  N   UNL     1      41.721 -11.885   4.198  1.00  0.00    -0.169 NA
HETATM    5  C   UNL     1      42.288 -12.938   4.819  1.00  0.00     0.149 A 
HETATM    6  C   UNL     1      42.229 -12.763   6.231  1.00  0.00     0.071 A 
ENDROOT
BRANCH   5   7
HETATM    7  C   UNL     1      42.903 -14.085   4.119  1.00  0.00     0.299 C 
HETATM    8  N   UNL     1      43.261 -15.107   4.961  1.00  0.00    -0.183 NA
HETATM    9  C   UNL     1      43.391 -16.274   4.445  1.00  0.00     0.175 A 
HETATM   10  S   UNL     1      43.875 -17.621   5.526  1.00  0.00    -0.050 SA
HETATM   11  N   UNL     1      43.244 -16.731   3.155  1.00  0.00    -0.334 N 
HETATM   12  C   UNL     1      43.966 -18.734   4.137  1.00  0.00     0.037 A 
HETATM   13  C   UNL     1      43.624 -18.059   2.958  1.00  0.00     0.051 A 
HETATM   14  C   UNL     1      44.314 -20.074   4.136  1.00  0.00     0.058 A 
HETATM   15  C   UNL     1      43.585 -18.745   1.757  1.00  0.00     0.034 A 
HETATM   16  C   UNL     1      43.933 -20.103   1.740  1.00  0.00     0.039 A 
HETATM   17  C   UNL     1      44.300 -20.768   2.922  1.00  0.00     0.069 A 
HETATM   18  H   UNL     1      43.205 -16.065   2.393  1.00  0.00     0.168 HD
HETATM   19  O   UNL     1      43.063 -14.087   2.899  1.00  0.00    -0.263 OA
BRANCH  17  20
HETATM   20  O   UNL     1      44.655 -22.086   3.020  1.00  0.00    -0.356 OA
HETATM   21  C   UNL     1      44.721 -22.642   4.328  1.00  0.00     0.210 C 
ENDBRANCH  17  20
ENDBRANCH   5   7
BRANCH   1  22
HETATM   22  C   UNL     1      41.247 -10.839   7.670  1.00  0.00     0.026 A 
HETATM   23  C   UNL     1      42.203 -10.723   8.694  1.00  0.00     0.023 A 
HETATM   24  C   UNL     1      41.914 -10.040   9.886  1.00  0.00    -0.061 A 
HETATM   25  C   UNL     1      42.955  -9.897  10.956  1.00  0.00     0.048 C 
HETATM   26  C   UNL     1      40.661  -9.436  10.038  1.00  0.00     0.009 A 
HETATM   27  C   UNL     1      39.703  -9.541   9.031  1.00  0.00     0.038 A 
HETATM   28  C   UNL     1      39.992 -10.244   7.863  1.00  0.00     0.078 A 
BRANCH  28  29
HETATM   29  O   UNL     1      38.973 -10.330   6.953  1.00  0.00    -0.360 OA
HETATM   30  H   UNL     1      38.140 -10.112   7.403  1.00  0.00     0.217 HD
ENDBRANCH  28  29
ENDBRANCH   1  22
TORSDOF 4
ENDMDL
MODEL 6
REMARK VINA RESULT:      -7.9      5.373      7.187
REMARK  4 active torsions:
REMARK  status: ('A' for Active; 'I' for Inactive)
REMARK    1  A    between atoms: C_4  and  C_5 
REMARK    2  A    between atoms: C_9  and  C_10 
REMARK       I    between atoms: C_10  and  N_11 
REMARK    3  A    between atoms: C_17  and  O_18 
REMARK    4  A    between atoms: C_25  and  O_26 
ROOT
HETATM    1  C   UNL     1      44.294 -13.950   7.022  1.00  0.00     0.065 A 
HETATM    2  N   UNL     1      43.957 -15.209   7.442  1.00  0.00    -0.277 N 
HETATM    3  H   UNL     1      44.118 -15.621   8.356  1.00  0.00     0.189 HD
HETATM    4  N   UNL     1      43.319 -15.944   6.520  1.00  0.00    -0.169 NA
HETATM    5  C   UNL     1      43.255 -15.150   5.434  1.00  0.00     0.149 A 
HETATM    6  C   UNL     1      43.856 -13.889   5.714  1.00  0.00     0.071 A 
ENDROOT
BRANCH   5   7
HETATM    7  C   UNL     1      42.624 -15.537   4.156  1.00  0.00     0.299 C 
HETATM    8  N   UNL     1      41.617 -14.690   3.768  1.00  0.00    -0.183 NA
HETATM    9  C   UNL     1      41.310 -14.673   2.523  1.00  0.00     0.175 A 
HETATM   10  S   UNL     1      39.986 -13.584   1.998  1.00  0.00    -0.050 SA
HETATM   11  N   UNL     1      41.805 -15.372   1.445  1.00  0.00    -0.334 N 
HETATM   12  C   UNL     1      40.090 -14.219   0.336  1.00  0.00     0.037 A 
HETATM   13  C   UNL     1      41.099 -15.188   0.255  1.00  0.00     0.051 A 
HETATM   14  C   UNL     1      39.328 -13.867  -0.764  1.00  0.00     0.058 A 
HETATM   15  C   UNL     1      41.386 -15.785  -0.960  1.00  0.00     0.034 A 
HETATM   16  C   UNL     1      40.624 -15.437  -2.083  1.00  0.00     0.039 A 
HETATM   17  C   UNL     1      39.595 -14.484  -1.990  1.00  0.00     0.069 A 
HETATM   18  H   UNL     1      42.385 -16.187   1.604  1.00  0.00     0.168 HD
HETATM   19  O   UNL     1      42.990 -16.530   3.528  1.00  0.00    -0.263 OA
BRANCH  17  20
HETATM   20  O   UNL     1      38.793 -14.070  -3.018  1.00  0.00    -0.356 OA
HETATM   21  C   UNL     1      37.779 -14.970  -3.450  1.00  0.00     0.210 C 
ENDBRANCH  17  20
ENDBRANCH   5   7
BRANCH   1  22
HETATM   22  C   UNL     1      44.979 -12.978   7.868  1.00  0.00     0.026 A 
HETATM   23  C   UNL     1      44.326 -12.478   9.008  1.00  0.00     0.023 A 
HETATM   24  C   UNL     1      44.947 -11.545   9.853  1.00  0.00    -0.061 A 
HETATM   25  C   UNL     1      44.249 -11.045  11.083  1.00  0.00     0.048 C 
HETATM   26  C   UNL     1      46.254 -11.135   9.570  1.00  0.00     0.009 A 
HETATM   27  C   UNL     1      46.916 -11.623   8.445  1.00  0.00     0.038 A 
HETATM   28  C   UNL     1      46.280 -12.528   7.598  1.00  0.00     0.078 A 
BRANCH  28  29
HETATM   29  O   UNL     1      46.994 -12.915   6.496  1.00  0.00    -0.360 OA
HETATM   30  H   UNL     1      46.378 -13.299   5.851  1.00  0.00     0.217 HD
ENDBRANCH  28  29
ENDBRANCH   1  22
TORSDOF 4
ENDMDL
MODEL 7
REMARK VINA RESULT:      -7.9      6.834     10.659
REMARK  4 active torsions:
REMARK  status: ('A' for Active; 'I' for Inactive)
REMARK    1  A    between atoms: C_4  and  C_5 
REMARK    2  A    between atoms: C_9  and  C_10 
REMARK       I    between atoms: C_10  and  N_11 
REMARK    3  A    between atoms: C_17  and  O_18 
REMARK    4  A    between atoms: C_25  and  O_26 
ROOT
HETATM    1  C   UNL     1      43.296 -12.095   8.148  1.00  0.00     0.065 A 
HETATM    2  N   UNL     1      42.275 -11.784   7.289  1.00  0.00    -0.277 N 
HETATM    3  H   UNL     1      41.580 -11.052   7.392  1.00  0.00     0.189 HD
HETATM    4  N   UNL     1      42.239 -12.542   6.184  1.00  0.00    -0.169 NA
HETATM    5  C   UNL     1      43.261 -13.408   6.328  1.00  0.00     0.149 A 
HETATM    6  C   UNL     1      43.948 -13.154   7.550  1.00  0.00     0.071 A 
ENDROOT
BRANCH   5   7
HETATM    7  C   UNL     1      43.619 -14.445   5.339  1.00  0.00     0.299 C 
HETATM    8  N   UNL     1      44.031 -15.622   5.910  1.00  0.00    -0.183 NA
HETATM    9  C   UNL     1      43.949 -16.683   5.193  1.00  0.00     0.175 A 
HETATM   10  S   UNL     1      44.497 -18.229   5.916  1.00  0.00    -0.050 SA
HETATM   11  N   UNL     1      43.517 -16.889   3.903  1.00  0.00    -0.334 N 
HETATM   12  C   UNL     1      44.217 -19.077   4.374  1.00  0.00     0.037 A 
HETATM   13  C   UNL     1      43.724 -18.180   3.416  1.00  0.00     0.051 A 
HETATM   14  C   UNL     1      44.428 -20.413   4.081  1.00  0.00     0.058 A 
HETATM   15  C   UNL     1      43.392 -18.635   2.152  1.00  0.00     0.034 A 
HETATM   16  C   UNL     1      43.599 -19.986   1.841  1.00  0.00     0.039 A 
HETATM   17  C   UNL     1      44.118 -20.874   2.798  1.00  0.00     0.069 A 
HETATM   18  H   UNL     1      43.398 -16.096   3.285  1.00  0.00     0.168 HD
HETATM   19  O   UNL     1      43.544 -14.236   4.128  1.00  0.00    -0.263 OA
BRANCH  17  20
HETATM   20  O   UNL     1      44.358 -22.208   2.603  1.00  0.00    -0.356 OA
HETATM   21  C   UNL     1      44.707 -22.976   3.749  1.00  0.00     0.210 C 
ENDBRANCH  17  20
ENDBRANCH   5   7
BRANCH   1  22
HETATM   22  C   UNL     1      43.531 -11.386   9.403  1.00  0.00     0.026 A 
HETATM   23  C   UNL     1      42.463 -11.197  10.297  1.00  0.00     0.023 A 
HETATM   24  C   UNL     1      42.644 -10.526  11.517  1.00  0.00    -0.061 A 
HETATM   25  C   UNL     1      41.501 -10.360  12.474  1.00  0.00     0.048 C 
HETATM   26  C   UNL     1      43.920 -10.069  11.860  1.00  0.00     0.009 A 
HETATM   27  C   UNL     1      44.991 -10.251  10.985  1.00  0.00     0.038 A 
HETATM   28  C   UNL     1      44.794 -10.895   9.766  1.00  0.00     0.078 A 
BRANCH  28  29
HETATM   29  O   UNL     1      45.895 -10.985   8.956  1.00  0.00    -0.360 OA
HETATM   30  H   UNL     1      45.963 -10.166   8.438  1.00  0.00     0.217 HD
ENDBRANCH  28  29
ENDBRANCH   1  22
TORSDOF 4
ENDMDL
MODEL 8
REMARK VINA RESULT:      -7.9      3.665      4.200
REMARK  4 active torsions:
REMARK  status: ('A' for Active; 'I' for Inactive)
REMARK    1  A    between atoms: C_4  and  C_5 
REMARK    2  A    between atoms: C_9  and  C_10 
REMARK       I    between atoms: C_10  and  N_11 
REMARK    3  A    between atoms: C_17  and  O_18 
REMARK    4  A    between atoms: C_25  and  O_26 
ROOT
HETATM    1  C   UNL     1      43.278 -17.932   4.225  1.00  0.00     0.065 A 
HETATM    2  N   UNL     1      43.620 -17.004   5.174  1.00  0.00    -0.277 N 
HETATM    3  H   UNL     1      44.251 -17.125   5.959  1.00  0.00     0.189 HD
HETATM    4  N   UNL     1      43.053 -15.802   4.995  1.00  0.00    -0.169 NA
HETATM    5  C   UNL     1      42.283 -15.947   3.899  1.00  0.00     0.149 A 
HETATM    6  C   UNL     1      42.402 -17.271   3.388  1.00  0.00     0.071 A 
ENDROOT
BRANCH   5   7
HETATM    7  C   UNL     1      41.464 -14.868   3.310  1.00  0.00     0.299 C 
HETATM    8  N   UNL     1      41.454 -14.879   1.938  1.00  0.00    -0.183 NA
HETATM    9  C   UNL     1      40.474 -14.294   1.352  1.00  0.00     0.175 A 
HETATM   10  S   UNL     1      40.452 -14.285  -0.440  1.00  0.00    -0.050 SA
HETATM   11  N   UNL     1      39.381 -13.618   1.844  1.00  0.00    -0.334 N 
HETATM   12  C   UNL     1      39.000 -13.252  -0.441  1.00  0.00     0.037 A 
HETATM   13  C   UNL     1      38.604 -12.981   0.876  1.00  0.00     0.051 A 
HETATM   14  C   UNL     1      38.307 -12.749  -1.528  1.00  0.00     0.058 A 
HETATM   15  C   UNL     1      37.466 -12.229   1.114  1.00  0.00     0.034 A 
HETATM   16  C   UNL     1      36.754 -11.715   0.022  1.00  0.00     0.039 A 
HETATM   17  C   UNL     1      37.171 -11.968  -1.296  1.00  0.00     0.069 A 
HETATM   18  H   UNL     1      39.368 -13.333   2.815  1.00  0.00     0.168 HD
HETATM   19  O   UNL     1      40.863 -14.055   4.012  1.00  0.00    -0.263 OA
BRANCH  17  20
HETATM   20  O   UNL     1      36.552 -11.518  -2.431  1.00  0.00    -0.356 OA
HETATM   21  C   UNL     1      37.194 -11.794  -3.670  1.00  0.00     0.210 C 
ENDBRANCH  17  20
ENDBRANCH   5   7
BRANCH   1  22
HETATM   22  C   UNL     1      43.792 -19.299   4.219  1.00  0.00     0.026 A 
HETATM   23  C   UNL     1      43.878 -19.995   3.001  1.00  0.00     0.023 A 
HETATM   24  C   UNL     1      44.370 -21.309   2.947  1.00  0.00    -0.061 A 
HETATM   25  C   UNL     1      44.485 -22.028   1.635  1.00  0.00     0.048 C 
HETATM   26  C   UNL     1      44.813 -21.919   4.124  1.00  0.00     0.009 A 
HETATM   27  C   UNL     1      44.737 -21.241   5.340  1.00  0.00     0.038 A 
HETATM   28  C   UNL     1      44.222 -19.947   5.386  1.00  0.00     0.078 A 
BRANCH  28  29
HETATM   29  O   UNL     1      44.146 -19.381   6.631  1.00  0.00    -0.360 OA
HETATM   30  H   UNL     1      44.090 -18.417   6.526  1.00  0.00     0.217 HD
ENDBRANCH  28  29
ENDBRANCH   1  22
TORSDOF 4
ENDMDL
MODEL 9
REMARK VINA RESULT:      -7.8      2.995      3.476
REMARK  4 active torsions:
REMARK  status: ('A' for Active; 'I' for Inactive)
REMARK    1  A    between atoms: C_4  and  C_5 
REMARK    2  A    between atoms: C_9  and  C_10 
REMARK       I    between atoms: C_10  and  N_11 
REMARK    3  A    between atoms: C_17  and  O_18 
REMARK    4  A    between atoms: C_25  and  O_26 
ROOT
HETATM    1  C   UNL     1      43.685 -17.741   4.127  1.00  0.00     0.065 A 
HETATM    2  N   UNL     1      43.353 -17.115   5.300  1.00  0.00    -0.277 N 
HETATM    3  H   UNL     1      43.299 -17.524   6.227  1.00  0.00     0.189 HD
HETATM    4  N   UNL     1      43.101 -15.804   5.170  1.00  0.00    -0.169 NA
HETATM    5  C   UNL     1      43.245 -15.557   3.853  1.00  0.00     0.149 A 
HETATM    6  C   UNL     1      43.613 -16.751   3.169  1.00  0.00     0.071 A 
ENDROOT
BRANCH   5   7
HETATM    7  C   UNL     1      43.070 -14.228   3.232  1.00  0.00     0.299 C 
HETATM    8  N   UNL     1      42.547 -14.285   1.965  1.00  0.00    -0.183 NA
HETATM    9  C   UNL     1      41.968 -13.229   1.521  1.00  0.00     0.175 A 
HETATM   10  S   UNL     1      41.292 -13.278  -0.138  1.00  0.00    -0.050 SA
HETATM   11  N   UNL     1      41.761 -11.990   2.082  1.00  0.00    -0.334 N 
HETATM   12  C   UNL     1      40.853 -11.554  -0.036  1.00  0.00     0.037 A 
HETATM   13  C   UNL     1      41.216 -11.040   1.216  1.00  0.00     0.051 A 
HETATM   14  C   UNL     1      40.247 -10.766  -0.999  1.00  0.00     0.058 A 
HETATM   15  C   UNL     1      40.928  -9.724   1.532  1.00  0.00     0.034 A 
HETATM   16  C   UNL     1      40.312  -8.915   0.568  1.00  0.00     0.039 A 
HETATM   17  C   UNL     1      39.974  -9.429  -0.695  1.00  0.00     0.069 A 
HETATM   18  H   UNL     1      42.280 -11.725   2.910  1.00  0.00     0.168 HD
HETATM   19  O   UNL     1      43.376 -13.193   3.823  1.00  0.00    -0.263 OA
BRANCH  17  20
HETATM   20  O   UNL     1      39.372  -8.731  -1.707  1.00  0.00    -0.356 OA
HETATM   21  C   UNL     1      38.036  -9.092  -2.036  1.00  0.00     0.210 C 
ENDBRANCH  17  20
ENDBRANCH   5   7
BRANCH   1  22
HETATM   22  C   UNL     1      44.013 -19.161   4.042  1.00  0.00     0.026 A 
HETATM   23  C   UNL     1      43.883 -19.824   2.809  1.00  0.00     0.023 A 
HETATM   24  C   UNL     1      44.191 -21.187   2.679  1.00  0.00    -0.061 A 
HETATM   25  C   UNL     1      44.078 -21.873   1.350  1.00  0.00     0.048 C 
HETATM   26  C   UNL     1      44.668 -21.887   3.792  1.00  0.00     0.009 A 
HETATM   27  C   UNL     1      44.805 -21.243   5.022  1.00  0.00     0.038 A 
HETATM   28  C   UNL     1      44.470 -19.897   5.146  1.00  0.00     0.078 A 
BRANCH  28  29
HETATM   29  O   UNL     1      44.595 -19.366   6.401  1.00  0.00    -0.360 OA
HETATM   30  H   UNL     1      44.532 -20.088   7.048  1.00  0.00     0.217 HD
ENDBRANCH  28  29
ENDBRANCH   1  22
TORSDOF 4
ENDMDL
MODEL 10
REMARK VINA RESULT:      -7.8      3.546      3.826
REMARK  4 active torsions:
REMARK  status: ('A' for Active; 'I' for Inactive)
REMARK    1  A    between atoms: C_4  and  C_5 
REMARK    2  A    between atoms: C_9  and  C_10 
REMARK       I    between atoms: C_10  and  N_11 
REMARK    3  A    between atoms: C_17  and  O_18 
REMARK    4  A    between atoms: C_25  and  O_26 
ROOT
HETATM    1  C   UNL     1      42.839 -17.287   2.174  1.00  0.00     0.065 A 
HETATM    2  N   UNL     1      43.133 -16.005   2.558  1.00  0.00    -0.277 N 
HETATM    3  H   UNL     1      43.798 -15.708   3.265  1.00  0.00     0.189 HD
HETATM    4  N   UNL     1      42.464 -15.062   1.881  1.00  0.00    -0.169 NA
HETATM    5  C   UNL     1      41.673 -15.746   1.032  1.00  0.00     0.149 A 
HETATM    6  C   UNL     1      41.884 -17.146   1.187  1.00  0.00     0.071 A 
ENDROOT
BRANCH   5   7
HETATM    7  C   UNL     1      40.748 -15.117   0.066  1.00  0.00     0.299 C 
HETATM    8  N   UNL     1      39.626 -14.588   0.653  1.00  0.00    -0.183 NA
HETATM    9  C   UNL     1      38.999 -13.676   0.005  1.00  0.00     0.175 A 
HETATM   10  S   UNL     1      37.522 -12.983   0.748  1.00  0.00    -0.050 SA
HETATM   11  N   UNL     1      39.229 -13.097  -1.222  1.00  0.00    -0.334 N 
HETATM   12  C   UNL     1      37.217 -12.007  -0.711  1.00  0.00     0.037 A 
HETATM   13  C   UNL     1      38.224 -12.234  -1.659  1.00  0.00     0.051 A 
HETATM   14  C   UNL     1      36.170 -11.134  -0.954  1.00  0.00     0.058 A 
HETATM   15  C   UNL     1      38.211 -11.542  -2.857  1.00  0.00     0.034 A 
HETATM   16  C   UNL     1      37.159 -10.653  -3.117  1.00  0.00     0.039 A 
HETATM   17  C   UNL     1      36.138 -10.450  -2.172  1.00  0.00     0.069 A 
HETATM   18  H   UNL     1      39.878 -13.534  -1.865  1.00  0.00     0.168 HD
HETATM   19  O   UNL     1      40.992 -15.090  -1.140  1.00  0.00    -0.263 OA
BRANCH  17  20
HETATM   20  O   UNL     1      35.068  -9.609  -2.320  1.00  0.00    -0.356 OA
HETATM   21  C   UNL     1      33.779 -10.150  -2.060  1.00  0.00     0.210 C 
ENDBRANCH  17  20
ENDBRANCH   5   7
BRANCH   1  22
HETATM   22  C   UNL     1      43.463 -18.466   2.768  1.00  0.00     0.026 A 
HETATM   23  C   UNL     1      43.587 -19.638   2.002  1.00  0.00     0.023 A 
HETATM   24  C   UNL     1      44.184 -20.793   2.530  1.00  0.00    -0.061 A 
HETATM   25  C   UNL     1      44.338 -22.026   1.689  1.00  0.00     0.048 C 
HETATM   26  C   UNL     1      44.694 -20.762   3.831  1.00  0.00     0.009 A 
HETATM   27  C   UNL     1      44.581 -19.606   4.603  1.00  0.00     0.038 A 
HETATM   28  C   UNL     1      43.963 -18.474   4.079  1.00  0.00     0.078 A 
BRANCH  28  29
HETATM   29  O   UNL     1      43.859 -17.405   4.928  1.00  0.00    -0.360 OA
HETATM   30  H   UNL     1      43.329 -16.717   4.492  1.00  0.00     0.217 HD
ENDBRANCH  28  29
ENDBRANCH   1  22
TORSDOF 4
ENDMDL
