MODEL 1
REMARK VINA RESULT:      -8.9      0.000      0.000
REMARK  4 active torsions:
REMARK  status: ('A' for Active; 'I' for Inactive)
REMARK    1  A    between atoms: C_6  and  C_7 
REMARK    2  A    between atoms: C_10  and  N_11 
REMARK       I    between atoms: N_11  and  C_12 
REMARK    3  A    between atoms: C_24  and  C_25 
REMARK       I    between atoms: C_25  and  N_26 
REMARK    4  A    between atoms: N_26  and  C_27 
ROOT
HETATM    1  C   UNL     1      41.368 -15.437  -0.766  1.00  0.00     0.070 C 
HETATM    2  C   UNL     1      41.803 -15.871   0.612  1.00  0.00     0.037 C 
HETATM    3  N   UNL     1      42.982 -16.608   0.656  1.00  0.00    -0.193 N 
HETATM    4  C   UNL     1      43.315 -17.402   1.693  1.00  0.00     0.709 A 
HETATM    5  N   UNL     1      42.614 -17.290   2.867  1.00  0.00    -0.165 N 
HETATM    6  C   UNL     1      41.560 -16.287   3.072  1.00  0.00     0.182 C 
HETATM    7  N   UNL     1      44.213 -18.352   1.753  1.00  0.00    -0.062 NA
HETATM    8  C   UNL     1      44.045 -18.919   2.997  1.00  0.00     0.103 A 
HETATM    9  C   UNL     1      43.037 -18.278   3.718  1.00  0.00     0.082 A 
HETATM   10  C   UNL     1      44.715 -20.006   3.578  1.00  0.00     0.034 A 
HETATM   11  C   UNL     1      44.345 -20.420   4.863  1.00  0.00     0.002 A 
HETATM   12  C   UNL     1      43.332 -19.761   5.563  1.00  0.00     0.002 A 
HETATM   13  C   UNL     1      42.655 -18.669   5.006  1.00  0.00     0.032 A 
HETATM   14  C   UNL     1      41.096 -15.679   1.754  1.00  0.00     0.061 C 
HETATM   15  H   UNL     1      43.434 -16.814  -0.233  1.00  0.00     0.184 HD
ENDROOT
BRANCH   6  16
HETATM   16  C   UNL     1      42.033 -15.233   4.072  1.00  0.00    -0.030 A 
HETATM   17  C   UNL     1      43.313 -14.662   3.998  1.00  0.00     0.012 A 
HETATM   18  C   UNL     1      43.756 -13.753   4.966  1.00  0.00     0.030 A 
HETATM   19  C   UNL     1      42.928 -13.386   6.025  1.00  0.00     0.034 A 
HETATM   20  C   UNL     1      41.634 -13.918   6.082  1.00  0.00     0.030 A 
HETATM   21  C   UNL     1      41.187 -14.826   5.114  1.00  0.00     0.012 A 
BRANCH  19  22
HETATM   22  N   UNL     1      43.320 -12.527   7.073  1.00  0.00    -0.328 N 
HETATM   23  C   UNL     1      44.246 -12.783   8.069  1.00  0.00     0.218 C 
HETATM   24  C   UNL     1      44.329 -11.660   9.073  1.00  0.00     0.117 C 
HETATM   25  O   UNL     1      44.966 -13.769   8.174  1.00  0.00    -0.274 OA
HETATM   26  H   UNL     1      42.855 -11.629   7.106  1.00  0.00     0.169 HD
ENDBRANCH  19  22
ENDBRANCH   6  16
BRANCH  14  27
HETATM   27  C   UNL     1      39.746 -15.048   1.832  1.00  0.00     0.256 C 
HETATM   28  N   UNL     1      39.749 -13.675   1.729  1.00  0.00    -0.323 N 
HETATM   29  H   UNL     1      40.651 -13.216   1.711  1.00  0.00     0.169 HD
HETATM   30  O   UNL     1      38.772 -15.770   2.010  1.00  0.00    -0.267 OA
BRANCH  28  31
HETATM   31  C   UNL     1      38.626 -12.835   1.555  1.00  0.00     0.035 A 
HETATM   32  C   UNL     1      37.626 -13.055   0.605  1.00  0.00     0.029 A 
HETATM   33  C   UNL     1      36.574 -12.146   0.456  1.00  0.00     0.002 A 
HETATM   34  C   UNL     1      36.514 -11.005   1.251  1.00  0.00     0.000 A 
HETATM   35  C   UNL     1      37.503 -10.778   2.205  1.00  0.00     0.002 A 
HETATM   36  C   UNL     1      38.551 -11.691   2.359  1.00  0.00     0.029 A 
ENDBRANCH  28  31
ENDBRANCH  14  27
TORSDOF 4
ENDMDL
MODEL 2
REMARK VINA RESULT:      -8.9      2.297      6.768
REMARK  4 active torsions:
REMARK  status: ('A' for Active; 'I' for Inactive)
REMARK    1  A    between atoms: C_6  and  C_7 
REMARK    2  A    between atoms: C_10  and  N_11 
REMARK       I    between atoms: N_11  and  C_12 
REMARK    3  A    between atoms: C_24  and  C_25 
REMARK       I    between atoms: C_25  and  N_26 
REMARK    4  A    between atoms: N_26  and  C_27 
ROOT
HETATM    1  C   UNL     1      43.667 -16.668   8.813  1.00  0.00     0.070 C 
HETATM    2  C   UNL     1      43.410 -16.513   7.335  1.00  0.00     0.037 C 
HETATM    3  N   UNL     1      42.872 -17.632   6.707  1.00  0.00    -0.193 N 
HETATM    4  C   UNL     1      42.944 -17.834   5.376  1.00  0.00     0.709 A 
HETATM    5  N   UNL     1      43.317 -16.792   4.566  1.00  0.00    -0.165 N 
HETATM    6  C   UNL     1      43.574 -15.439   5.076  1.00  0.00     0.182 C 
HETATM    7  N   UNL     1      42.754 -18.935   4.695  1.00  0.00    -0.062 NA
HETATM    8  C   UNL     1      43.078 -18.608   3.397  1.00  0.00     0.103 A 
HETATM    9  C   UNL     1      43.448 -17.267   3.286  1.00  0.00     0.082 A 
HETATM   10  C   UNL     1      43.094 -19.419   2.252  1.00  0.00     0.034 A 
HETATM   11  C   UNL     1      43.490 -18.857   1.032  1.00  0.00     0.002 A 
HETATM   12  C   UNL     1      43.856 -17.512   0.949  1.00  0.00     0.002 A 
HETATM   13  C   UNL     1      43.840 -16.683   2.077  1.00  0.00     0.032 A 
HETATM   14  C   UNL     1      43.747 -15.431   6.590  1.00  0.00     0.061 C 
HETATM   15  H   UNL     1      42.723 -18.459   7.281  1.00  0.00     0.184 HD
ENDROOT
BRANCH   6  16
HETATM   16  C   UNL     1      42.474 -14.489   4.604  1.00  0.00    -0.030 A 
HETATM   17  C   UNL     1      41.120 -14.719   4.896  1.00  0.00     0.012 A 
HETATM   18  C   UNL     1      40.120 -13.879   4.392  1.00  0.00     0.030 A 
HETATM   19  C   UNL     1      40.449 -12.784   3.595  1.00  0.00     0.034 A 
HETATM   20  C   UNL     1      41.800 -12.523   3.336  1.00  0.00     0.030 A 
HETATM   21  C   UNL     1      42.803 -13.361   3.839  1.00  0.00     0.012 A 
BRANCH  19  22
HETATM   22  N   UNL     1      39.499 -11.928   2.999  1.00  0.00    -0.328 N 
HETATM   23  C   UNL     1      38.516 -11.190   3.634  1.00  0.00     0.218 C 
HETATM   24  C   UNL     1      37.624 -10.468   2.655  1.00  0.00     0.117 C 
HETATM   25  O   UNL     1      38.346 -11.068   4.841  1.00  0.00    -0.274 OA
HETATM   26  H   UNL     1      39.533 -11.865   1.989  1.00  0.00     0.169 HD
ENDBRANCH  19  22
ENDBRANCH   6  16
BRANCH  14  27
HETATM   27  C   UNL     1      44.470 -14.229   7.100  1.00  0.00     0.256 C 
HETATM   28  N   UNL     1      43.752 -13.462   7.989  1.00  0.00    -0.323 N 
HETATM   29  H   UNL     1      42.784 -13.716   8.139  1.00  0.00     0.169 HD
HETATM   30  O   UNL     1      45.599 -14.003   6.678  1.00  0.00    -0.267 OA
BRANCH  28  31
HETATM   31  C   UNL     1      44.243 -12.406   8.787  1.00  0.00     0.035 A 
HETATM   32  C   UNL     1      45.559 -12.322   9.249  1.00  0.00     0.029 A 
HETATM   33  C   UNL     1      45.955 -11.272  10.084  1.00  0.00     0.002 A 
HETATM   34  C   UNL     1      45.038 -10.299  10.470  1.00  0.00     0.000 A 
HETATM   35  C   UNL     1      43.724 -10.369  10.012  1.00  0.00     0.002 A 
HETATM   36  C   UNL     1      43.331 -11.415   9.172  1.00  0.00     0.029 A 
ENDBRANCH  28  31
ENDBRANCH  14  27
TORSDOF 4
ENDMDL
MODEL 3
REMARK VINA RESULT:      -8.8      2.655      8.125
REMARK  4 active torsions:
REMARK  status: ('A' for Active; 'I' for Inactive)
REMARK    1  A    between atoms: C_6  and  C_7 
REMARK    2  A    between atoms: C_10  and  N_11 
REMARK       I    between atoms: N_11  and  C_12 
REMARK    3  A    between atoms: C_24  and  C_25 
REMARK       I    between atoms: C_25  and  N_26 
REMARK    4  A    between atoms: N_26  and  C_27 
ROOT
HETATM    1  C   UNL     1      45.052 -16.602   6.389  1.00  0.00     0.070 C 
HETATM    2  C   UNL     1      43.967 -15.785   5.733  1.00  0.00     0.037 C 
HETATM    3  N   UNL     1      43.953 -14.436   6.076  1.00  0.00    -0.193 N 
HETATM    4  C   UNL     1      42.867 -13.651   5.925  1.00  0.00     0.709 A 
HETATM    5  N   UNL     1      41.819 -14.105   5.166  1.00  0.00    -0.165 N 
HETATM    6  C   UNL     1      41.854 -15.384   4.445  1.00  0.00     0.182 C 
HETATM    7  N   UNL     1      42.612 -12.482   6.454  1.00  0.00    -0.062 NA
HETATM    8  C   UNL     1      41.321 -12.195   6.071  1.00  0.00     0.103 A 
HETATM    9  C   UNL     1      40.790 -13.205   5.268  1.00  0.00     0.082 A 
HETATM   10  C   UNL     1      40.524 -11.085   6.390  1.00  0.00     0.034 A 
HETATM   11  C   UNL     1      39.214 -11.029   5.897  1.00  0.00     0.002 A 
HETATM   12  C   UNL     1      38.708 -12.054   5.094  1.00  0.00     0.002 A 
HETATM   13  C   UNL     1      39.488 -13.167   4.758  1.00  0.00     0.032 A 
HETATM   14  C   UNL     1      42.985 -16.279   4.937  1.00  0.00     0.061 C 
HETATM   15  H   UNL     1      44.646 -14.122   6.751  1.00  0.00     0.184 HD
ENDROOT
BRANCH   6  16
HETATM   16  C   UNL     1      41.918 -15.131   2.939  1.00  0.00    -0.030 A 
HETATM   17  C   UNL     1      42.393 -13.921   2.410  1.00  0.00     0.012 A 
HETATM   18  C   UNL     1      42.374 -13.677   1.032  1.00  0.00     0.030 A 
HETATM   19  C   UNL     1      41.889 -14.641   0.149  1.00  0.00     0.034 A 
HETATM   20  C   UNL     1      41.455 -15.867   0.665  1.00  0.00     0.030 A 
HETATM   21  C   UNL     1      41.473 -16.114   2.043  1.00  0.00     0.012 A 
BRANCH  19  22
HETATM   22  N   UNL     1      41.779 -14.449  -1.244  1.00  0.00    -0.328 N 
HETATM   23  C   UNL     1      40.627 -14.208  -1.972  1.00  0.00     0.218 C 
HETATM   24  C   UNL     1      40.890 -14.156  -3.456  1.00  0.00     0.117 C 
HETATM   25  O   UNL     1      39.498 -14.023  -1.531  1.00  0.00    -0.274 OA
HETATM   26  H   UNL     1      42.641 -14.515  -1.770  1.00  0.00     0.169 HD
ENDBRANCH  19  22
ENDBRANCH   6  16
BRANCH  14  27
HETATM   27  C   UNL     1      42.787 -17.722   4.616  1.00  0.00     0.256 C 
HETATM   28  N   UNL     1      43.711 -18.247   3.740  1.00  0.00    -0.323 N 
HETATM   29  H   UNL     1      44.367 -17.600   3.322  1.00  0.00     0.169 HD
HETATM   30  O   UNL     1      41.829 -18.305   5.111  1.00  0.00    -0.267 OA
BRANCH  28  31
HETATM   31  C   UNL     1      43.902 -19.610   3.425  1.00  0.00     0.035 A 
HETATM   32  C   UNL     1      44.528 -20.528   4.272  1.00  0.00     0.029 A 
HETATM   33  C   UNL     1      44.730 -21.850   3.865  1.00  0.00     0.002 A 
HETATM   34  C   UNL     1      44.313 -22.267   2.604  1.00  0.00     0.000 A 
HETATM   35  C   UNL     1      43.683 -21.363   1.752  1.00  0.00     0.002 A 
HETATM   36  C   UNL     1      43.474 -20.043   2.163  1.00  0.00     0.029 A 
ENDBRANCH  28  31
ENDBRANCH  14  27
TORSDOF 4
ENDMDL
MODEL 4
REMARK VINA RESULT:      -8.7      1.632      2.097
REMARK  4 active torsions:
REMARK  status: ('A' for Active; 'I' for Inactive)
REMARK    1  A    between atoms: C_6  and  C_7 
REMARK    2  A    between atoms: C_10  and  N_11 
REMARK       I    between atoms: N_11  and  C_12 
REMARK    3  A    between atoms: C_24  and  C_25 
REMARK       I    between atoms: C_25  and  N_26 
REMARK    4  A    between atoms: N_26  and  C_27 
ROOT
HETATM    1  C   UNL     1      41.939 -15.292   0.679  1.00  0.00     0.070 C 
HETATM    2  C   UNL     1      42.466 -15.944   1.933  1.00  0.00     0.037 C 
HETATM    3  N   UNL     1      43.487 -16.869   1.735  1.00  0.00    -0.193 N 
HETATM    4  C   UNL     1      43.803 -17.820   2.638  1.00  0.00     0.709 A 
HETATM    5  N   UNL     1      43.296 -17.723   3.909  1.00  0.00    -0.165 N 
HETATM    6  C   UNL     1      42.480 -16.587   4.356  1.00  0.00     0.182 C 
HETATM    7  N   UNL     1      44.512 -18.908   2.479  1.00  0.00    -0.062 NA
HETATM    8  C   UNL     1      44.410 -19.574   3.680  1.00  0.00     0.103 A 
HETATM    9  C   UNL     1      43.640 -18.858   4.597  1.00  0.00     0.082 A 
HETATM   10  C   UNL     1      44.941 -20.817   4.057  1.00  0.00     0.034 A 
HETATM   11  C   UNL     1      44.675 -21.304   5.342  1.00  0.00     0.002 A 
HETATM   12  C   UNL     1      43.901 -20.566   6.241  1.00  0.00     0.002 A 
HETATM   13  C   UNL     1      43.367 -19.320   5.889  1.00  0.00     0.032 A 
HETATM   14  C   UNL     1      41.964 -15.766   3.181  1.00  0.00     0.061 C 
HETATM   15  H   UNL     1      43.771 -17.048   0.774  1.00  0.00     0.184 HD
ENDROOT
BRANCH   6  16
HETATM   16  C   UNL     1      43.265 -15.746   5.361  1.00  0.00    -0.030 A 
HETATM   17  C   UNL     1      43.312 -16.073   6.725  1.00  0.00     0.012 A 
HETATM   18  C   UNL     1      43.974 -15.249   7.644  1.00  0.00     0.030 A 
HETATM   19  C   UNL     1      44.614 -14.086   7.219  1.00  0.00     0.034 A 
HETATM   20  C   UNL     1      44.610 -13.777   5.854  1.00  0.00     0.030 A 
HETATM   21  C   UNL     1      43.949 -14.598   4.933  1.00  0.00     0.012 A 
BRANCH  19  22
HETATM   22  N   UNL     1      45.248 -13.173   8.087  1.00  0.00    -0.328 N 
HETATM   23  C   UNL     1      44.705 -12.033   8.653  1.00  0.00     0.218 C 
HETATM   24  C   UNL     1      45.720 -11.252   9.450  1.00  0.00     0.117 C 
HETATM   25  O   UNL     1      43.542 -11.653   8.580  1.00  0.00    -0.274 OA
HETATM   26  H   UNL     1      46.218 -13.368   8.303  1.00  0.00     0.169 HD
ENDBRANCH  19  22
ENDBRANCH   6  16
BRANCH  14  27
HETATM   27  C   UNL     1      40.775 -14.928   3.515  1.00  0.00     0.256 C 
HETATM   28  N   UNL     1      41.014 -13.572   3.528  1.00  0.00    -0.323 N 
HETATM   29  H   UNL     1      41.973 -13.273   3.411  1.00  0.00     0.169 HD
HETATM   30  O   UNL     1      39.718 -15.492   3.778  1.00  0.00    -0.267 OA
BRANCH  28  31
HETATM   31  C   UNL     1      40.050 -12.542   3.597  1.00  0.00     0.035 A 
HETATM   32  C   UNL     1      39.191 -12.204   2.548  1.00  0.00     0.029 A 
HETATM   33  C   UNL     1      38.301 -11.133   2.675  1.00  0.00     0.002 A 
HETATM   34  C   UNL     1      38.265 -10.386   3.849  1.00  0.00     0.000 A 
HETATM   35  C   UNL     1      39.113 -10.716   4.902  1.00  0.00     0.002 A 
HETATM   36  C   UNL     1      39.997 -11.792   4.778  1.00  0.00     0.029 A 
ENDBRANCH  28  31
ENDBRANCH  14  27
TORSDOF 4
ENDMDL
MODEL 5
REMARK VINA RESULT:      -8.5      2.816      7.056
REMARK  4 active torsions:
REMARK  status: ('A' for Active; 'I' for Inactive)
REMARK    1  A    between atoms: C_6  and  C_7 
REMARK    2  A    between atoms: C_10  and  N_11 
REMARK       I    between atoms: N_11  and  C_12 
REMARK    3  A    between atoms: C_24  and  C_25 
REMARK       I    between atoms: C_25  and  N_26 
REMARK    4  A    between atoms: N_26  and  C_27 
ROOT
HETATM    1  C   UNL     1      40.837 -17.722   0.704  1.00  0.00     0.070 C 
HETATM    2  C   UNL     1      40.924 -16.242   0.978  1.00  0.00     0.037 C 
HETATM    3  N   UNL     1      40.039 -15.452   0.251  1.00  0.00    -0.193 N 
HETATM    4  C   UNL     1      40.223 -14.131   0.055  1.00  0.00     0.709 A 
HETATM    5  N   UNL     1      41.161 -13.472   0.809  1.00  0.00    -0.165 N 
HETATM    6  C   UNL     1      41.928 -14.127   1.877  1.00  0.00     0.182 C 
HETATM    7  N   UNL     1      39.660 -13.337  -0.820  1.00  0.00    -0.062 NA
HETATM    8  C   UNL     1      40.303 -12.129  -0.667  1.00  0.00     0.103 A 
HETATM    9  C   UNL     1      41.262 -12.186   0.344  1.00  0.00     0.082 A 
HETATM   10  C   UNL     1      40.127 -10.932  -1.377  1.00  0.00     0.034 A 
HETATM   11  C   UNL     1      40.929  -9.830  -1.053  1.00  0.00     0.002 A 
HETATM   12  C   UNL     1      41.882  -9.915  -0.036  1.00  0.00     0.002 A 
HETATM   13  C   UNL     1      42.069 -11.097   0.690  1.00  0.00     0.032 A 
HETATM   14  C   UNL     1      41.838 -15.646   1.785  1.00  0.00     0.061 C 
HETATM   15  H   UNL     1      39.434 -15.926  -0.416  1.00  0.00     0.184 HD
ENDROOT
BRANCH   6  16
HETATM   16  C   UNL     1      41.483 -13.594   3.238  1.00  0.00    -0.030 A 
HETATM   17  C   UNL     1      42.317 -12.783   4.024  1.00  0.00     0.012 A 
HETATM   18  C   UNL     1      41.923 -12.365   5.301  1.00  0.00     0.030 A 
HETATM   19  C   UNL     1      40.683 -12.739   5.818  1.00  0.00     0.034 A 
HETATM   20  C   UNL     1      39.829 -13.510   5.022  1.00  0.00     0.030 A 
HETATM   21  C   UNL     1      40.219 -13.929   3.744  1.00  0.00     0.012 A 
BRANCH  19  22
HETATM   22  N   UNL     1      40.239 -12.412   7.116  1.00  0.00    -0.328 N 
HETATM   23  C   UNL     1      39.539 -11.285   7.508  1.00  0.00     0.218 C 
HETATM   24  C   UNL     1      39.325 -11.236   9.000  1.00  0.00     0.117 C 
HETATM   25  O   UNL     1      39.091 -10.404   6.784  1.00  0.00    -0.274 OA
HETATM   26  H   UNL     1      40.480 -13.073   7.845  1.00  0.00     0.169 HD
ENDBRANCH  19  22
ENDBRANCH   6  16
BRANCH  14  27
HETATM   27  C   UNL     1      42.941 -16.352   2.499  1.00  0.00     0.256 C 
HETATM   28  N   UNL     1      42.548 -17.470   3.200  1.00  0.00    -0.323 N 
HETATM   29  H   UNL     1      41.554 -17.654   3.252  1.00  0.00     0.169 HD
HETATM   30  O   UNL     1      44.072 -15.881   2.440  1.00  0.00    -0.267 OA
BRANCH  28  31
HETATM   31  C   UNL     1      43.387 -18.443   3.785  1.00  0.00     0.035 A 
HETATM   32  C   UNL     1      43.822 -18.405   5.112  1.00  0.00     0.029 A 
HETATM   33  C   UNL     1      44.699 -19.378   5.602  1.00  0.00     0.002 A 
HETATM   34  C   UNL     1      45.155 -20.395   4.768  1.00  0.00     0.000 A 
HETATM   35  C   UNL     1      44.725 -20.446   3.444  1.00  0.00     0.002 A 
HETATM   36  C   UNL     1      43.842 -19.478   2.957  1.00  0.00     0.029 A 
ENDBRANCH  28  31
ENDBRANCH  14  27
TORSDOF 4
ENDMDL
MODEL 6
REMARK VINA RESULT:      -8.3      2.892      7.310
REMARK  4 active torsions:
REMARK  status: ('A' for Active; 'I' for Inactive)
REMARK    1  A    between atoms: C_6  and  C_7 
REMARK    2  A    between atoms: C_10  and  N_11 
REMARK       I    between atoms: N_11  and  C_12 
REMARK    3  A    between atoms: C_24  and  C_25 
REMARK       I    between atoms: C_25  and  N_26 
REMARK    4  A    between atoms: N_26  and  C_27 
ROOT
HETATM    1  C   UNL     1      41.525 -17.988   1.035  1.00  0.00     0.070 C 
HETATM    2  C   UNL     1      41.445 -16.510   0.747  1.00  0.00     0.037 C 
HETATM    3  N   UNL     1      41.018 -16.178  -0.535  1.00  0.00    -0.193 N 
HETATM    4  C   UNL     1      41.256 -14.977  -1.101  1.00  0.00     0.709 A 
HETATM    5  N   UNL     1      41.696 -13.946  -0.312  1.00  0.00    -0.165 N 
HETATM    6  C   UNL     1      41.851 -14.067   1.144  1.00  0.00     0.182 C 
HETATM    7  N   UNL     1      41.182 -14.627  -2.360  1.00  0.00    -0.062 NA
HETATM    8  C   UNL     1      41.651 -13.333  -2.395  1.00  0.00     0.103 A 
HETATM    9  C   UNL     1      41.994 -12.880  -1.121  1.00  0.00     0.082 A 
HETATM   10  C   UNL     1      41.828 -12.480  -3.495  1.00  0.00     0.034 A 
HETATM   11  C   UNL     1      42.353 -11.200  -3.279  1.00  0.00     0.002 A 
HETATM   12  C   UNL     1      42.688 -10.772  -1.993  1.00  0.00     0.002 A 
HETATM   13  C   UNL     1      42.512 -11.603  -0.880  1.00  0.00     0.032 A 
HETATM   14  C   UNL     1      41.839 -15.524   1.593  1.00  0.00     0.061 C 
HETATM   15  H   UNL     1      40.824 -16.946  -1.173  1.00  0.00     0.184 HD
ENDROOT
BRANCH   6  16
HETATM   16  C   UNL     1      40.790 -13.226   1.851  1.00  0.00    -0.030 A 
HETATM   17  C   UNL     1      39.419 -13.390   1.594  1.00  0.00     0.012 A 
HETATM   18  C   UNL     1      38.466 -12.559   2.195  1.00  0.00     0.030 A 
HETATM   19  C   UNL     1      38.859 -11.552   3.075  1.00  0.00     0.034 A 
HETATM   20  C   UNL     1      40.220 -11.411   3.371  1.00  0.00     0.030 A 
HETATM   21  C   UNL     1      41.175 -12.241   2.772  1.00  0.00     0.012 A 
BRANCH  19  22
HETATM   22  N   UNL     1      37.968 -10.636   3.673  1.00  0.00    -0.328 N 
HETATM   23  C   UNL     1      37.445  -9.484   3.112  1.00  0.00     0.218 C 
HETATM   24  C   UNL     1      36.603  -8.705   4.092  1.00  0.00     0.117 C 
HETATM   25  O   UNL     1      37.583  -9.093   1.959  1.00  0.00    -0.274 OA
HETATM   26  H   UNL     1      37.699 -10.838   4.627  1.00  0.00     0.169 HD
ENDBRANCH  19  22
ENDBRANCH   6  16
BRANCH  14  27
HETATM   27  C   UNL     1      42.461 -15.740   2.931  1.00  0.00     0.256 C 
HETATM   28  N   UNL     1      41.755 -16.580   3.763  1.00  0.00    -0.323 N 
HETATM   29  H   UNL     1      40.848 -16.891   3.440  1.00  0.00     0.169 HD
HETATM   30  O   UNL     1      43.501 -15.146   3.196  1.00  0.00    -0.267 OA
BRANCH  28  31
HETATM   31  C   UNL     1      42.198 -17.131   4.986  1.00  0.00     0.035 A 
HETATM   32  C   UNL     1      42.010 -16.524   6.230  1.00  0.00     0.029 A 
HETATM   33  C   UNL     1      42.528 -17.106   7.391  1.00  0.00     0.002 A 
HETATM   34  C   UNL     1      43.244 -18.298   7.319  1.00  0.00     0.000 A 
HETATM   35  C   UNL     1      43.433 -18.915   6.085  1.00  0.00     0.002 A 
HETATM   36  C   UNL     1      42.909 -18.337   4.926  1.00  0.00     0.029 A 
ENDBRANCH  28  31
ENDBRANCH  14  27
TORSDOF 4
ENDMDL
MODEL 7
REMARK VINA RESULT:      -8.3      1.845      2.075
REMARK  4 active torsions:
REMARK  status: ('A' for Active; 'I' for Inactive)
REMARK    1  A    between atoms: C_6  and  C_7 
REMARK    2  A    between atoms: C_10  and  N_11 
REMARK       I    between atoms: N_11  and  C_12 
REMARK    3  A    between atoms: C_24  and  C_25 
REMARK       I    between atoms: C_25  and  N_26 
REMARK    4  A    between atoms: N_26  and  C_27 
ROOT
HETATM    1  C   UNL     1      40.499 -13.964  -1.181  1.00  0.00     0.070 C 
HETATM    2  C   UNL     1      40.886 -14.497   0.176  1.00  0.00     0.037 C 
HETATM    3  N   UNL     1      42.117 -15.144   0.229  1.00  0.00    -0.193 N 
HETATM    4  C   UNL     1      42.452 -16.009   1.207  1.00  0.00     0.709 A 
HETATM    5  N   UNL     1      41.677 -16.065   2.337  1.00  0.00    -0.165 N 
HETATM    6  C   UNL     1      40.535 -15.171   2.565  1.00  0.00     0.182 C 
HETATM    7  N   UNL     1      43.419 -16.889   1.237  1.00  0.00    -0.062 NA
HETATM    8  C   UNL     1      43.226 -17.586   2.409  1.00  0.00     0.103 A 
HETATM    9  C   UNL     1      42.128 -17.098   3.118  1.00  0.00     0.082 A 
HETATM   10  C   UNL     1      43.948 -18.672   2.929  1.00  0.00     0.034 A 
HETATM   11  C   UNL     1      43.538 -19.237   4.142  1.00  0.00     0.002 A 
HETATM   12  C   UNL     1      42.435 -18.728   4.832  1.00  0.00     0.002 A 
HETATM   13  C   UNL     1      41.705 -17.641   4.336  1.00  0.00     0.032 A 
HETATM   14  C   UNL     1      40.100 -14.473   1.282  1.00  0.00     0.061 C 
HETATM   15  H   UNL     1      42.635 -15.227  -0.643  1.00  0.00     0.184 HD
ENDROOT
BRANCH   6  16
HETATM   16  C   UNL     1      40.861 -14.187   3.688  1.00  0.00    -0.030 A 
HETATM   17  C   UNL     1      42.009 -13.380   3.657  1.00  0.00     0.012 A 
HETATM   18  C   UNL     1      42.331 -12.540   4.730  1.00  0.00     0.030 A 
HETATM   19  C   UNL     1      41.508 -12.478   5.852  1.00  0.00     0.034 A 
HETATM   20  C   UNL     1      40.338 -13.246   5.872  1.00  0.00     0.030 A 
HETATM   21  C   UNL     1      40.013 -14.087   4.801  1.00  0.00     0.012 A 
BRANCH  19  22
HETATM   22  N   UNL     1      41.794 -11.706   6.998  1.00  0.00    -0.328 N 
HETATM   23  C   UNL     1      41.408 -10.401   7.251  1.00  0.00     0.218 C 
HETATM   24  C   UNL     1      41.987  -9.876   8.542  1.00  0.00     0.117 C 
HETATM   25  O   UNL     1      40.668  -9.702   6.569  1.00  0.00    -0.274 OA
HETATM   26  H   UNL     1      42.362 -12.156   7.704  1.00  0.00     0.169 HD
ENDBRANCH  19  22
ENDBRANCH   6  16
BRANCH  14  27
HETATM   27  C   UNL     1      38.702 -13.956   1.329  1.00  0.00     0.256 C 
HETATM   28  N   UNL     1      38.599 -12.586   1.421  1.00  0.00    -0.323 N 
HETATM   29  H   UNL     1      39.459 -12.068   1.548  1.00  0.00     0.169 HD
HETATM   30  O   UNL     1      37.779 -14.763   1.317  1.00  0.00    -0.267 OA
BRANCH  28  31
HETATM   31  C   UNL     1      37.429 -11.810   1.269  1.00  0.00     0.035 A 
HETATM   32  C   UNL     1      36.443 -12.062   0.312  1.00  0.00     0.029 A 
HETATM   33  C   UNL     1      35.338 -11.214   0.187  1.00  0.00     0.002 A 
HETATM   34  C   UNL     1      35.211 -10.103   1.015  1.00  0.00     0.000 A 
HETATM   35  C   UNL     1      36.184  -9.844   1.976  1.00  0.00     0.002 A 
HETATM   36  C   UNL     1      37.284 -10.696   2.106  1.00  0.00     0.029 A 
ENDBRANCH  28  31
ENDBRANCH  14  27
TORSDOF 4
ENDMDL
MODEL 8
REMARK VINA RESULT:      -8.1      2.876      6.662
REMARK  4 active torsions:
REMARK  status: ('A' for Active; 'I' for Inactive)
REMARK    1  A    between atoms: C_6  and  C_7 
REMARK    2  A    between atoms: C_10  and  N_11 
REMARK       I    between atoms: N_11  and  C_12 
REMARK    3  A    between atoms: C_24  and  C_25 
REMARK       I    between atoms: C_25  and  N_26 
REMARK    4  A    between atoms: N_26  and  C_27 
ROOT
HETATM    1  C   UNL     1      40.007 -11.912   4.305  1.00  0.00     0.070 C 
HETATM    2  C   UNL     1      41.086 -12.335   5.269  1.00  0.00     0.037 C 
HETATM    3  N   UNL     1      40.961 -11.827   6.558  1.00  0.00    -0.193 N 
HETATM    4  C   UNL     1      41.992 -11.755   7.424  1.00  0.00     0.709 A 
HETATM    5  N   UNL     1      43.145 -12.443   7.142  1.00  0.00    -0.165 N 
HETATM    6  C   UNL     1      43.284 -13.317   5.971  1.00  0.00     0.182 C 
HETATM    7  N   UNL     1      42.100 -11.058   8.526  1.00  0.00    -0.062 NA
HETATM    8  C   UNL     1      43.397 -11.255   8.943  1.00  0.00     0.103 A 
HETATM    9  C   UNL     1      44.085 -12.113   8.085  1.00  0.00     0.082 A 
HETATM   10  C   UNL     1      44.069 -10.713  10.049  1.00  0.00     0.034 A 
HETATM   11  C   UNL     1      45.414 -11.045  10.253  1.00  0.00     0.002 A 
HETATM   12  C   UNL     1      46.078 -11.907   9.378  1.00  0.00     0.002 A 
HETATM   13  C   UNL     1      45.425 -12.466   8.272  1.00  0.00     0.032 A 
HETATM   14  C   UNL     1      42.181 -13.070   4.948  1.00  0.00     0.061 C 
HETATM   15  H   UNL     1      40.179 -11.200   6.736  1.00  0.00     0.184 HD
ENDROOT
BRANCH   6  16
HETATM   16  C   UNL     1      43.356 -14.776   6.417  1.00  0.00    -0.030 A 
HETATM   17  C   UNL     1      44.581 -15.418   6.661  1.00  0.00     0.012 A 
HETATM   18  C   UNL     1      44.632 -16.776   6.995  1.00  0.00     0.030 A 
HETATM   19  C   UNL     1      43.460 -17.523   7.106  1.00  0.00     0.034 A 
HETATM   20  C   UNL     1      42.232 -16.880   6.907  1.00  0.00     0.030 A 
HETATM   21  C   UNL     1      42.178 -15.522   6.573  1.00  0.00     0.012 A 
BRANCH  19  22
HETATM   22  N   UNL     1      43.429 -18.906   7.377  1.00  0.00    -0.328 N 
HETATM   23  C   UNL     1      43.831 -19.937   6.546  1.00  0.00     0.218 C 
HETATM   24  C   UNL     1      43.555 -21.294   7.144  1.00  0.00     0.117 C 
HETATM   25  O   UNL     1      44.376 -19.836   5.453  1.00  0.00    -0.274 OA
HETATM   26  H   UNL     1      43.051 -19.172   8.278  1.00  0.00     0.169 HD
ENDBRANCH  19  22
ENDBRANCH   6  16
BRANCH  14  27
HETATM   27  C   UNL     1      42.522 -13.546   3.576  1.00  0.00     0.256 C 
HETATM   28  N   UNL     1      41.562 -14.338   2.988  1.00  0.00    -0.323 N 
HETATM   29  H   UNL     1      40.772 -14.605   3.560  1.00  0.00     0.169 HD
HETATM   30  O   UNL     1      43.611 -13.235   3.104  1.00  0.00    -0.267 OA
BRANCH  28  31
HETATM   31  C   UNL     1      41.512 -14.748   1.637  1.00  0.00     0.035 A 
HETATM   32  C   UNL     1      41.366 -13.872   0.559  1.00  0.00     0.029 A 
HETATM   33  C   UNL     1      41.269 -14.361  -0.748  1.00  0.00     0.002 A 
HETATM   34  C   UNL     1      41.310 -15.731  -0.988  1.00  0.00     0.000 A 
HETATM   35  C   UNL     1      41.460 -16.614   0.078  1.00  0.00     0.002 A 
HETATM   36  C   UNL     1      41.565 -16.125   1.383  1.00  0.00     0.029 A 
ENDBRANCH  28  31
ENDBRANCH  14  27
TORSDOF 4
ENDMDL
MODEL 9
REMARK VINA RESULT:      -8.0      3.019      7.944
REMARK  4 active torsions:
REMARK  status: ('A' for Active; 'I' for Inactive)
REMARK    1  A    between atoms: C_6  and  C_7 
REMARK    2  A    between atoms: C_10  and  N_11 
REMARK       I    between atoms: N_11  and  C_12 
REMARK    3  A    between atoms: C_24  and  C_25 
REMARK       I    between atoms: C_25  and  N_26 
REMARK    4  A    between atoms: N_26  and  C_27 
ROOT
HETATM    1  C   UNL     1      41.371 -17.324   0.623  1.00  0.00     0.070 C 
HETATM    2  C   UNL     1      41.189 -15.884   0.215  1.00  0.00     0.037 C 
HETATM    3  N   UNL     1      41.150 -15.657  -1.158  1.00  0.00    -0.193 N 
HETATM    4  C   UNL     1      41.392 -14.452  -1.711  1.00  0.00     0.709 A 
HETATM    5  N   UNL     1      41.416 -13.343  -0.903  1.00  0.00    -0.165 N 
HETATM    6  C   UNL     1      41.116 -13.398   0.533  1.00  0.00     0.182 C 
HETATM    7  N   UNL     1      41.674 -14.153  -2.953  1.00  0.00    -0.062 NA
HETATM    8  C   UNL     1      41.952 -12.805  -2.938  1.00  0.00     0.103 A 
HETATM    9  C   UNL     1      41.810 -12.268  -1.659  1.00  0.00     0.082 A 
HETATM   10  C   UNL     1      42.353 -11.967  -3.990  1.00  0.00     0.034 A 
HETATM   11  C   UNL     1      42.606 -10.617  -3.719  1.00  0.00     0.002 A 
HETATM   12  C   UNL     1      42.455 -10.106  -2.428  1.00  0.00     0.002 A 
HETATM   13  C   UNL     1      42.049 -10.922  -1.366  1.00  0.00     0.032 A 
HETATM   14  C   UNL     1      41.159 -14.826   1.064  1.00  0.00     0.061 C 
HETATM   15  H   UNL     1      41.273 -16.465  -1.764  1.00  0.00     0.184 HD
ENDROOT
BRANCH   6  16
HETATM   16  C   UNL     1      39.783 -12.706   0.813  1.00  0.00    -0.030 A 
HETATM   17  C   UNL     1      39.711 -11.487   1.505  1.00  0.00     0.012 A 
HETATM   18  C   UNL     1      38.477 -10.905   1.818  1.00  0.00     0.030 A 
HETATM   19  C   UNL     1      37.286 -11.522   1.438  1.00  0.00     0.034 A 
HETATM   20  C   UNL     1      37.351 -12.716   0.709  1.00  0.00     0.030 A 
HETATM   21  C   UNL     1      38.583 -13.300   0.394  1.00  0.00     0.012 A 
BRANCH  19  22
HETATM   22  N   UNL     1      36.005 -11.035   1.768  1.00  0.00    -0.328 N 
HETATM   23  C   UNL     1      35.109 -10.389   0.934  1.00  0.00     0.218 C 
HETATM   24  C   UNL     1      33.876  -9.925   1.670  1.00  0.00     0.117 C 
HETATM   25  O   UNL     1      35.223 -10.202  -0.271  1.00  0.00    -0.274 OA
HETATM   26  H   UNL     1      35.719 -11.157   2.732  1.00  0.00     0.169 HD
ENDBRANCH  19  22
ENDBRANCH   6  16
BRANCH  14  27
HETATM   27  C   UNL     1      41.347 -14.907   2.542  1.00  0.00     0.256 C 
HETATM   28  N   UNL     1      42.639 -15.164   2.942  1.00  0.00    -0.323 N 
HETATM   29  H   UNL     1      43.313 -15.370   2.217  1.00  0.00     0.169 HD
HETATM   30  O   UNL     1      40.365 -14.778   3.265  1.00  0.00    -0.267 OA
BRANCH  28  31
HETATM   31  C   UNL     1      43.151 -15.084   4.256  1.00  0.00     0.035 A 
HETATM   32  C   UNL     1      43.590 -13.899   4.853  1.00  0.00     0.029 A 
HETATM   33  C   UNL     1      44.137 -13.911   6.140  1.00  0.00     0.002 A 
HETATM   34  C   UNL     1      44.258 -15.108   6.840  1.00  0.00     0.000 A 
HETATM   35  C   UNL     1      43.820 -16.294   6.257  1.00  0.00     0.002 A 
HETATM   36  C   UNL     1      43.265 -16.281   4.974  1.00  0.00     0.029 A 
ENDBRANCH  28  31
ENDBRANCH  14  27
TORSDOF 4
ENDMDL
MODEL 10
REMARK VINA RESULT:      -7.9      2.368      5.901
REMARK  4 active torsions:
REMARK  status: ('A' for Active; 'I' for Inactive)
REMARK    1  A    between atoms: C_6  and  C_7 
REMARK    2  A    between atoms: C_10  and  N_11 
REMARK       I    between atoms: N_11  and  C_12 
REMARK    3  A    between atoms: C_24  and  C_25 
REMARK       I    between atoms: C_25  and  N_26 
REMARK    4  A    between atoms: N_26  and  C_27 
ROOT
HETATM    1  C   UNL     1      38.848 -12.614   2.578  1.00  0.00     0.070 C 
HETATM    2  C   UNL     1      40.090 -13.250   3.151  1.00  0.00     0.037 C 
HETATM    3  N   UNL     1      40.181 -13.226   4.539  1.00  0.00    -0.193 N 
HETATM    4  C   UNL     1      41.346 -13.370   5.202  1.00  0.00     0.709 A 
HETATM    5  N   UNL     1      42.448 -13.819   4.520  1.00  0.00    -0.165 N 
HETATM    6  C   UNL     1      42.399 -14.225   3.109  1.00  0.00     0.182 C 
HETATM    7  N   UNL     1      41.629 -13.086   6.448  1.00  0.00    -0.062 NA
HETATM    8  C   UNL     1      42.984 -13.304   6.560  1.00  0.00     0.103 A 
HETATM    9  C   UNL     1      43.530 -13.755   5.359  1.00  0.00     0.082 A 
HETATM   10  C   UNL     1      43.827 -13.119   7.667  1.00  0.00     0.034 A 
HETATM   11  C   UNL     1      45.194 -13.387   7.528  1.00  0.00     0.002 A 
HETATM   12  C   UNL     1      45.714 -13.838   6.313  1.00  0.00     0.002 A 
HETATM   13  C   UNL     1      44.891 -14.037   5.198  1.00  0.00     0.032 A 
HETATM   14  C   UNL     1      41.128 -13.736   2.425  1.00  0.00     0.061 C 
HETATM   15  H   UNL     1      39.428 -12.766   5.045  1.00  0.00     0.184 HD
ENDROOT
BRANCH   6  16
HETATM   16  C   UNL     1      42.584 -15.737   2.996  1.00  0.00    -0.030 A 
HETATM   17  C   UNL     1      41.881 -16.634   3.817  1.00  0.00     0.012 A 
HETATM   18  C   UNL     1      42.119 -18.012   3.752  1.00  0.00     0.030 A 
HETATM   19  C   UNL     1      43.055 -18.528   2.857  1.00  0.00     0.034 A 
HETATM   20  C   UNL     1      43.728 -17.644   2.005  1.00  0.00     0.030 A 
HETATM   21  C   UNL     1      43.492 -16.266   2.067  1.00  0.00     0.012 A 
BRANCH  19  22
HETATM   22  N   UNL     1      43.396 -19.893   2.774  1.00  0.00    -0.328 N 
HETATM   23  C   UNL     1      44.398 -20.555   3.462  1.00  0.00     0.218 C 
HETATM   24  C   UNL     1      44.528 -21.996   3.037  1.00  0.00     0.117 C 
HETATM   25  O   UNL     1      45.116 -20.097   4.344  1.00  0.00    -0.274 OA
HETATM   26  H   UNL     1      42.856 -20.446   2.119  1.00  0.00     0.169 HD
ENDBRANCH  19  22
ENDBRANCH   6  16
BRANCH  14  27
HETATM   27  C   UNL     1      41.235 -13.682   0.938  1.00  0.00     0.256 C 
HETATM   28  N   UNL     1      40.490 -14.632   0.274  1.00  0.00    -0.323 N 
HETATM   29  H   UNL     1      40.026 -15.330   0.840  1.00  0.00     0.169 HD
HETATM   30  O   UNL     1      41.979 -12.847   0.435  1.00  0.00    -0.267 OA
BRANCH  28  31
HETATM   31  C   UNL     1      40.228 -14.687  -1.112  1.00  0.00     0.035 A 
HETATM   32  C   UNL     1      39.259 -13.914  -1.756  1.00  0.00     0.029 A 
HETATM   33  C   UNL     1      39.020 -14.067  -3.125  1.00  0.00     0.002 A 
HETATM   34  C   UNL     1      39.744 -14.999  -3.864  1.00  0.00     0.000 A 
HETATM   35  C   UNL     1      40.716 -15.772  -3.234  1.00  0.00     0.002 A 
HETATM   36  C   UNL     1      40.959 -15.613  -1.867  1.00  0.00     0.029 A 
ENDBRANCH  28  31
ENDBRANCH  14  27
TORSDOF 4
ENDMDL
