MODEL 1
REMARK VINA RESULT:     -10.0      0.000      0.000
REMARK  5 active torsions:
REMARK  status: ('A' for Active; 'I' for Inactive)
REMARK    1  A    between atoms: C_9  and  C_10 
REMARK    2  A    between atoms: C_10  and  C_11 
REMARK       I    between atoms: C_11  and  N_12 
REMARK    3  A    between atoms: N_12  and  C_13 
REMARK    4  A    between atoms: C_13  and  C_14 
REMARK    5  A    between atoms: N_16  and  C_17 
ROOT
HETATM    1  C   UNL     1      40.273 -15.502   2.789  1.00  0.00     0.084 A 
HETATM    2  N   UNL     1      41.139 -15.417   3.757  1.00  0.00    -0.171 NA
HETATM    3  N   UNL     1      41.329 -14.221   4.401  1.00  0.00    -0.229 N 
HETATM    4  C   UNL     1      40.610 -13.061   4.110  1.00  0.00     0.275 A 
HETATM    5  O   UNL     1      40.745 -11.998   4.710  1.00  0.00    -0.266 OA
HETATM    6  C   UNL     1      39.624 -13.153   3.019  1.00  0.00     0.046 A 
HETATM    7  C   UNL     1      39.428 -14.363   2.362  1.00  0.00     0.008 A 
HETATM    8  C   UNL     1      38.870 -12.023   2.668  1.00  0.00     0.018 A 
HETATM    9  C   UNL     1      37.914 -12.108   1.659  1.00  0.00     0.001 A 
HETATM   10  C   UNL     1      37.705 -13.320   1.007  1.00  0.00     0.001 A 
HETATM   11  C   UNL     1      38.454 -14.448   1.357  1.00  0.00     0.014 A 
ENDROOT
BRANCH   1  12
HETATM   12  C   UNL     1      40.120 -16.862   2.109  1.00  0.00     0.184 C 
BRANCH  12  13
HETATM   13  N   UNL     1      41.415 -17.501   1.997  1.00  0.00    -0.355 N 
HETATM   14  C   UNL     1      42.298 -17.144   1.002  1.00  0.00     0.222 C 
HETATM   15  O   UNL     1      42.046 -16.260   0.186  1.00  0.00    -0.273 OA
HETATM   16  H   UNL     1      41.539 -18.383   2.487  1.00  0.00     0.162 HD
BRANCH  14  17
HETATM   17  C   UNL     1      43.614 -17.888   1.028  1.00  0.00     0.143 C 
BRANCH  17  18
HETATM   18  C   UNL     1      43.963 -18.600   2.300  1.00  0.00    -0.021 A 
HETATM   19  C   UNL     1      44.161 -19.996   2.580  1.00  0.00    -0.001 A 
HETATM   20  C   UNL     1      44.468 -20.114   3.942  1.00  0.00     0.044 A 
HETATM   21  C   UNL     1      44.114 -21.184   1.814  1.00  0.00     0.014 A 
HETATM   22  N   UNL     1      44.476 -18.841   4.465  1.00  0.00    -0.360 N 
HETATM   23  C   UNL     1      44.717 -21.353   4.557  1.00  0.00     0.030 A 
HETATM   24  C   UNL     1      44.781 -18.510   5.839  1.00  0.00     0.155 C 
HETATM   25  C   UNL     1      44.167 -17.931   3.496  1.00  0.00     0.099 A 
HETATM   26  C   UNL     1      44.654 -22.505   3.773  1.00  0.00     0.002 A 
HETATM   27  C   UNL     1      44.359 -22.424   2.418  1.00  0.00     0.001 A 
ENDBRANCH  17  18
ENDBRANCH  14  17
ENDBRANCH  12  13
ENDBRANCH   1  12
BRANCH   3  28
HETATM   28  C   UNL     1      42.225 -14.210   5.553  1.00  0.00     0.114 C 
HETATM   29  C   UNL     1      42.435 -15.606   6.141  1.00  0.00     0.027 C 
HETATM   30  C   UNL     1      43.653 -15.452   7.044  1.00  0.00     0.002 C 
HETATM   31  C   UNL     1      44.429 -14.244   6.513  1.00  0.00     0.002 C 
HETATM   32  C   UNL     1      43.661 -13.752   5.291  1.00  0.00     0.027 C 
ENDBRANCH   3  28
TORSDOF 5
ENDMDL
MODEL 2
REMARK VINA RESULT:      -9.7      1.164      1.238
REMARK  5 active torsions:
REMARK  status: ('A' for Active; 'I' for Inactive)
REMARK    1  A    between atoms: C_9  and  C_10 
REMARK    2  A    between atoms: C_10  and  C_11 
REMARK       I    between atoms: C_11  and  N_12 
REMARK    3  A    between atoms: N_12  and  C_13 
REMARK    4  A    between atoms: C_13  and  C_14 
REMARK    5  A    between atoms: N_16  and  C_17 
ROOT
HETATM    1  C   UNL     1      40.719 -14.587   1.146  1.00  0.00     0.084 A 
HETATM    2  N   UNL     1      41.486 -14.536   2.196  1.00  0.00    -0.171 NA
HETATM    3  N   UNL     1      41.203 -13.651   3.205  1.00  0.00    -0.229 N 
HETATM    4  C   UNL     1      40.096 -12.803   3.206  1.00  0.00     0.275 A 
HETATM    5  O   UNL     1      39.813 -12.039   4.125  1.00  0.00    -0.266 OA
HETATM    6  C   UNL     1      39.220 -12.862   2.022  1.00  0.00     0.046 A 
HETATM    7  C   UNL     1      39.503 -13.756   0.995  1.00  0.00     0.008 A 
HETATM    8  C   UNL     1      38.092 -12.031   1.952  1.00  0.00     0.018 A 
HETATM    9  C   UNL     1      37.242 -12.101   0.851  1.00  0.00     0.001 A 
HETATM   10  C   UNL     1      37.513 -13.003  -0.174  1.00  0.00     0.001 A 
HETATM   11  C   UNL     1      38.637 -13.833  -0.104  1.00  0.00     0.014 A 
ENDROOT
BRANCH   1  12
HETATM   12  C   UNL     1      41.098 -15.588   0.055  1.00  0.00     0.184 C 
BRANCH  12  13
HETATM   13  N   UNL     1      42.358 -16.220   0.389  1.00  0.00    -0.355 N 
HETATM   14  C   UNL     1      42.393 -17.430   1.045  1.00  0.00     0.222 C 
HETATM   15  O   UNL     1      41.371 -18.041   1.352  1.00  0.00    -0.273 OA
HETATM   16  H   UNL     1      43.188 -15.633   0.372  1.00  0.00     0.162 HD
BRANCH  14  17
HETATM   17  C   UNL     1      43.782 -17.968   1.307  1.00  0.00     0.143 C 
BRANCH  17  18
HETATM   18  C   UNL     1      44.019 -18.607   2.642  1.00  0.00    -0.021 A 
HETATM   19  C   UNL     1      44.244 -19.979   3.008  1.00  0.00    -0.001 A 
HETATM   20  C   UNL     1      44.404 -20.022   4.400  1.00  0.00     0.044 A 
HETATM   21  C   UNL     1      44.332 -21.199   2.301  1.00  0.00     0.014 A 
HETATM   22  N   UNL     1      44.301 -18.729   4.859  1.00  0.00    -0.360 N 
HETATM   23  C   UNL     1      44.637 -21.220   5.097  1.00  0.00     0.030 A 
HETATM   24  C   UNL     1      44.438 -18.324   6.240  1.00  0.00     0.155 C 
HETATM   25  C   UNL     1      44.061 -17.878   3.819  1.00  0.00     0.099 A 
HETATM   26  C   UNL     1      44.710 -22.407   4.367  1.00  0.00     0.002 A 
HETATM   27  C   UNL     1      44.562 -22.399   2.986  1.00  0.00     0.001 A 
ENDBRANCH  17  18
ENDBRANCH  14  17
ENDBRANCH  12  13
ENDBRANCH   1  12
BRANCH   3  28
HETATM   28  C   UNL     1      42.027 -13.717   4.410  1.00  0.00     0.114 C 
HETATM   29  C   UNL     1      41.780 -14.993   5.215  1.00  0.00     0.027 C 
HETATM   30  C   UNL     1      42.961 -15.062   6.177  1.00  0.00     0.002 C 
HETATM   31  C   UNL     1      44.085 -14.248   5.532  1.00  0.00     0.002 C 
HETATM   32  C   UNL     1      43.541 -13.760   4.194  1.00  0.00     0.027 C 
ENDBRANCH   3  28
TORSDOF 5
ENDMDL
MODEL 3
REMARK VINA RESULT:      -9.5      2.645      7.500
REMARK  5 active torsions:
REMARK  status: ('A' for Active; 'I' for Inactive)
REMARK    1  A    between atoms: C_9  and  C_10 
REMARK    2  A    between atoms: C_10  and  C_11 
REMARK       I    between atoms: C_11  and  N_12 
REMARK    3  A    between atoms: N_12  and  C_13 
REMARK    4  A    between atoms: C_13  and  C_14 
REMARK    5  A    between atoms: N_16  and  C_17 
ROOT
HETATM    1  C   UNL     1      43.836 -18.553   2.912  1.00  0.00     0.084 A 
HETATM    2  N   UNL     1      43.604 -17.530   3.684  1.00  0.00    -0.171 NA
HETATM    3  N   UNL     1      43.627 -17.685   5.046  1.00  0.00    -0.229 N 
HETATM    4  C   UNL     1      43.928 -18.888   5.685  1.00  0.00     0.275 A 
HETATM    5  O   UNL     1      43.991 -19.024   6.905  1.00  0.00    -0.266 OA
HETATM    6  C   UNL     1      44.198 -20.047   4.816  1.00  0.00     0.046 A 
HETATM    7  C   UNL     1      44.175 -19.896   3.434  1.00  0.00     0.008 A 
HETATM    8  C   UNL     1      44.500 -21.290   5.392  1.00  0.00     0.018 A 
HETATM    9  C   UNL     1      44.787 -22.384   4.578  1.00  0.00     0.001 A 
HETATM   10  C   UNL     1      44.779 -22.235   3.194  1.00  0.00     0.001 A 
HETATM   11  C   UNL     1      44.478 -20.996   2.619  1.00  0.00     0.014 A 
ENDROOT
BRANCH   1  12
HETATM   12  C   UNL     1      43.785 -18.311   1.403  1.00  0.00     0.184 C 
BRANCH  12  13
HETATM   13  N   UNL     1      43.459 -16.924   1.141  1.00  0.00    -0.355 N 
HETATM   14  C   UNL     1      42.181 -16.551   0.790  1.00  0.00     0.222 C 
HETATM   15  O   UNL     1      41.259 -17.359   0.709  1.00  0.00    -0.273 OA
HETATM   16  H   UNL     1      44.235 -16.294   0.960  1.00  0.00     0.162 HD
BRANCH  14  17
HETATM   17  C   UNL     1      41.995 -15.066   0.567  1.00  0.00     0.143 C 
BRANCH  17  18
HETATM   18  C   UNL     1      40.666 -14.624   0.034  1.00  0.00    -0.021 A 
HETATM   19  C   UNL     1      40.106 -14.696  -1.288  1.00  0.00    -0.001 A 
HETATM   20  C   UNL     1      38.823 -14.132  -1.233  1.00  0.00     0.044 A 
HETATM   21  C   UNL     1      40.552 -15.186  -2.536  1.00  0.00     0.014 A 
HETATM   22  N   UNL     1      38.605 -13.751   0.071  1.00  0.00    -0.360 N 
HETATM   23  C   UNL     1      37.992 -14.034  -2.361  1.00  0.00     0.030 A 
HETATM   24  C   UNL     1      37.387 -13.152   0.569  1.00  0.00     0.155 C 
HETATM   25  C   UNL     1      39.702 -14.032   0.834  1.00  0.00     0.099 A 
HETATM   26  C   UNL     1      38.468 -14.521  -3.579  1.00  0.00     0.002 A 
HETATM   27  C   UNL     1      39.732 -15.092  -3.668  1.00  0.00     0.001 A 
ENDBRANCH  17  18
ENDBRANCH  14  17
ENDBRANCH  12  13
ENDBRANCH   1  12
BRANCH   3  28
HETATM   28  C   UNL     1      43.476 -16.484   5.864  1.00  0.00     0.114 C 
HETATM   29  C   UNL     1      44.787 -16.063   6.527  1.00  0.00     0.027 C 
HETATM   30  C   UNL     1      44.528 -14.635   6.994  1.00  0.00     0.002 C 
HETATM   31  C   UNL     1      43.402 -14.094   6.110  1.00  0.00     0.002 C 
HETATM   32  C   UNL     1      43.064 -15.210   5.126  1.00  0.00     0.027 C 
ENDBRANCH   3  28
TORSDOF 5
ENDMDL
MODEL 4
REMARK VINA RESULT:      -9.4      4.640      9.215
REMARK  5 active torsions:
REMARK  status: ('A' for Active; 'I' for Inactive)
REMARK    1  A    between atoms: C_9  and  C_10 
REMARK    2  A    between atoms: C_10  and  C_11 
REMARK       I    between atoms: C_11  and  N_12 
REMARK    3  A    between atoms: N_12  and  C_13 
REMARK    4  A    between atoms: C_13  and  C_14 
REMARK    5  A    between atoms: N_16  and  C_17 
ROOT
HETATM    1  C   UNL     1      43.666 -14.774   6.177  1.00  0.00     0.084 A 
HETATM    2  N   UNL     1      43.916 -16.032   5.957  1.00  0.00    -0.171 NA
HETATM    3  N   UNL     1      42.973 -16.819   5.347  1.00  0.00    -0.229 N 
HETATM    4  C   UNL     1      41.741 -16.344   4.894  1.00  0.00     0.275 A 
HETATM    5  O   UNL     1      40.909 -17.033   4.309  1.00  0.00    -0.266 OA
HETATM    6  C   UNL     1      41.456 -14.918   5.135  1.00  0.00     0.046 A 
HETATM    7  C   UNL     1      42.408 -14.116   5.754  1.00  0.00     0.008 A 
HETATM    8  C   UNL     1      40.233 -14.375   4.713  1.00  0.00     0.018 A 
HETATM    9  C   UNL     1      39.967 -13.022   4.908  1.00  0.00     0.001 A 
HETATM   10  C   UNL     1      40.922 -12.211   5.516  1.00  0.00     0.001 A 
HETATM   11  C   UNL     1      42.142 -12.752   5.936  1.00  0.00     0.014 A 
ENDROOT
BRANCH   1  12
HETATM   12  C   UNL     1      44.757 -13.958   6.870  1.00  0.00     0.184 C 
BRANCH  12  13
HETATM   13  N   UNL     1      44.313 -13.574   8.195  1.00  0.00    -0.355 N 
HETATM   14  C   UNL     1      44.981 -12.609   8.915  1.00  0.00     0.222 C 
HETATM   15  O   UNL     1      45.959 -12.014   8.467  1.00  0.00    -0.273 OA
HETATM   16  H   UNL     1      43.681 -14.211   8.672  1.00  0.00     0.162 HD
BRANCH  14  17
HETATM   17  C   UNL     1      44.385 -12.307  10.272  1.00  0.00     0.143 C 
BRANCH  17  18
HETATM   18  C   UNL     1      43.466 -11.127  10.358  1.00  0.00    -0.021 A 
HETATM   19  C   UNL     1      43.194 -10.216  11.437  1.00  0.00    -0.001 A 
HETATM   20  C   UNL     1      42.243  -9.294  10.979  1.00  0.00     0.044 A 
HETATM   21  C   UNL     1      43.660 -10.072  12.763  1.00  0.00     0.014 A 
HETATM   22  N   UNL     1      41.962  -9.618   9.672  1.00  0.00    -0.360 N 
HETATM   23  C   UNL     1      41.744  -8.258  11.788  1.00  0.00     0.030 A 
HETATM   24  C   UNL     1      41.050  -8.894   8.814  1.00  0.00     0.155 C 
HETATM   25  C   UNL     1      42.679 -10.716   9.294  1.00  0.00     0.099 A 
HETATM   26  C   UNL     1      42.221  -8.151  13.095  1.00  0.00     0.002 A 
HETATM   27  C   UNL     1      43.168  -9.045  13.578  1.00  0.00     0.001 A 
ENDBRANCH  17  18
ENDBRANCH  14  17
ENDBRANCH  12  13
ENDBRANCH   1  12
BRANCH   3  28
HETATM   28  C   UNL     1      43.349 -18.192   5.020  1.00  0.00     0.114 C 
HETATM   29  C   UNL     1      43.793 -18.343   3.565  1.00  0.00     0.027 C 
HETATM   30  C   UNL     1      44.491 -19.698   3.526  1.00  0.00     0.002 C 
HETATM   31  C   UNL     1      44.951 -19.983   4.957  1.00  0.00     0.002 C 
HETATM   32  C   UNL     1      44.543 -18.767   5.783  1.00  0.00     0.027 C 
ENDBRANCH   3  28
TORSDOF 5
ENDMDL
MODEL 5
REMARK VINA RESULT:      -9.4      4.784      9.742
REMARK  5 active torsions:
REMARK  status: ('A' for Active; 'I' for Inactive)
REMARK    1  A    between atoms: C_9  and  C_10 
REMARK    2  A    between atoms: C_10  and  C_11 
REMARK       I    between atoms: C_11  and  N_12 
REMARK    3  A    between atoms: N_12  and  C_13 
REMARK    4  A    between atoms: C_13  and  C_14 
REMARK    5  A    between atoms: N_16  and  C_17 
ROOT
HETATM    1  C   UNL     1      43.838 -14.494   6.243  1.00  0.00     0.084 A 
HETATM    2  N   UNL     1      42.920 -13.729   5.726  1.00  0.00    -0.171 NA
HETATM    3  N   UNL     1      41.924 -14.280   4.961  1.00  0.00    -0.229 N 
HETATM    4  C   UNL     1      41.796 -15.648   4.723  1.00  0.00     0.275 A 
HETATM    5  O   UNL     1      40.883 -16.153   4.074  1.00  0.00    -0.266 OA
HETATM    6  C   UNL     1      42.828 -16.520   5.311  1.00  0.00     0.046 A 
HETATM    7  C   UNL     1      43.842 -15.967   6.087  1.00  0.00     0.008 A 
HETATM    8  C   UNL     1      42.766 -17.906   5.105  1.00  0.00     0.018 A 
HETATM    9  C   UNL     1      43.720 -18.740   5.684  1.00  0.00     0.001 A 
HETATM   10  C   UNL     1      44.729 -18.193   6.471  1.00  0.00     0.001 A 
HETATM   11  C   UNL     1      44.791 -16.811   6.678  1.00  0.00     0.014 A 
ENDROOT
BRANCH   1  12
HETATM   12  C   UNL     1      44.924 -13.813   7.076  1.00  0.00     0.184 C 
BRANCH  12  13
HETATM   13  N   UNL     1      44.396 -13.471   8.382  1.00  0.00    -0.355 N 
HETATM   14  C   UNL     1      44.859 -12.372   9.068  1.00  0.00     0.222 C 
HETATM   15  O   UNL     1      45.713 -11.619   8.604  1.00  0.00    -0.273 OA
HETATM   16  H   UNL     1      43.889 -14.199   8.879  1.00  0.00     0.162 HD
BRANCH  14  17
HETATM   17  C   UNL     1      44.198 -12.139  10.408  1.00  0.00     0.143 C 
BRANCH  17  18
HETATM   18  C   UNL     1      43.309 -10.937  10.523  1.00  0.00    -0.021 A 
HETATM   19  C   UNL     1      43.075 -10.034  11.617  1.00  0.00    -0.001 A 
HETATM   20  C   UNL     1      42.141  -9.082  11.184  1.00  0.00     0.044 A 
HETATM   21  C   UNL     1      43.562  -9.920  12.939  1.00  0.00     0.014 A 
HETATM   22  N   UNL     1      41.835  -9.382   9.877  1.00  0.00    -0.360 N 
HETATM   23  C   UNL     1      41.679  -8.046  12.014  1.00  0.00     0.030 A 
HETATM   24  C   UNL     1      40.930  -8.624   9.042  1.00  0.00     0.155 C 
HETATM   25  C   UNL     1      42.519 -10.492   9.475  1.00  0.00     0.099 A 
HETATM   26  C   UNL     1      42.176  -7.969  13.315  1.00  0.00     0.002 A 
HETATM   27  C   UNL     1      43.107  -8.892  13.774  1.00  0.00     0.001 A 
ENDBRANCH  17  18
ENDBRANCH  14  17
ENDBRANCH  12  13
ENDBRANCH   1  12
BRANCH   3  28
HETATM   28  C   UNL     1      40.857 -13.393   4.503  1.00  0.00     0.114 C 
HETATM   29  C   UNL     1      39.825 -13.113   5.595  1.00  0.00     0.027 C 
HETATM   30  C   UNL     1      39.045 -11.911   5.072  1.00  0.00     0.002 C 
HETATM   31  C   UNL     1      39.972 -11.198   4.085  1.00  0.00     0.002 C 
HETATM   32  C   UNL     1      41.280 -11.983   4.089  1.00  0.00     0.027 C 
ENDBRANCH   3  28
TORSDOF 5
ENDMDL
MODEL 6
REMARK VINA RESULT:      -9.4      0.706      1.894
REMARK  5 active torsions:
REMARK  status: ('A' for Active; 'I' for Inactive)
REMARK    1  A    between atoms: C_9  and  C_10 
REMARK    2  A    between atoms: C_10  and  C_11 
REMARK       I    between atoms: C_11  and  N_12 
REMARK    3  A    between atoms: N_12  and  C_13 
REMARK    4  A    between atoms: C_13  and  C_14 
REMARK    5  A    between atoms: N_16  and  C_17 
ROOT
HETATM    1  C   UNL     1      40.313 -15.495   2.721  1.00  0.00     0.084 A 
HETATM    2  N   UNL     1      41.219 -15.278   3.631  1.00  0.00    -0.171 NA
HETATM    3  N   UNL     1      41.374 -14.019   4.152  1.00  0.00    -0.229 N 
HETATM    4  C   UNL     1      40.581 -12.928   3.795  1.00  0.00     0.275 A 
HETATM    5  O   UNL     1      40.687 -11.808   4.288  1.00  0.00    -0.266 OA
HETATM    6  C   UNL     1      39.550 -13.170   2.770  1.00  0.00     0.046 A 
HETATM    7  C   UNL     1      39.389 -14.445   2.237  1.00  0.00     0.008 A 
HETATM    8  C   UNL     1      38.722 -12.116   2.357  1.00  0.00     0.018 A 
HETATM    9  C   UNL     1      37.724 -12.342   1.412  1.00  0.00     0.001 A 
HETATM   10  C   UNL     1      37.549 -13.619   0.885  1.00  0.00     0.001 A 
HETATM   11  C   UNL     1      38.375 -14.671   1.296  1.00  0.00     0.014 A 
ENDROOT
BRANCH   1  12
HETATM   12  C   UNL     1      40.201 -16.919   2.176  1.00  0.00     0.184 C 
BRANCH  12  13
HETATM   13  N   UNL     1      41.524 -17.491   2.029  1.00  0.00    -0.355 N 
HETATM   14  C   UNL     1      42.315 -17.177   0.947  1.00  0.00     0.222 C 
HETATM   15  O   UNL     1      41.956 -16.385   0.077  1.00  0.00    -0.273 OA
HETATM   16  H   UNL     1      41.734 -18.317   2.583  1.00  0.00     0.162 HD
BRANCH  14  17
HETATM   17  C   UNL     1      43.675 -17.840   0.944  1.00  0.00     0.143 C 
BRANCH  17  18
HETATM   18  C   UNL     1      43.920 -18.883   1.992  1.00  0.00    -0.021 A 
HETATM   19  C   UNL     1      44.087 -18.773   3.415  1.00  0.00    -0.001 A 
HETATM   20  C   UNL     1      44.294 -20.067   3.916  1.00  0.00     0.044 A 
HETATM   21  C   UNL     1      44.081 -17.706   4.342  1.00  0.00     0.014 A 
HETATM   22  N   UNL     1      44.236 -20.928   2.845  1.00  0.00    -0.360 N 
HETATM   23  C   UNL     1      44.500 -20.324   5.282  1.00  0.00     0.030 A 
HETATM   24  C   UNL     1      44.368 -22.366   2.927  1.00  0.00     0.155 C 
HETATM   25  C   UNL     1      44.022 -20.232   1.691  1.00  0.00     0.099 A 
HETATM   26  C   UNL     1      44.496 -19.245   6.167  1.00  0.00     0.002 A 
HETATM   27  C   UNL     1      44.288 -17.952   5.705  1.00  0.00     0.001 A 
ENDBRANCH  17  18
ENDBRANCH  14  17
ENDBRANCH  12  13
ENDBRANCH   1  12
BRANCH   3  28
HETATM   28  C   UNL     1      42.323 -13.856   5.250  1.00  0.00     0.114 C 
HETATM   29  C   UNL     1      42.290 -15.032   6.226  1.00  0.00     0.027 C 
HETATM   30  C   UNL     1      43.567 -14.875   7.045  1.00  0.00     0.002 C 
HETATM   31  C   UNL     1      44.530 -14.060   6.180  1.00  0.00     0.002 C 
HETATM   32  C   UNL     1      43.802 -13.799   4.865  1.00  0.00     0.027 C 
ENDBRANCH   3  28
TORSDOF 5
ENDMDL
MODEL 7
REMARK VINA RESULT:      -9.4      2.693      3.070
REMARK  5 active torsions:
REMARK  status: ('A' for Active; 'I' for Inactive)
REMARK    1  A    between atoms: C_9  and  C_10 
REMARK    2  A    between atoms: C_10  and  C_11 
REMARK       I    between atoms: C_11  and  N_12 
REMARK    3  A    between atoms: N_12  and  C_13 
REMARK    4  A    between atoms: C_13  and  C_14 
REMARK    5  A    between atoms: N_16  and  C_17 
ROOT
HETATM    1  C   UNL     1      41.351 -14.299   0.259  1.00  0.00     0.084 A 
HETATM    2  N   UNL     1      40.995 -14.128   1.500  1.00  0.00    -0.171 NA
HETATM    3  N   UNL     1      41.046 -12.875   2.057  1.00  0.00    -0.229 N 
HETATM    4  C   UNL     1      41.426 -11.730   1.358  1.00  0.00     0.275 A 
HETATM    5  O   UNL     1      41.434 -10.599   1.839  1.00  0.00    -0.266 OA
HETATM    6  C   UNL     1      41.824 -11.917  -0.049  1.00  0.00     0.046 A 
HETATM    7  C   UNL     1      41.775 -13.185  -0.619  1.00  0.00     0.008 A 
HETATM    8  C   UNL     1      42.225 -10.809  -0.810  1.00  0.00     0.018 A 
HETATM    9  C   UNL     1      42.573 -10.972  -2.149  1.00  0.00     0.001 A 
HETATM   10  C   UNL     1      42.513 -12.236  -2.728  1.00  0.00     0.001 A 
HETATM   11  C   UNL     1      42.112 -13.341  -1.971  1.00  0.00     0.014 A 
ENDROOT
BRANCH   1  12
HETATM   12  C   UNL     1      41.279 -15.722  -0.295  1.00  0.00     0.184 C 
BRANCH  12  13
HETATM   13  N   UNL     1      42.481 -16.447   0.063  1.00  0.00    -0.355 N 
HETATM   14  C   UNL     1      42.446 -17.462   0.992  1.00  0.00     0.222 C 
HETATM   15  O   UNL     1      41.403 -17.819   1.537  1.00  0.00    -0.273 OA
HETATM   16  H   UNL     1      43.369 -16.015  -0.178  1.00  0.00     0.162 HD
BRANCH  14  17
HETATM   17  C   UNL     1      43.777 -18.134   1.245  1.00  0.00     0.143 C 
BRANCH  17  18
HETATM   18  C   UNL     1      44.007 -18.683   2.620  1.00  0.00    -0.021 A 
HETATM   19  C   UNL     1      44.245 -20.026   3.075  1.00  0.00    -0.001 A 
HETATM   20  C   UNL     1      44.390 -19.978   4.469  1.00  0.00     0.044 A 
HETATM   21  C   UNL     1      44.357 -21.287   2.448  1.00  0.00     0.014 A 
HETATM   22  N   UNL     1      44.265 -18.660   4.843  1.00  0.00    -0.360 N 
HETATM   23  C   UNL     1      44.630 -21.126   5.243  1.00  0.00     0.030 A 
HETATM   24  C   UNL     1      44.381 -18.167   6.198  1.00  0.00     0.155 C 
HETATM   25  C   UNL     1      44.027 -17.880   3.749  1.00  0.00     0.099 A 
HETATM   26  C   UNL     1      44.727 -22.356   4.591  1.00  0.00     0.002 A 
HETATM   27  C   UNL     1      44.594 -22.438   3.211  1.00  0.00     0.001 A 
ENDBRANCH  17  18
ENDBRANCH  14  17
ENDBRANCH  12  13
ENDBRANCH   1  12
BRANCH   3  28
HETATM   28  C   UNL     1      40.527 -12.720   3.413  1.00  0.00     0.114 C 
HETATM   29  C   UNL     1      39.835 -13.985   3.920  1.00  0.00     0.027 C 
HETATM   30  C   UNL     1      39.716 -13.768   5.425  1.00  0.00     0.002 C 
HETATM   31  C   UNL     1      40.810 -12.766   5.800  1.00  0.00     0.002 C 
HETATM   32  C   UNL     1      41.561 -12.456   4.509  1.00  0.00     0.027 C 
ENDBRANCH   3  28
TORSDOF 5
ENDMDL
MODEL 8
REMARK VINA RESULT:      -9.3      4.224      6.057
REMARK  5 active torsions:
REMARK  status: ('A' for Active; 'I' for Inactive)
REMARK    1  A    between atoms: C_9  and  C_10 
REMARK    2  A    between atoms: C_10  and  C_11 
REMARK       I    between atoms: C_11  and  N_12 
REMARK    3  A    between atoms: N_12  and  C_13 
REMARK    4  A    between atoms: C_13  and  C_14 
REMARK    5  A    between atoms: N_16  and  C_17 
ROOT
HETATM    1  C   UNL     1      41.518 -12.876  -0.577  1.00  0.00     0.084 A 
HETATM    2  N   UNL     1      40.810 -13.632  -1.364  1.00  0.00    -0.171 NA
HETATM    3  N   UNL     1      40.593 -13.250  -2.664  1.00  0.00    -0.229 N 
HETATM    4  C   UNL     1      41.126 -12.093  -3.232  1.00  0.00     0.275 A 
HETATM    5  O   UNL     1      40.971 -11.767  -4.406  1.00  0.00    -0.266 OA
HETATM    6  C   UNL     1      41.935 -11.236  -2.346  1.00  0.00     0.046 A 
HETATM    7  C   UNL     1      42.157 -11.618  -1.027  1.00  0.00     0.008 A 
HETATM    8  C   UNL     1      42.496 -10.053  -2.849  1.00  0.00     0.018 A 
HETATM    9  C   UNL     1      43.287  -9.253  -2.029  1.00  0.00     0.001 A 
HETATM   10  C   UNL     1      43.523  -9.636  -0.712  1.00  0.00     0.001 A 
HETATM   11  C   UNL     1      42.966 -10.817  -0.209  1.00  0.00     0.014 A 
ENDROOT
BRANCH   1  12
HETATM   12  C   UNL     1      41.712 -13.356   0.861  1.00  0.00     0.184 C 
BRANCH  12  13
HETATM   13  N   UNL     1      41.946 -14.786   0.871  1.00  0.00    -0.355 N 
HETATM   14  C   UNL     1      41.094 -15.639   1.537  1.00  0.00     0.222 C 
HETATM   15  O   UNL     1      40.092 -15.240   2.126  1.00  0.00    -0.273 OA
HETATM   16  H   UNL     1      42.877 -15.104   0.614  1.00  0.00     0.162 HD
BRANCH  14  17
HETATM   17  C   UNL     1      41.462 -17.103   1.439  1.00  0.00     0.143 C 
BRANCH  17  18
HETATM   18  C   UNL     1      42.347 -17.651   2.517  1.00  0.00    -0.021 A 
HETATM   19  C   UNL     1      43.078 -18.886   2.605  1.00  0.00    -0.001 A 
HETATM   20  C   UNL     1      43.744 -18.894   3.839  1.00  0.00     0.044 A 
HETATM   21  C   UNL     1      43.249 -20.006   1.761  1.00  0.00     0.014 A 
HETATM   22  N   UNL     1      43.446 -17.706   4.466  1.00  0.00    -0.360 N 
HETATM   23  C   UNL     1      44.552 -19.966   4.254  1.00  0.00     0.030 A 
HETATM   24  C   UNL     1      43.958 -17.297   5.755  1.00  0.00     0.155 C 
HETATM   25  C   UNL     1      42.606 -16.961   3.690  1.00  0.00     0.099 A 
HETATM   26  C   UNL     1      44.692 -21.059   3.398  1.00  0.00     0.002 A 
HETATM   27  C   UNL     1      44.052 -21.081   2.166  1.00  0.00     0.001 A 
ENDBRANCH  17  18
ENDBRANCH  14  17
ENDBRANCH  12  13
ENDBRANCH   1  12
BRANCH   3  28
HETATM   28  C   UNL     1      39.891 -14.190  -3.534  1.00  0.00     0.114 C 
HETATM   29  C   UNL     1      40.269 -15.643  -3.247  1.00  0.00     0.027 C 
HETATM   30  C   UNL     1      39.189 -16.457  -3.952  1.00  0.00     0.002 C 
HETATM   31  C   UNL     1      37.974 -15.535  -4.077  1.00  0.00     0.002 C 
HETATM   32  C   UNL     1      38.367 -14.222  -3.407  1.00  0.00     0.027 C 
ENDBRANCH   3  28
TORSDOF 5
ENDMDL
MODEL 9
REMARK VINA RESULT:      -9.2      1.907      7.217
REMARK  5 active torsions:
REMARK  status: ('A' for Active; 'I' for Inactive)
REMARK    1  A    between atoms: C_9  and  C_10 
REMARK    2  A    between atoms: C_10  and  C_11 
REMARK       I    between atoms: C_11  and  N_12 
REMARK    3  A    between atoms: N_12  and  C_13 
REMARK    4  A    between atoms: C_13  and  C_14 
REMARK    5  A    between atoms: N_16  and  C_17 
ROOT
HETATM    1  C   UNL     1      42.829 -18.127   2.575  1.00  0.00     0.084 A 
HETATM    2  N   UNL     1      43.051 -17.181   3.441  1.00  0.00    -0.171 NA
HETATM    3  N   UNL     1      43.826 -17.434   4.544  1.00  0.00    -0.229 N 
HETATM    4  C   UNL     1      44.447 -18.659   4.791  1.00  0.00     0.275 A 
HETATM    5  O   UNL     1      45.177 -18.879   5.754  1.00  0.00    -0.266 OA
HETATM    6  C   UNL     1      44.205 -19.731   3.810  1.00  0.00     0.046 A 
HETATM    7  C   UNL     1      43.418 -19.481   2.690  1.00  0.00     0.008 A 
HETATM    8  C   UNL     1      44.792 -20.991   4.000  1.00  0.00     0.018 A 
HETATM    9  C   UNL     1      44.593 -22.001   3.061  1.00  0.00     0.001 A 
HETATM   10  C   UNL     1      43.817 -21.752   1.933  1.00  0.00     0.001 A 
HETATM   11  C   UNL     1      43.233 -20.496   1.742  1.00  0.00     0.014 A 
ENDROOT
BRANCH   1  12
HETATM   12  C   UNL     1      41.947 -17.779   1.375  1.00  0.00     0.184 C 
BRANCH  12  13
HETATM   13  N   UNL     1      40.804 -17.006   1.817  1.00  0.00    -0.355 N 
HETATM   14  C   UNL     1      40.459 -15.830   1.190  1.00  0.00     0.222 C 
HETATM   15  O   UNL     1      41.077 -15.396   0.220  1.00  0.00    -0.273 OA
HETATM   16  H   UNL     1      40.443 -17.206   2.746  1.00  0.00     0.162 HD
BRANCH  14  17
HETATM   17  C   UNL     1      39.233 -15.148   1.756  1.00  0.00     0.143 C 
BRANCH  17  18
HETATM   18  C   UNL     1      39.450 -13.845   2.462  1.00  0.00    -0.021 A 
HETATM   19  C   UNL     1      39.721 -13.549   3.843  1.00  0.00    -0.001 A 
HETATM   20  C   UNL     1      39.833 -12.157   3.961  1.00  0.00     0.044 A 
HETATM   21  C   UNL     1      39.887 -14.322   5.014  1.00  0.00     0.014 A 
HETATM   22  N   UNL     1      39.658 -11.629   2.704  1.00  0.00    -0.360 N 
HETATM   23  C   UNL     1      40.092 -11.522   5.188  1.00  0.00     0.030 A 
HETATM   24  C   UNL     1      39.728 -10.222   2.376  1.00  0.00     0.155 C 
HETATM   25  C   UNL     1      39.419 -12.626   1.803  1.00  0.00     0.099 A 
HETATM   26  C   UNL     1      40.243 -12.316   6.326  1.00  0.00     0.002 A 
HETATM   27  C   UNL     1      40.144 -13.699   6.242  1.00  0.00     0.001 A 
ENDBRANCH  17  18
ENDBRANCH  14  17
ENDBRANCH  12  13
ENDBRANCH   1  12
BRANCH   3  28
HETATM   28  C   UNL     1      44.139 -16.309   5.421  1.00  0.00     0.114 C 
HETATM   29  C   UNL     1      43.620 -14.980   4.870  1.00  0.00     0.027 C 
HETATM   30  C   UNL     1      43.691 -14.029   6.060  1.00  0.00     0.002 C 
HETATM   31  C   UNL     1      43.648 -14.908   7.312  1.00  0.00     0.002 C 
HETATM   32  C   UNL     1      43.515 -16.345   6.817  1.00  0.00     0.027 C 
ENDBRANCH   3  28
TORSDOF 5
ENDMDL
MODEL 10
REMARK VINA RESULT:      -9.2      1.914      4.180
REMARK  5 active torsions:
REMARK  status: ('A' for Active; 'I' for Inactive)
REMARK    1  A    between atoms: C_9  and  C_10 
REMARK    2  A    between atoms: C_10  and  C_11 
REMARK       I    between atoms: C_11  and  N_12 
REMARK    3  A    between atoms: N_12  and  C_13 
REMARK    4  A    between atoms: C_13  and  C_14 
REMARK    5  A    between atoms: N_16  and  C_17 
ROOT
HETATM    1  C   UNL     1      39.839 -13.510   4.548  1.00  0.00     0.084 A 
HETATM    2  N   UNL     1      40.041 -14.481   3.705  1.00  0.00    -0.171 NA
HETATM    3  N   UNL     1      39.647 -14.344   2.398  1.00  0.00    -0.229 N 
HETATM    4  C   UNL     1      39.064 -13.187   1.881  1.00  0.00     0.275 A 
HETATM    5  O   UNL     1      38.747 -13.042   0.703  1.00  0.00    -0.266 OA
HETATM    6  C   UNL     1      38.839 -12.081   2.829  1.00  0.00     0.046 A 
HETATM    7  C   UNL     1      39.235 -12.215   4.156  1.00  0.00     0.008 A 
HETATM    8  C   UNL     1      38.250 -10.891   2.379  1.00  0.00     0.018 A 
HETATM    9  C   UNL     1      38.062  -9.829   3.261  1.00  0.00     0.001 A 
HETATM   10  C   UNL     1      38.468  -9.953   4.587  1.00  0.00     0.001 A 
HETATM   11  C   UNL     1      39.057 -11.139   5.036  1.00  0.00     0.014 A 
ENDROOT
BRANCH   1  12
HETATM   12  C   UNL     1      40.293 -13.734   5.990  1.00  0.00     0.184 C 
BRANCH  12  13
HETATM   13  N   UNL     1      41.624 -14.305   6.000  1.00  0.00    -0.355 N 
HETATM   14  C   UNL     1      41.818 -15.646   6.244  1.00  0.00     0.222 C 
HETATM   15  O   UNL     1      40.883 -16.421   6.436  1.00  0.00    -0.273 OA
HETATM   16  H   UNL     1      42.403 -13.659   6.093  1.00  0.00     0.162 HD
BRANCH  14  17
HETATM   17  C   UNL     1      43.262 -16.094   6.203  1.00  0.00     0.143 C 
BRANCH  17  18
HETATM   18  C   UNL     1      43.519 -17.513   5.797  1.00  0.00    -0.021 A 
HETATM   19  C   UNL     1      43.772 -18.099   4.509  1.00  0.00    -0.001 A 
HETATM   20  C   UNL     1      43.941 -19.478   4.699  1.00  0.00     0.044 A 
HETATM   21  C   UNL     1      43.881 -17.601   3.191  1.00  0.00     0.014 A 
HETATM   22  N   UNL     1      43.815 -19.718   6.047  1.00  0.00    -0.360 N 
HETATM   23  C   UNL     1      44.201 -20.360   3.637  1.00  0.00     0.030 A 
HETATM   24  C   UNL     1      43.952 -21.013   6.677  1.00  0.00     0.155 C 
HETATM   25  C   UNL     1      43.553 -18.554   6.711  1.00  0.00     0.099 A 
HETATM   26  C   UNL     1      44.293 -19.835   2.347  1.00  0.00     0.002 A 
HETATM   27  C   UNL     1      44.138 -18.473   2.125  1.00  0.00     0.001 A 
ENDBRANCH  17  18
ENDBRANCH  14  17
ENDBRANCH  12  13
ENDBRANCH   1  12
BRANCH   3  28
HETATM   28  C   UNL     1      40.001 -15.416   1.471  1.00  0.00     0.114 C 
HETATM   29  C   UNL     1      41.384 -15.215   0.852  1.00  0.00     0.027 C 
HETATM   30  C   UNL     1      41.723 -16.574   0.247  1.00  0.00     0.002 C 
HETATM   31  C   UNL     1      40.889 -17.602   1.014  1.00  0.00     0.002 C 
HETATM   32  C   UNL     1      40.116 -16.818   2.070  1.00  0.00     0.027 C 
ENDBRANCH   3  28
TORSDOF 5
ENDMDL
