MODEL 1
REMARK VINA RESULT:      -9.0      0.000      0.000
REMARK  5 active torsions:
REMARK  status: ('A' for Active; 'I' for Inactive)
REMARK    1  A    between atoms: C_3  and  O_4 
REMARK    2  A    between atoms: C_6  and  N_7 
REMARK       I    between atoms: N_7  and  C_8 
REMARK    3  A    between atoms: C_8  and  C_9 
REMARK    4  A    between atoms: C_12  and  C_13 
REMARK    5  A    between atoms: C_18  and  C_19 
ROOT
HETATM    1  C   UNL     1      40.444 -14.350   2.802  1.00  0.00     0.096 A 
HETATM    2  C   UNL     1      40.771 -15.227   3.821  1.00  0.00     0.138 A 
HETATM    3  N   UNL     1      41.555 -14.512   4.692  1.00  0.00    -0.240 N 
HETATM    4  C   UNL     1      42.132 -15.038   5.913  1.00  0.00     0.221 C 
HETATM    5  C   UNL     1      41.444 -16.357   6.307  1.00  0.00     0.066 C 
HETATM    6  C   UNL     1      41.123 -17.286   5.122  1.00  0.00     0.118 C 
HETATM    7  N   UNL     1      40.476 -16.536   4.043  1.00  0.00    -0.365 N 
HETATM    8  N   UNL     1      41.736 -13.231   4.333  1.00  0.00    -0.181 NA
HETATM    9  C   UNL     1      41.102 -13.149   3.159  1.00  0.00     0.160 A 
HETATM   10  H   UNL     1      40.223 -17.129   3.248  1.00  0.00     0.161 HD
ENDROOT
BRANCH   1  11
HETATM   11  C   UNL     1      39.626 -14.580   1.622  1.00  0.00     0.261 C 
HETATM   12  N   UNL     1      40.209 -14.101   0.464  1.00  0.00    -0.323 N 
HETATM   13  H   UNL     1      41.173 -13.802   0.560  1.00  0.00     0.169 HD
HETATM   14  O   UNL     1      38.563 -15.180   1.705  1.00  0.00    -0.267 OA
BRANCH  12  15
HETATM   15  C   UNL     1      39.660 -14.062  -0.831  1.00  0.00     0.037 A 
HETATM   16  C   UNL     1      40.134 -14.820  -1.901  1.00  0.00     0.066 A 
HETATM   17  C   UNL     1      39.504 -14.738  -3.143  1.00  0.00     0.067 A 
HETATM   18  C   UNL     1      38.409 -13.905  -3.343  1.00  0.00     0.036 A 
HETATM   19  C   UNL     1      37.932 -13.145  -2.278  1.00  0.00     0.005 A 
HETATM   20  C   UNL     1      38.551 -13.227  -1.027  1.00  0.00     0.029 A 
BRANCH  17  21
HETATM   21  O   UNL     1      39.994 -15.511  -4.156  1.00  0.00    -0.361 OA
HETATM   22  H   UNL     1      40.943 -15.652  -4.013  1.00  0.00     0.217 HD
ENDBRANCH  17  21
ENDBRANCH  12  15
ENDBRANCH   1  11
BRANCH   4  23
HETATM   23  C   UNL     1      43.636 -15.145   5.790  1.00  0.00     0.409 C 
HETATM   24  F   UNL     1      44.287 -13.996   6.056  1.00  0.00    -0.169 F 
HETATM   25  F   UNL     1      44.151 -16.101   6.597  1.00  0.00    -0.169 F 
HETATM   26  F   UNL     1      43.971 -15.504   4.521  1.00  0.00    -0.169 F 
ENDBRANCH   4  23
BRANCH   6  27
HETATM   27  C   UNL     1      42.275 -18.153   4.641  1.00  0.00    -0.035 A 
HETATM   28  C   UNL     1      42.531 -18.236   3.258  1.00  0.00     0.012 A 
HETATM   29  C   UNL     1      43.591 -19.002   2.767  1.00  0.00     0.043 A 
HETATM   30  C   UNL     1      44.407 -19.690   3.652  1.00  0.00     0.116 A 
HETATM   31  F   UNL     1      45.424 -20.423   3.180  1.00  0.00    -0.206 F 
HETATM   32  C   UNL     1      44.184 -19.627   5.019  1.00  0.00     0.043 A 
HETATM   33  C   UNL     1      43.127 -18.859   5.512  1.00  0.00     0.012 A 
ENDBRANCH   6  27
TORSDOF 5
ENDMDL
MODEL 2
REMARK VINA RESULT:      -8.9      0.840      1.688
REMARK  5 active torsions:
REMARK  status: ('A' for Active; 'I' for Inactive)
REMARK    1  A    between atoms: C_3  and  O_4 
REMARK    2  A    between atoms: C_6  and  N_7 
REMARK       I    between atoms: N_7  and  C_8 
REMARK    3  A    between atoms: C_8  and  C_9 
REMARK    4  A    between atoms: C_12  and  C_13 
REMARK    5  A    between atoms: C_18  and  C_19 
ROOT
HETATM    1  C   UNL     1      40.586 -14.574   2.844  1.00  0.00     0.096 A 
HETATM    2  C   UNL     1      40.848 -15.431   3.899  1.00  0.00     0.138 A 
HETATM    3  N   UNL     1      41.503 -14.676   4.839  1.00  0.00    -0.240 N 
HETATM    4  C   UNL     1      41.975 -15.168   6.118  1.00  0.00     0.221 C 
HETATM    5  C   UNL     1      41.313 -16.518   6.450  1.00  0.00     0.066 C 
HETATM    6  C   UNL     1      41.160 -17.465   5.247  1.00  0.00     0.118 C 
HETATM    7  N   UNL     1      40.593 -16.751   4.101  1.00  0.00    -0.365 N 
HETATM    8  N   UNL     1      41.659 -13.389   4.490  1.00  0.00    -0.181 NA
HETATM    9  C   UNL     1      41.146 -13.341   3.256  1.00  0.00     0.160 A 
HETATM   10  H   UNL     1      40.452 -17.359   3.289  1.00  0.00     0.161 HD
ENDROOT
BRANCH   1  11
HETATM   11  C   UNL     1      39.906 -14.847   1.589  1.00  0.00     0.261 C 
HETATM   12  N   UNL     1      40.697 -14.596   0.484  1.00  0.00    -0.323 N 
HETATM   13  H   UNL     1      41.673 -14.411   0.687  1.00  0.00     0.169 HD
HETATM   14  O   UNL     1      38.766 -15.295   1.578  1.00  0.00    -0.267 OA
BRANCH  12  15
HETATM   15  C   UNL     1      40.333 -14.653  -0.875  1.00  0.00     0.037 A 
HETATM   16  C   UNL     1      39.376 -13.825  -1.459  1.00  0.00     0.066 A 
HETATM   17  C   UNL     1      39.104 -13.934  -2.823  1.00  0.00     0.067 A 
HETATM   18  C   UNL     1      39.765 -14.862  -3.619  1.00  0.00     0.036 A 
HETATM   19  C   UNL     1      40.722 -15.693  -3.040  1.00  0.00     0.005 A 
HETATM   20  C   UNL     1      41.008 -15.585  -1.676  1.00  0.00     0.029 A 
BRANCH  17  21
HETATM   21  O   UNL     1      38.170 -13.091  -3.353  1.00  0.00    -0.361 OA
HETATM   22  H   UNL     1      37.812 -13.488  -4.163  1.00  0.00     0.217 HD
ENDBRANCH  17  21
ENDBRANCH  12  15
ENDBRANCH   1  11
BRANCH   4  23
HETATM   23  C   UNL     1      43.488 -15.204   6.151  1.00  0.00     0.409 C 
HETATM   24  F   UNL     1      44.048 -15.590   4.988  1.00  0.00    -0.169 F 
HETATM   25  F   UNL     1      44.022 -14.007   6.482  1.00  0.00    -0.169 F 
HETATM   26  F   UNL     1      43.909 -16.079   7.103  1.00  0.00    -0.169 F 
ENDBRANCH   4  23
BRANCH   6  27
HETATM   27  C   UNL     1      42.396 -18.277   4.895  1.00  0.00    -0.035 A 
HETATM   28  C   UNL     1      43.093 -18.935   5.929  1.00  0.00     0.012 A 
HETATM   29  C   UNL     1      44.222 -19.711   5.655  1.00  0.00     0.043 A 
HETATM   30  C   UNL     1      44.665 -19.840   4.346  1.00  0.00     0.116 A 
HETATM   31  F   UNL     1      45.747 -20.585   4.085  1.00  0.00    -0.206 F 
HETATM   32  C   UNL     1      44.000 -19.208   3.306  1.00  0.00     0.043 A 
HETATM   33  C   UNL     1      42.868 -18.434   3.578  1.00  0.00     0.012 A 
ENDBRANCH   6  27
TORSDOF 5
ENDMDL
MODEL 3
REMARK VINA RESULT:      -8.6      3.956      7.865
REMARK  5 active torsions:
REMARK  status: ('A' for Active; 'I' for Inactive)
REMARK    1  A    between atoms: C_3  and  O_4 
REMARK    2  A    between atoms: C_6  and  N_7 
REMARK       I    between atoms: N_7  and  C_8 
REMARK    3  A    between atoms: C_8  and  C_9 
REMARK    4  A    between atoms: C_12  and  C_13 
REMARK    5  A    between atoms: C_18  and  C_19 
ROOT
HETATM    1  C   UNL     1      41.988 -15.839   2.177  1.00  0.00     0.096 A 
HETATM    2  C   UNL     1      41.732 -14.844   1.250  1.00  0.00     0.138 A 
HETATM    3  N   UNL     1      40.706 -14.099   1.775  1.00  0.00    -0.240 N 
HETATM    4  C   UNL     1      40.106 -12.945   1.135  1.00  0.00     0.221 C 
HETATM    5  C   UNL     1      41.009 -12.432  -0.001  1.00  0.00     0.066 C 
HETATM    6  C   UNL     1      41.674 -13.540  -0.836  1.00  0.00     0.118 C 
HETATM    7  N   UNL     1      42.275 -14.551   0.038  1.00  0.00    -0.365 N 
HETATM    8  N   UNL     1      40.298 -14.514   2.985  1.00  0.00    -0.181 NA
HETATM    9  C   UNL     1      41.044 -15.601   3.204  1.00  0.00     0.160 A 
HETATM   10  H   UNL     1      42.751 -15.290  -0.485  1.00  0.00     0.161 HD
ENDROOT
BRANCH   1  11
HETATM   11  C   UNL     1      42.981 -16.900   2.133  1.00  0.00     0.261 C 
HETATM   12  N   UNL     1      42.562 -18.054   2.768  1.00  0.00    -0.323 N 
HETATM   13  H   UNL     1      41.584 -18.066   3.036  1.00  0.00     0.169 HD
HETATM   14  O   UNL     1      44.041 -16.741   1.542  1.00  0.00    -0.267 OA
BRANCH  12  15
HETATM   15  C   UNL     1      43.297 -19.231   3.002  1.00  0.00     0.037 A 
HETATM   16  C   UNL     1      43.416 -20.271   2.081  1.00  0.00     0.066 A 
HETATM   17  C   UNL     1      44.193 -21.387   2.392  1.00  0.00     0.067 A 
HETATM   18  C   UNL     1      44.853 -21.490   3.611  1.00  0.00     0.036 A 
HETATM   19  C   UNL     1      44.737 -20.454   4.535  1.00  0.00     0.005 A 
HETATM   20  C   UNL     1      43.968 -19.328   4.230  1.00  0.00     0.029 A 
BRANCH  17  21
HETATM   21  O   UNL     1      44.292 -22.373   1.453  1.00  0.00    -0.361 OA
HETATM   22  H   UNL     1      44.093 -23.226   1.870  1.00  0.00     0.217 HD
ENDBRANCH  17  21
ENDBRANCH  12  15
ENDBRANCH   1  11
BRANCH   4  23
HETATM   23  C   UNL     1      38.689 -13.254   0.700  1.00  0.00     0.409 C 
HETATM   24  F   UNL     1      38.524 -14.507   0.237  1.00  0.00    -0.169 F 
HETATM   25  F   UNL     1      37.794 -13.065   1.695  1.00  0.00    -0.169 F 
HETATM   26  F   UNL     1      38.321 -12.410  -0.302  1.00  0.00    -0.169 F 
ENDBRANCH   4  23
BRANCH   6  27
HETATM   27  C   UNL     1      40.810 -14.137  -1.935  1.00  0.00    -0.035 A 
HETATM   28  C   UNL     1      40.908 -15.518  -2.201  1.00  0.00     0.012 A 
HETATM   29  C   UNL     1      40.120 -16.119  -3.186  1.00  0.00     0.043 A 
HETATM   30  C   UNL     1      39.226 -15.347  -3.914  1.00  0.00     0.116 A 
HETATM   31  F   UNL     1      38.470 -15.924  -4.857  1.00  0.00    -0.206 F 
HETATM   32  C   UNL     1      39.104 -13.986  -3.675  1.00  0.00     0.043 A 
HETATM   33  C   UNL     1      39.888 -13.385  -2.687  1.00  0.00     0.012 A 
ENDBRANCH   6  27
TORSDOF 5
ENDMDL
MODEL 4
REMARK VINA RESULT:      -8.5      3.594      7.258
REMARK  5 active torsions:
REMARK  status: ('A' for Active; 'I' for Inactive)
REMARK    1  A    between atoms: C_3  and  O_4 
REMARK    2  A    between atoms: C_6  and  N_7 
REMARK       I    between atoms: N_7  and  C_8 
REMARK    3  A    between atoms: C_8  and  C_9 
REMARK    4  A    between atoms: C_12  and  C_13 
REMARK    5  A    between atoms: C_18  and  C_19 
ROOT
HETATM    1  C   UNL     1      42.860 -16.495   5.029  1.00  0.00     0.096 A 
HETATM    2  C   UNL     1      42.719 -15.533   4.046  1.00  0.00     0.138 A 
HETATM    3  N   UNL     1      42.815 -14.324   4.689  1.00  0.00    -0.240 N 
HETATM    4  C   UNL     1      42.720 -13.030   4.044  1.00  0.00     0.221 C 
HETATM    5  C   UNL     1      42.892 -13.176   2.521  1.00  0.00     0.066 C 
HETATM    6  C   UNL     1      42.199 -14.411   1.918  1.00  0.00     0.118 C 
HETATM    7  N   UNL     1      42.508 -15.608   2.704  1.00  0.00    -0.365 N 
HETATM    8  N   UNL     1      43.039 -14.428   6.009  1.00  0.00    -0.181 NA
HETATM    9  C   UNL     1      43.016 -15.748   6.221  1.00  0.00     0.160 A 
HETATM   10  H   UNL     1      42.085 -16.454   2.315  1.00  0.00     0.161 HD
ENDROOT
BRANCH   1  11
HETATM   11  C   UNL     1      42.848 -17.944   4.903  1.00  0.00     0.261 C 
HETATM   12  N   UNL     1      43.917 -18.427   4.172  1.00  0.00    -0.323 N 
HETATM   13  H   UNL     1      44.635 -17.745   3.958  1.00  0.00     0.169 HD
HETATM   14  O   UNL     1      41.980 -18.613   5.449  1.00  0.00    -0.267 OA
BRANCH  12  15
HETATM   15  C   UNL     1      44.163 -19.754   3.770  1.00  0.00     0.037 A 
HETATM   16  C   UNL     1      44.682 -20.737   4.611  1.00  0.00     0.066 A 
HETATM   17  C   UNL     1      44.864 -22.035   4.132  1.00  0.00     0.067 A 
HETATM   18  C   UNL     1      44.542 -22.372   2.822  1.00  0.00     0.036 A 
HETATM   19  C   UNL     1      44.024 -21.393   1.978  1.00  0.00     0.005 A 
HETATM   20  C   UNL     1      43.830 -20.092   2.451  1.00  0.00     0.029 A 
BRANCH  17  21
HETATM   21  O   UNL     1      45.361 -22.967   4.997  1.00  0.00    -0.361 OA
HETATM   22  H   UNL     1      45.792 -22.512   5.736  1.00  0.00     0.217 HD
ENDBRANCH  17  21
ENDBRANCH  12  15
ENDBRANCH   1  11
BRANCH   4  23
HETATM   23  C   UNL     1      41.446 -12.322   4.452  1.00  0.00     0.409 C 
HETATM   24  F   UNL     1      40.998 -11.441   3.538  1.00  0.00    -0.169 F 
HETATM   25  F   UNL     1      40.440 -13.187   4.712  1.00  0.00    -0.169 F 
HETATM   26  F   UNL     1      41.652 -11.627   5.603  1.00  0.00    -0.169 F 
ENDBRANCH   4  23
BRANCH   6  27
HETATM   27  C   UNL     1      40.715 -14.251   1.630  1.00  0.00    -0.035 A 
HETATM   28  C   UNL     1      40.285 -13.136   0.883  1.00  0.00     0.012 A 
HETATM   29  C   UNL     1      38.935 -12.954   0.573  1.00  0.00     0.043 A 
HETATM   30  C   UNL     1      38.001 -13.885   1.005  1.00  0.00     0.116 A 
HETATM   31  F   UNL     1      36.707 -13.711   0.706  1.00  0.00    -0.206 F 
HETATM   32  C   UNL     1      38.392 -14.994   1.740  1.00  0.00     0.043 A 
HETATM   33  C   UNL     1      39.742 -15.179   2.047  1.00  0.00     0.012 A 
ENDBRANCH   6  27
TORSDOF 5
ENDMDL
MODEL 5
REMARK VINA RESULT:      -8.5      4.254      7.942
REMARK  5 active torsions:
REMARK  status: ('A' for Active; 'I' for Inactive)
REMARK    1  A    between atoms: C_3  and  O_4 
REMARK    2  A    between atoms: C_6  and  N_7 
REMARK       I    between atoms: N_7  and  C_8 
REMARK    3  A    between atoms: C_8  and  C_9 
REMARK    4  A    between atoms: C_12  and  C_13 
REMARK    5  A    between atoms: C_18  and  C_19 
ROOT
HETATM    1  C   UNL     1      41.379 -15.945   1.988  1.00  0.00     0.096 A 
HETATM    2  C   UNL     1      41.323 -14.597   1.681  1.00  0.00     0.138 A 
HETATM    3  N   UNL     1      39.988 -14.277   1.648  1.00  0.00    -0.240 N 
HETATM    4  C   UNL     1      39.457 -12.960   1.359  1.00  0.00     0.221 C 
HETATM    5  C   UNL     1      40.563 -11.897   1.482  1.00  0.00     0.066 C 
HETATM    6  C   UNL     1      41.931 -12.335   0.929  1.00  0.00     0.118 C 
HETATM    7  N   UNL     1      42.282 -13.668   1.424  1.00  0.00    -0.365 N 
HETATM    8  N   UNL     1      39.176 -15.305   1.941  1.00  0.00    -0.181 NA
HETATM    9  C   UNL     1      40.021 -16.330   2.097  1.00  0.00     0.160 A 
HETATM   10  H   UNL     1      43.200 -13.980   1.097  1.00  0.00     0.161 HD
ENDROOT
BRANCH   1  11
HETATM   11  C   UNL     1      42.544 -16.799   2.158  1.00  0.00     0.261 C 
HETATM   12  N   UNL     1      42.211 -18.107   2.455  1.00  0.00    -0.323 N 
HETATM   13  H   UNL     1      41.227 -18.332   2.364  1.00  0.00     0.169 HD
HETATM   14  O   UNL     1      43.674 -16.356   1.996  1.00  0.00    -0.267 OA
BRANCH  12  15
HETATM   15  C   UNL     1      43.076 -19.169   2.780  1.00  0.00     0.037 A 
HETATM   16  C   UNL     1      43.291 -20.276   1.960  1.00  0.00     0.066 A 
HETATM   17  C   UNL     1      44.192 -21.266   2.352  1.00  0.00     0.067 A 
HETATM   18  C   UNL     1      44.882 -21.177   3.556  1.00  0.00     0.036 A 
HETATM   19  C   UNL     1      44.671 -20.074   4.379  1.00  0.00     0.005 A 
HETATM   20  C   UNL     1      43.777 -19.072   3.990  1.00  0.00     0.029 A 
BRANCH  17  21
HETATM   21  O   UNL     1      44.380 -22.324   1.509  1.00  0.00    -0.361 OA
HETATM   22  H   UNL     1      43.732 -22.272   0.790  1.00  0.00     0.217 HD
ENDBRANCH  17  21
ENDBRANCH  12  15
ENDBRANCH   1  11
BRANCH   4  23
HETATM   23  C   UNL     1      38.746 -12.953   0.024  1.00  0.00     0.409 C 
HETATM   24  F   UNL     1      38.890 -11.803  -0.663  1.00  0.00    -0.169 F 
HETATM   25  F   UNL     1      39.153 -13.961  -0.780  1.00  0.00    -0.169 F 
HETATM   26  F   UNL     1      37.411 -13.137   0.210  1.00  0.00    -0.169 F 
ENDBRANCH   4  23
BRANCH   6  27
HETATM   27  C   UNL     1      42.104 -12.190  -0.574  1.00  0.00    -0.035 A 
HETATM   28  C   UNL     1      42.259 -10.899  -1.118  1.00  0.00     0.012 A 
HETATM   29  C   UNL     1      42.442 -10.713  -2.490  1.00  0.00     0.043 A 
HETATM   30  C   UNL     1      42.474 -11.815  -3.333  1.00  0.00     0.116 A 
HETATM   31  F   UNL     1      42.651 -11.636  -4.649  1.00  0.00    -0.206 F 
HETATM   32  C   UNL     1      42.327 -13.099  -2.829  1.00  0.00     0.043 A 
HETATM   33  C   UNL     1      42.148 -13.286  -1.456  1.00  0.00     0.012 A 
ENDBRANCH   6  27
TORSDOF 5
ENDMDL
MODEL 6
REMARK VINA RESULT:      -8.5      3.818      7.135
REMARK  5 active torsions:
REMARK  status: ('A' for Active; 'I' for Inactive)
REMARK    1  A    between atoms: C_3  and  O_4 
REMARK    2  A    between atoms: C_6  and  N_7 
REMARK       I    between atoms: N_7  and  C_8 
REMARK    3  A    between atoms: C_8  and  C_9 
REMARK    4  A    between atoms: C_12  and  C_13 
REMARK    5  A    between atoms: C_18  and  C_19 
ROOT
HETATM    1  C   UNL     1      42.817 -16.809   5.270  1.00  0.00     0.096 A 
HETATM    2  C   UNL     1      42.759 -15.603   4.596  1.00  0.00     0.138 A 
HETATM    3  N   UNL     1      41.790 -14.866   5.230  1.00  0.00    -0.240 N 
HETATM    4  C   UNL     1      41.387 -13.526   4.854  1.00  0.00     0.221 C 
HETATM    5  C   UNL     1      42.435 -12.892   3.922  1.00  0.00     0.066 C 
HETATM    6  C   UNL     1      43.029 -13.858   2.882  1.00  0.00     0.118 C 
HETATM    7  N   UNL     1      43.431 -15.114   3.519  1.00  0.00    -0.365 N 
HETATM    8  N   UNL     1      41.238 -15.489   6.283  1.00  0.00    -0.181 NA
HETATM    9  C   UNL     1      41.827 -16.688   6.275  1.00  0.00     0.160 A 
HETATM   10  H   UNL     1      43.856 -15.771   2.859  1.00  0.00     0.161 HD
ENDROOT
BRANCH   1  11
HETATM   11  C   UNL     1      43.676 -17.956   5.025  1.00  0.00     0.261 C 
HETATM   12  N   UNL     1      43.215 -18.762   4.001  1.00  0.00    -0.323 N 
HETATM   13  H   UNL     1      42.446 -18.377   3.464  1.00  0.00     0.169 HD
HETATM   14  O   UNL     1      44.710 -18.112   5.662  1.00  0.00    -0.267 OA
BRANCH  12  15
HETATM   15  C   UNL     1      43.736 -19.996   3.568  1.00  0.00     0.037 A 
HETATM   16  C   UNL     1      44.336 -20.928   4.415  1.00  0.00     0.066 A 
HETATM   17  C   UNL     1      44.796 -22.139   3.898  1.00  0.00     0.067 A 
HETATM   18  C   UNL     1      44.675 -22.439   2.546  1.00  0.00     0.036 A 
HETATM   19  C   UNL     1      44.078 -21.512   1.696  1.00  0.00     0.005 A 
HETATM   20  C   UNL     1      43.606 -20.299   2.205  1.00  0.00     0.029 A 
BRANCH  17  21
HETATM   21  O   UNL     1      45.363 -23.026   4.768  1.00  0.00    -0.361 OA
HETATM   22  H   UNL     1      45.397 -23.900   4.348  1.00  0.00     0.217 HD
ENDBRANCH  17  21
ENDBRANCH  12  15
ENDBRANCH   1  11
BRANCH   4  23
HETATM   23  C   UNL     1      39.984 -13.530   4.286  1.00  0.00     0.409 C 
HETATM   24  F   UNL     1      39.745 -12.525   3.421  1.00  0.00    -0.169 F 
HETATM   25  F   UNL     1      39.690 -14.689   3.655  1.00  0.00    -0.169 F 
HETATM   26  F   UNL     1      39.077 -13.409   5.292  1.00  0.00    -0.169 F 
ENDBRANCH   4  23
BRANCH   6  27
HETATM   27  C   UNL     1      42.192 -14.063   1.629  1.00  0.00    -0.035 A 
HETATM   28  C   UNL     1      41.929 -15.378   1.196  1.00  0.00     0.012 A 
HETATM   29  C   UNL     1      41.148 -15.620   0.063  1.00  0.00     0.043 A 
HETATM   30  C   UNL     1      40.621 -14.552  -0.647  1.00  0.00     0.116 A 
HETATM   31  F   UNL     1      39.871 -14.785  -1.733  1.00  0.00    -0.206 F 
HETATM   32  C   UNL     1      40.859 -13.246  -0.246  1.00  0.00     0.043 A 
HETATM   33  C   UNL     1      41.637 -13.002   0.889  1.00  0.00     0.012 A 
ENDBRANCH   6  27
TORSDOF 5
ENDMDL
MODEL 7
REMARK VINA RESULT:      -8.2      3.990      8.025
REMARK  5 active torsions:
REMARK  status: ('A' for Active; 'I' for Inactive)
REMARK    1  A    between atoms: C_3  and  O_4 
REMARK    2  A    between atoms: C_6  and  N_7 
REMARK       I    between atoms: N_7  and  C_8 
REMARK    3  A    between atoms: C_8  and  C_9 
REMARK    4  A    between atoms: C_12  and  C_13 
REMARK    5  A    between atoms: C_18  and  C_19 
ROOT
HETATM    1  C   UNL     1      43.839 -16.697   5.860  1.00  0.00     0.096 A 
HETATM    2  C   UNL     1      42.811 -16.660   4.934  1.00  0.00     0.138 A 
HETATM    3  N   UNL     1      43.047 -17.702   4.072  1.00  0.00    -0.240 N 
HETATM    4  C   UNL     1      42.217 -18.042   2.934  1.00  0.00     0.221 C 
HETATM    5  C   UNL     1      40.848 -17.347   3.042  1.00  0.00     0.066 C 
HETATM    6  C   UNL     1      40.907 -15.903   3.572  1.00  0.00     0.118 C 
HETATM    7  N   UNL     1      41.746 -15.831   4.771  1.00  0.00    -0.365 N 
HETATM    8  N   UNL     1      44.130 -18.430   4.385  1.00  0.00    -0.181 NA
HETATM    9  C   UNL     1      44.638 -17.788   5.442  1.00  0.00     0.160 A 
HETATM   10  H   UNL     1      41.786 -14.888   5.167  1.00  0.00     0.161 HD
ENDROOT
BRANCH   1  11
HETATM   11  C   UNL     1      44.076 -15.828   7.001  1.00  0.00     0.261 C 
HETATM   12  N   UNL     1      44.618 -14.608   6.643  1.00  0.00    -0.323 N 
HETATM   13  H   UNL     1      44.633 -14.420   5.647  1.00  0.00     0.169 HD
HETATM   14  O   UNL     1      43.766 -16.180   8.131  1.00  0.00    -0.267 OA
BRANCH  12  15
HETATM   15  C   UNL     1      45.064 -13.575   7.489  1.00  0.00     0.037 A 
HETATM   16  C   UNL     1      46.247 -12.864   7.292  1.00  0.00     0.066 A 
HETATM   17  C   UNL     1      46.592 -11.834   8.168  1.00  0.00     0.067 A 
HETATM   18  C   UNL     1      45.780 -11.503   9.247  1.00  0.00     0.036 A 
HETATM   19  C   UNL     1      44.598 -12.211   9.449  1.00  0.00     0.005 A 
HETATM   20  C   UNL     1      44.239 -13.238   8.571  1.00  0.00     0.029 A 
BRANCH  17  21
HETATM   21  O   UNL     1      47.752 -11.156   7.926  1.00  0.00    -0.361 OA
HETATM   22  H   UNL     1      48.142 -11.485   7.101  1.00  0.00     0.217 HD
ENDBRANCH  17  21
ENDBRANCH  12  15
ENDBRANCH   1  11
BRANCH   4  23
HETATM   23  C   UNL     1      42.947 -17.760   1.638  1.00  0.00     0.409 C 
HETATM   24  F   UNL     1      43.780 -16.703   1.702  1.00  0.00    -0.169 F 
HETATM   25  F   UNL     1      43.667 -18.822   1.213  1.00  0.00    -0.169 F 
HETATM   26  F   UNL     1      42.049 -17.496   0.651  1.00  0.00    -0.169 F 
ENDBRANCH   4  23
BRANCH   6  27
HETATM   27  C   UNL     1      41.247 -14.841   2.539  1.00  0.00    -0.035 A 
HETATM   28  C   UNL     1      40.564 -14.852   1.305  1.00  0.00     0.012 A 
HETATM   29  C   UNL     1      40.824 -13.886   0.330  1.00  0.00     0.043 A 
HETATM   30  C   UNL     1      41.767 -12.899   0.578  1.00  0.00     0.116 A 
HETATM   31  F   UNL     1      42.015 -11.972  -0.357  1.00  0.00    -0.206 F 
HETATM   32  C   UNL     1      42.454 -12.859   1.782  1.00  0.00     0.043 A 
HETATM   33  C   UNL     1      42.192 -13.822   2.760  1.00  0.00     0.012 A 
ENDBRANCH   6  27
TORSDOF 5
ENDMDL
MODEL 8
REMARK VINA RESULT:      -8.1      3.811      7.733
REMARK  5 active torsions:
REMARK  status: ('A' for Active; 'I' for Inactive)
REMARK    1  A    between atoms: C_3  and  O_4 
REMARK    2  A    between atoms: C_6  and  N_7 
REMARK       I    between atoms: N_7  and  C_8 
REMARK    3  A    between atoms: C_8  and  C_9 
REMARK    4  A    between atoms: C_12  and  C_13 
REMARK    5  A    between atoms: C_18  and  C_19 
ROOT
HETATM    1  C   UNL     1      41.283 -16.511   1.370  1.00  0.00     0.096 A 
HETATM    2  C   UNL     1      40.319 -15.526   1.481  1.00  0.00     0.138 A 
HETATM    3  N   UNL     1      40.239 -14.939   0.243  1.00  0.00    -0.240 N 
HETATM    4  C   UNL     1      39.351 -13.847  -0.103  1.00  0.00     0.221 C 
HETATM    5  C   UNL     1      38.251 -13.692   0.962  1.00  0.00     0.066 C 
HETATM    6  C   UNL     1      38.734 -13.889   2.410  1.00  0.00     0.118 C 
HETATM    7  N   UNL     1      39.550 -15.100   2.519  1.00  0.00    -0.365 N 
HETATM    8  N   UNL     1      41.053 -15.489  -0.671  1.00  0.00    -0.181 NA
HETATM    9  C   UNL     1      41.724 -16.410   0.028  1.00  0.00     0.160 A 
HETATM   10  H   UNL     1      39.866 -15.276   3.476  1.00  0.00     0.161 HD
ENDROOT
BRANCH   1  11
HETATM   11  C   UNL     1      41.762 -17.443   2.378  1.00  0.00     0.261 C 
HETATM   12  N   UNL     1      42.874 -18.154   1.965  1.00  0.00    -0.323 N 
HETATM   13  H   UNL     1      43.295 -17.831   1.101  1.00  0.00     0.169 HD
HETATM   14  O   UNL     1      41.223 -17.513   3.474  1.00  0.00    -0.267 OA
BRANCH  12  15
HETATM   15  C   UNL     1      43.533 -19.201   2.638  1.00  0.00     0.037 A 
HETATM   16  C   UNL     1      43.726 -20.472   2.098  1.00  0.00     0.066 A 
HETATM   17  C   UNL     1      44.419 -21.438   2.829  1.00  0.00     0.067 A 
HETATM   18  C   UNL     1      44.919 -21.162   4.096  1.00  0.00     0.036 A 
HETATM   19  C   UNL     1      44.728 -19.894   4.640  1.00  0.00     0.005 A 
HETATM   20  C   UNL     1      44.043 -18.917   3.912  1.00  0.00     0.029 A 
BRANCH  17  21
HETATM   21  O   UNL     1      44.596 -22.663   2.254  1.00  0.00    -0.361 OA
HETATM   22  H   UNL     1      45.403 -23.065   2.613  1.00  0.00     0.217 HD
ENDBRANCH  17  21
ENDBRANCH  12  15
ENDBRANCH   1  11
BRANCH   4  23
HETATM   23  C   UNL     1      40.139 -12.580  -0.358  1.00  0.00     0.409 C 
HETATM   24  F   UNL     1      41.256 -12.476   0.386  1.00  0.00    -0.169 F 
HETATM   25  F   UNL     1      40.500 -12.453  -1.655  1.00  0.00    -0.169 F 
HETATM   26  F   UNL     1      39.371 -11.494  -0.074  1.00  0.00    -0.169 F 
ENDBRANCH   4  23
BRANCH   6  27
HETATM   27  C   UNL     1      39.381 -12.672   3.053  1.00  0.00    -0.035 A 
HETATM   28  C   UNL     1      38.639 -11.476   3.140  1.00  0.00     0.012 A 
HETATM   29  C   UNL     1      39.180 -10.336   3.740  1.00  0.00     0.043 A 
HETATM   30  C   UNL     1      40.466 -10.380   4.260  1.00  0.00     0.116 A 
HETATM   31  F   UNL     1      40.983  -9.287   4.837  1.00  0.00    -0.206 F 
HETATM   32  C   UNL     1      41.220 -11.541   4.193  1.00  0.00     0.043 A 
HETATM   33  C   UNL     1      40.679 -12.683   3.596  1.00  0.00     0.012 A 
ENDBRANCH   6  27
TORSDOF 5
ENDMDL
MODEL 9
REMARK VINA RESULT:      -8.0      4.210      8.265
REMARK  5 active torsions:
REMARK  status: ('A' for Active; 'I' for Inactive)
REMARK    1  A    between atoms: C_3  and  O_4 
REMARK    2  A    between atoms: C_6  and  N_7 
REMARK       I    between atoms: N_7  and  C_8 
REMARK    3  A    between atoms: C_8  and  C_9 
REMARK    4  A    between atoms: C_12  and  C_13 
REMARK    5  A    between atoms: C_18  and  C_19 
ROOT
HETATM    1  C   UNL     1      44.393 -15.318   6.581  1.00  0.00     0.096 A 
HETATM    2  C   UNL     1      43.195 -15.639   5.967  1.00  0.00     0.138 A 
HETATM    3  N   UNL     1      43.286 -16.971   5.645  1.00  0.00    -0.240 N 
HETATM    4  C   UNL     1      42.251 -17.735   4.978  1.00  0.00     0.221 C 
HETATM    5  C   UNL     1      40.910 -16.982   5.031  1.00  0.00     0.066 C 
HETATM    6  C   UNL     1      41.024 -15.462   4.823  1.00  0.00     0.118 C 
HETATM    7  N   UNL     1      42.089 -14.909   5.662  1.00  0.00    -0.365 N 
HETATM    8  N   UNL     1      44.435 -17.545   6.031  1.00  0.00    -0.181 NA
HETATM    9  C   UNL     1      45.127 -16.528   6.554  1.00  0.00     0.160 A 
HETATM   10  H   UNL     1      42.176 -13.893   5.570  1.00  0.00     0.161 HD
ENDROOT
BRANCH   1  11
HETATM   11  C   UNL     1      44.829 -14.045   7.130  1.00  0.00     0.261 C 
HETATM   12  N   UNL     1      44.178 -13.715   8.304  1.00  0.00    -0.323 N 
HETATM   13  H   UNL     1      43.612 -14.455   8.704  1.00  0.00     0.169 HD
HETATM   14  O   UNL     1      45.717 -13.400   6.587  1.00  0.00    -0.267 OA
BRANCH  12  15
HETATM   15  C   UNL     1      44.277 -12.522   9.045  1.00  0.00     0.037 A 
HETATM   16  C   UNL     1      43.248 -11.588   9.156  1.00  0.00     0.066 A 
HETATM   17  C   UNL     1      43.429 -10.447   9.939  1.00  0.00     0.067 A 
HETATM   18  C   UNL     1      44.623 -10.215  10.612  1.00  0.00     0.036 A 
HETATM   19  C   UNL     1      45.654 -11.145  10.503  1.00  0.00     0.005 A 
HETATM   20  C   UNL     1      45.480 -12.295   9.728  1.00  0.00     0.029 A 
BRANCH  17  21
HETATM   21  O   UNL     1      42.388  -9.569  10.030  1.00  0.00    -0.361 OA
HETATM   22  H   UNL     1      41.825  -9.824  10.778  1.00  0.00     0.217 HD
ENDBRANCH  17  21
ENDBRANCH  12  15
ENDBRANCH   1  11
BRANCH   4  23
HETATM   23  C   UNL     1      42.686 -18.115   3.579  1.00  0.00     0.409 C 
HETATM   24  F   UNL     1      41.672 -18.189   2.696  1.00  0.00    -0.169 F 
HETATM   25  F   UNL     1      43.602 -17.258   3.076  1.00  0.00    -0.169 F 
HETATM   26  F   UNL     1      43.284 -19.337   3.597  1.00  0.00    -0.169 F 
ENDBRANCH   4  23
BRANCH   6  27
HETATM   27  C   UNL     1      41.104 -15.005   3.375  1.00  0.00    -0.035 A 
HETATM   28  C   UNL     1      40.076 -15.382   2.487  1.00  0.00     0.012 A 
HETATM   29  C   UNL     1      40.091 -14.970   1.153  1.00  0.00     0.043 A 
HETATM   30  C   UNL     1      41.132 -14.177   0.692  1.00  0.00     0.116 A 
HETATM   31  F   UNL     1      41.146 -13.782  -0.588  1.00  0.00    -0.206 F 
HETATM   32  C   UNL     1      42.158 -13.787   1.541  1.00  0.00     0.043 A 
HETATM   33  C   UNL     1      42.141 -14.195   2.877  1.00  0.00     0.012 A 
ENDBRANCH   6  27
TORSDOF 5
ENDMDL
MODEL 10
REMARK VINA RESULT:      -7.7      3.916      7.495
REMARK  5 active torsions:
REMARK  status: ('A' for Active; 'I' for Inactive)
REMARK    1  A    between atoms: C_3  and  O_4 
REMARK    2  A    between atoms: C_6  and  N_7 
REMARK       I    between atoms: N_7  and  C_8 
REMARK    3  A    between atoms: C_8  and  C_9 
REMARK    4  A    between atoms: C_12  and  C_13 
REMARK    5  A    between atoms: C_18  and  C_19 
ROOT
HETATM    1  C   UNL     1      41.574 -14.908   4.211  1.00  0.00     0.096 A 
HETATM    2  C   UNL     1      41.572 -14.054   3.123  1.00  0.00     0.138 A 
HETATM    3  N   UNL     1      40.374 -13.386   3.173  1.00  0.00    -0.240 N 
HETATM    4  C   UNL     1      39.940 -12.386   2.218  1.00  0.00     0.221 C 
HETATM    5  C   UNL     1      41.133 -11.890   1.382  1.00  0.00     0.066 C 
HETATM    6  C   UNL     1      42.127 -12.991   0.974  1.00  0.00     0.118 C 
HETATM    7  N   UNL     1      42.471 -13.825   2.128  1.00  0.00    -0.365 N 
HETATM    8  N   UNL     1      39.612 -13.718   4.227  1.00  0.00    -0.181 NA
HETATM    9  C   UNL     1      40.321 -14.679   4.828  1.00  0.00     0.160 A 
HETATM   10  H   UNL     1      43.152 -14.553   1.898  1.00  0.00     0.161 HD
ENDROOT
BRANCH   1  11
HETATM   11  C   UNL     1      42.602 -15.840   4.643  1.00  0.00     0.261 C 
HETATM   12  N   UNL     1      42.427 -17.110   4.124  1.00  0.00    -0.323 N 
HETATM   13  H   UNL     1      41.716 -17.186   3.406  1.00  0.00     0.169 HD
HETATM   14  O   UNL     1      43.525 -15.469   5.355  1.00  0.00    -0.267 OA
BRANCH  12  15
HETATM   15  C   UNL     1      43.167 -18.273   4.409  1.00  0.00     0.037 A 
HETATM   16  C   UNL     1      43.182 -18.900   5.655  1.00  0.00     0.066 A 
HETATM   17  C   UNL     1      43.923 -20.068   5.834  1.00  0.00     0.067 A 
HETATM   18  C   UNL     1      44.658 -20.623   4.793  1.00  0.00     0.036 A 
HETATM   19  C   UNL     1      44.647 -20.000   3.547  1.00  0.00     0.005 A 
HETATM   20  C   UNL     1      43.901 -18.834   3.355  1.00  0.00     0.029 A 
BRANCH  17  21
HETATM   21  O   UNL     1      43.895 -20.654   7.067  1.00  0.00    -0.361 OA
HETATM   22  H   UNL     1      43.066 -20.416   7.510  1.00  0.00     0.217 HD
ENDBRANCH  17  21
ENDBRANCH  12  15
ENDBRANCH   1  11
BRANCH   4  23
HETATM   23  C   UNL     1      38.785 -12.906   1.389  1.00  0.00     0.409 C 
HETATM   24  F   UNL     1      38.834 -12.535   0.096  1.00  0.00    -0.169 F 
HETATM   25  F   UNL     1      38.694 -14.254   1.424  1.00  0.00    -0.169 F 
HETATM   26  F   UNL     1      37.610 -12.437   1.890  1.00  0.00    -0.169 F 
ENDBRANCH   4  23
BRANCH   6  27
HETATM   27  C   UNL     1      41.738 -13.799  -0.254  1.00  0.00    -0.035 A 
HETATM   28  C   UNL     1      41.418 -15.163  -0.096  1.00  0.00     0.012 A 
HETATM   29  C   UNL     1      41.034 -15.943  -1.189  1.00  0.00     0.043 A 
HETATM   30  C   UNL     1      40.964 -15.370  -2.450  1.00  0.00     0.116 A 
HETATM   31  F   UNL     1      40.594 -16.119  -3.497  1.00  0.00    -0.206 F 
HETATM   32  C   UNL     1      41.269 -14.030  -2.639  1.00  0.00     0.043 A 
HETATM   33  C   UNL     1      41.649 -13.247  -1.546  1.00  0.00     0.012 A 
ENDBRANCH   6  27
TORSDOF 5
ENDMDL
