MODEL 1
REMARK VINA RESULT:      -9.5      0.000      0.000
REMARK  8 active torsions:
REMARK  status: ('A' for Active; 'I' for Inactive)
REMARK    1  A    between atoms: N_2  and  C_4 
REMARK    2  A    between atoms: N_2  and  C_32 
REMARK    3  A    between atoms: C_4  and  C_5 
REMARK    4  A    between atoms: N_8  and  C_9 
REMARK    5  A    between atoms: C_12  and  N_13 
REMARK    6  A    between atoms: N_13  and  C_16 
REMARK    7  A    between atoms: C_16  and  C_17 
REMARK    8  A    between atoms: C_32  and  C_33 
ROOT
HETATM    1  C   UNL     1      39.926 -13.421   4.999  1.00  0.00     0.161 C 
HETATM    2  C   UNL     1      41.072 -14.351   5.365  1.00  0.00     0.179 C 
HETATM    3  C   UNL     1      41.552 -14.872   4.016  1.00  0.00     0.185 C 
HETATM    4  C   UNL     1      40.981 -16.284   3.955  1.00  0.00     0.241 C 
HETATM    5  C   UNL     1      41.004 -16.678   5.422  1.00  0.00     0.204 C 
HETATM    6  O   UNL     1      40.636 -15.484   6.135  1.00  0.00    -0.379 OA
HETATM    7  O   UNL     1      40.994 -14.055   2.984  1.00  0.00    -0.379 OA
HETATM    8  C   UNL     1      40.367 -12.922   3.628  1.00  0.00     0.198 C 
ENDROOT
BRANCH   1   9
HETATM    9  N   UNL     1      39.665 -12.408   5.989  1.00  0.00    -0.274 N 
HETATM   10  N   UNL     1      39.211 -11.192   5.649  1.00  0.00     0.005 NA
HETATM   11  N   UNL     1      39.081 -10.478   6.758  1.00  0.00    -0.161 NA
HETATM   12  C   UNL     1      39.468 -11.260   7.815  1.00  0.00     0.095 A 
HETATM   13  C   UNL     1      39.836 -12.501   7.342  1.00  0.00     0.139 A 
BRANCH  12  14
HETATM   14  C   UNL     1      39.422 -10.722   9.200  1.00  0.00     0.296 C 
BRANCH  14  15
HETATM   15  N   UNL     1      40.649 -11.040  10.027  1.00  0.00    -0.066 N 
HETATM   16  C   UNL     1      40.314 -11.171  11.485  1.00  0.00     0.270 C 
HETATM   17  H   UNL     1      40.975 -11.960   9.701  1.00  0.00     0.280 HD
BRANCH  15  18
HETATM   18  C   UNL     1      41.786 -10.075   9.762  1.00  0.00     0.273 C 
BRANCH  18  19
HETATM   19  C   UNL     1      43.143 -10.721   9.721  1.00  0.00    -0.033 A 
HETATM   20  C   UNL     1      44.107 -10.428  10.699  1.00  0.00     0.009 A 
HETATM   21  C   UNL     1      45.373 -11.015  10.637  1.00  0.00     0.001 A 
HETATM   22  C   UNL     1      45.683 -11.903   9.609  1.00  0.00     0.000 A 
HETATM   23  C   UNL     1      44.730 -12.210   8.642  1.00  0.00     0.001 A 
HETATM   24  C   UNL     1      43.466 -11.622   8.695  1.00  0.00     0.009 A 
ENDBRANCH  18  19
ENDBRANCH  15  18
ENDBRANCH  14  15
ENDBRANCH  12  14
ENDBRANCH   1   9
BRANCH   4  25
HETATM   25  N   UNL     1      41.780 -17.167   3.063  1.00  0.00    -0.062 N 
HETATM   26  H   UNL     1      41.585 -18.154   3.297  1.00  0.00     0.278 HD
HETATM   27  H   UNL     1      41.514 -17.077   2.072  1.00  0.00     0.278 HD
BRANCH  25  28
HETATM   28  C   UNL     1      43.262 -16.993   3.158  1.00  0.00     0.273 C 
BRANCH  28  29
HETATM   29  C   UNL     1      43.858 -18.179   3.813  1.00  0.00    -0.005 A 
HETATM   30  C   UNL     1      43.952 -19.495   3.254  1.00  0.00    -0.000 A 
HETATM   31  C   UNL     1      44.565 -20.306   4.208  1.00  0.00     0.043 A 
HETATM   32  C   UNL     1      43.574 -20.073   2.023  1.00  0.00     0.014 A 
HETATM   33  C   UNL     1      44.815 -21.667   3.998  1.00  0.00     0.030 A 
HETATM   34  N   UNL     1      44.852 -19.518   5.297  1.00  0.00    -0.365 N 
HETATM   35  C   UNL     1      44.426 -22.216   2.774  1.00  0.00     0.002 A 
HETATM   36  C   UNL     1      43.816 -21.432   1.798  1.00  0.00     0.001 A 
HETATM   37  H   UNL     1      45.324 -19.847   6.132  1.00  0.00     0.165 HD
HETATM   38  C   UNL     1      44.413 -18.236   5.077  1.00  0.00     0.098 A 
ENDBRANCH  28  29
ENDBRANCH  25  28
ENDBRANCH   4  25
TORSDOF 8
ENDMDL
MODEL 2
REMARK VINA RESULT:      -9.2      1.341      2.079
REMARK  8 active torsions:
REMARK  status: ('A' for Active; 'I' for Inactive)
REMARK    1  A    between atoms: N_2  and  C_4 
REMARK    2  A    between atoms: N_2  and  C_32 
REMARK    3  A    between atoms: C_4  and  C_5 
REMARK    4  A    between atoms: N_8  and  C_9 
REMARK    5  A    between atoms: C_12  and  N_13 
REMARK    6  A    between atoms: N_13  and  C_16 
REMARK    7  A    between atoms: C_16  and  C_17 
REMARK    8  A    between atoms: C_32  and  C_33 
ROOT
HETATM    1  C   UNL     1      39.786 -13.329   5.117  1.00  0.00     0.161 C 
HETATM    2  C   UNL     1      40.989 -14.190   5.474  1.00  0.00     0.179 C 
HETATM    3  C   UNL     1      41.419 -14.772   4.134  1.00  0.00     0.185 C 
HETATM    4  C   UNL     1      40.907 -16.207   4.187  1.00  0.00     0.241 C 
HETATM    5  C   UNL     1      41.023 -16.510   5.670  1.00  0.00     0.204 C 
HETATM    6  O   UNL     1      40.642 -15.290   6.332  1.00  0.00    -0.379 OA
HETATM    7  O   UNL     1      40.775 -14.043   3.087  1.00  0.00    -0.379 OA
HETATM    8  C   UNL     1      40.134 -12.898   3.697  1.00  0.00     0.198 C 
ENDROOT
BRANCH   1   9
HETATM    9  N   UNL     1      39.536 -12.269   6.058  1.00  0.00    -0.274 N 
HETATM   10  N   UNL     1      39.046 -11.082   5.668  1.00  0.00     0.005 NA
HETATM   11  N   UNL     1      38.935 -10.312   6.740  1.00  0.00    -0.161 NA
HETATM   12  C   UNL     1      39.370 -11.027   7.826  1.00  0.00     0.095 A 
HETATM   13  C   UNL     1      39.749 -12.285   7.409  1.00  0.00     0.139 A 
BRANCH  12  14
HETATM   14  C   UNL     1      39.355 -10.416   9.181  1.00  0.00     0.296 C 
BRANCH  14  15
HETATM   15  N   UNL     1      40.710  -9.941   9.659  1.00  0.00    -0.066 N 
HETATM   16  C   UNL     1      41.539  -9.406   8.527  1.00  0.00     0.270 C 
HETATM   17  H   UNL     1      40.521  -9.158  10.300  1.00  0.00     0.280 HD
BRANCH  15  18
HETATM   18  C   UNL     1      41.429 -10.990  10.481  1.00  0.00     0.273 C 
BRANCH  18  19
HETATM   19  C   UNL     1      41.861 -10.516  11.841  1.00  0.00    -0.033 A 
HETATM   20  C   UNL     1      43.105  -9.891  12.022  1.00  0.00     0.009 A 
HETATM   21  C   UNL     1      43.505  -9.477  13.294  1.00  0.00     0.001 A 
HETATM   22  C   UNL     1      42.668  -9.674  14.391  1.00  0.00     0.000 A 
HETATM   23  C   UNL     1      41.427 -10.282  14.220  1.00  0.00     0.001 A 
HETATM   24  C   UNL     1      41.024 -10.703  12.952  1.00  0.00     0.009 A 
ENDBRANCH  18  19
ENDBRANCH  15  18
ENDBRANCH  14  15
ENDBRANCH  12  14
ENDBRANCH   1   9
BRANCH   4  25
HETATM   25  N   UNL     1      41.695 -17.110   3.306  1.00  0.00    -0.062 N 
HETATM   26  H   UNL     1      41.513 -18.091   3.573  1.00  0.00     0.278 HD
HETATM   27  H   UNL     1      41.407 -17.053   2.318  1.00  0.00     0.278 HD
BRANCH  25  28
HETATM   28  C   UNL     1      43.176 -16.922   3.365  1.00  0.00     0.273 C 
BRANCH  28  29
HETATM   29  C   UNL     1      43.805 -18.126   3.952  1.00  0.00    -0.005 A 
HETATM   30  C   UNL     1      43.907 -19.414   3.332  1.00  0.00    -0.000 A 
HETATM   31  C   UNL     1      44.553 -20.258   4.236  1.00  0.00     0.043 A 
HETATM   32  C   UNL     1      43.512 -19.942   2.084  1.00  0.00     0.014 A 
HETATM   33  C   UNL     1      44.820 -21.603   3.958  1.00  0.00     0.030 A 
HETATM   34  N   UNL     1      44.852 -19.514   5.353  1.00  0.00    -0.365 N 
HETATM   35  C   UNL     1      44.414 -22.103   2.719  1.00  0.00     0.002 A 
HETATM   36  C   UNL     1      43.770 -21.286   1.793  1.00  0.00     0.001 A 
HETATM   37  H   UNL     1      45.346 -19.873   6.162  1.00  0.00     0.165 HD
HETATM   38  C   UNL     1      44.388 -18.232   5.201  1.00  0.00     0.098 A 
ENDBRANCH  28  29
ENDBRANCH  25  28
ENDBRANCH   4  25
TORSDOF 8
ENDMDL
MODEL 3
REMARK VINA RESULT:      -9.1      3.942      8.109
REMARK  8 active torsions:
REMARK  status: ('A' for Active; 'I' for Inactive)
REMARK    1  A    between atoms: N_2  and  C_4 
REMARK    2  A    between atoms: N_2  and  C_32 
REMARK    3  A    between atoms: C_4  and  C_5 
REMARK    4  A    between atoms: N_8  and  C_9 
REMARK    5  A    between atoms: C_12  and  N_13 
REMARK    6  A    between atoms: N_13  and  C_16 
REMARK    7  A    between atoms: C_16  and  C_17 
REMARK    8  A    between atoms: C_32  and  C_33 
ROOT
HETATM    1  C   UNL     1      40.667 -15.032   4.958  1.00  0.00     0.161 C 
HETATM    2  C   UNL     1      41.019 -15.058   3.478  1.00  0.00     0.179 C 
HETATM    3  C   UNL     1      40.256 -13.868   2.911  1.00  0.00     0.185 C 
HETATM    4  C   UNL     1      39.064 -14.509   2.209  1.00  0.00     0.241 C 
HETATM    5  C   UNL     1      39.663 -15.825   1.747  1.00  0.00     0.204 C 
HETATM    6  O   UNL     1      40.530 -16.238   2.818  1.00  0.00    -0.379 OA
HETATM    7  O   UNL     1      39.822 -13.042   3.994  1.00  0.00    -0.379 OA
HETATM    8  C   UNL     1      40.460 -13.540   5.193  1.00  0.00     0.198 C 
ENDROOT
BRANCH   1   9
HETATM    9  N   UNL     1      41.647 -15.675   5.795  1.00  0.00    -0.274 N 
HETATM   10  N   UNL     1      42.710 -15.010   6.273  1.00  0.00     0.005 NA
HETATM   11  N   UNL     1      43.434 -15.857   6.991  1.00  0.00    -0.161 NA
HETATM   12  C   UNL     1      42.817 -17.080   6.958  1.00  0.00     0.095 A 
HETATM   13  C   UNL     1      41.667 -16.980   6.204  1.00  0.00     0.139 A 
BRANCH  12  14
HETATM   14  C   UNL     1      43.403 -18.235   7.687  1.00  0.00     0.296 C 
BRANCH  14  15
HETATM   15  N   UNL     1      43.597 -19.470   6.835  1.00  0.00    -0.066 N 
HETATM   16  C   UNL     1      43.756 -20.703   7.676  1.00  0.00     0.270 C 
HETATM   17  H   UNL     1      42.728 -19.575   6.294  1.00  0.00     0.280 HD
BRANCH  15  18
HETATM   18  C   UNL     1      44.704 -19.297   5.816  1.00  0.00     0.273 C 
BRANCH  18  19
HETATM   19  C   UNL     1      44.337 -19.737   4.426  1.00  0.00    -0.033 A 
HETATM   20  C   UNL     1      44.721 -21.000   3.948  1.00  0.00     0.009 A 
HETATM   21  C   UNL     1      44.395 -21.389   2.648  1.00  0.00     0.001 A 
HETATM   22  C   UNL     1      43.677 -20.529   1.819  1.00  0.00     0.000 A 
HETATM   23  C   UNL     1      43.279 -19.279   2.288  1.00  0.00     0.001 A 
HETATM   24  C   UNL     1      43.608 -18.883   3.584  1.00  0.00     0.009 A 
ENDBRANCH  18  19
ENDBRANCH  15  18
ENDBRANCH  14  15
ENDBRANCH  12  14
ENDBRANCH   1   9
BRANCH   4  25
HETATM   25  N   UNL     1      38.536 -13.649   1.116  1.00  0.00    -0.062 N 
HETATM   26  H   UNL     1      38.044 -14.239   0.425  1.00  0.00     0.278 HD
HETATM   27  H   UNL     1      37.823 -12.982   1.443  1.00  0.00     0.278 HD
BRANCH  25  28
HETATM   28  C   UNL     1      39.570 -12.880   0.357  1.00  0.00     0.273 C 
BRANCH  28  29
HETATM   29  C   UNL     1      40.097 -13.714  -0.746  1.00  0.00    -0.005 A 
HETATM   30  C   UNL     1      39.336 -14.261  -1.830  1.00  0.00    -0.000 A 
HETATM   31  C   UNL     1      40.218 -14.991  -2.626  1.00  0.00     0.043 A 
HETATM   32  C   UNL     1      37.978 -14.201  -2.211  1.00  0.00     0.014 A 
HETATM   33  C   UNL     1      39.812 -15.669  -3.781  1.00  0.00     0.030 A 
HETATM   34  N   UNL     1      41.468 -14.881  -2.066  1.00  0.00    -0.365 N 
HETATM   35  C   UNL     1      38.462 -15.599  -4.133  1.00  0.00     0.002 A 
HETATM   36  C   UNL     1      37.556 -14.875  -3.362  1.00  0.00     0.001 A 
HETATM   37  H   UNL     1      42.307 -15.297  -2.455  1.00  0.00     0.165 HD
HETATM   38  C   UNL     1      41.404 -14.129  -0.920  1.00  0.00     0.098 A 
ENDBRANCH  28  29
ENDBRANCH  25  28
ENDBRANCH   4  25
TORSDOF 8
ENDMDL
MODEL 4
REMARK VINA RESULT:      -9.0      1.748      2.540
REMARK  8 active torsions:
REMARK  status: ('A' for Active; 'I' for Inactive)
REMARK    1  A    between atoms: N_2  and  C_4 
REMARK    2  A    between atoms: N_2  and  C_32 
REMARK    3  A    between atoms: C_4  and  C_5 
REMARK    4  A    between atoms: N_8  and  C_9 
REMARK    5  A    between atoms: C_12  and  N_13 
REMARK    6  A    between atoms: N_13  and  C_16 
REMARK    7  A    between atoms: C_16  and  C_17 
REMARK    8  A    between atoms: C_32  and  C_33 
ROOT
HETATM    1  C   UNL     1      41.594 -13.270   5.329  1.00  0.00     0.161 C 
HETATM    2  C   UNL     1      40.719 -14.490   5.086  1.00  0.00     0.179 C 
HETATM    3  C   UNL     1      41.727 -15.602   4.823  1.00  0.00     0.185 C 
HETATM    4  C   UNL     1      41.672 -15.783   3.310  1.00  0.00     0.241 C 
HETATM    5  C   UNL     1      40.219 -15.447   3.023  1.00  0.00     0.204 C 
HETATM    6  O   UNL     1      39.905 -14.358   3.909  1.00  0.00    -0.379 OA
HETATM    7  O   UNL     1      43.021 -15.156   5.233  1.00  0.00    -0.379 OA
HETATM    8  C   UNL     1      42.838 -13.906   5.938  1.00  0.00     0.198 C 
ENDROOT
BRANCH   1   9
HETATM    9  N   UNL     1      40.953 -12.249   6.118  1.00  0.00    -0.274 N 
HETATM   10  N   UNL     1      39.626 -12.053   6.072  1.00  0.00     0.005 NA
HETATM   11  N   UNL     1      39.332 -11.049   6.884  1.00  0.00    -0.161 NA
HETATM   12  C   UNL     1      40.498 -10.600   7.446  1.00  0.00     0.095 A 
HETATM   13  C   UNL     1      41.545 -11.362   6.974  1.00  0.00     0.139 A 
BRANCH  12  14
HETATM   14  C   UNL     1      40.477  -9.472   8.415  1.00  0.00     0.296 C 
BRANCH  14  15
HETATM   15  N   UNL     1      40.871  -9.860   9.824  1.00  0.00    -0.066 N 
HETATM   16  C   UNL     1      40.039 -11.001  10.335  1.00  0.00     0.270 C 
HETATM   17  H   UNL     1      41.843 -10.191   9.761  1.00  0.00     0.280 HD
BRANCH  15  18
HETATM   18  C   UNL     1      40.893  -8.672  10.762  1.00  0.00     0.273 C 
BRANCH  18  19
HETATM   19  C   UNL     1      41.527  -8.953  12.097  1.00  0.00    -0.033 A 
HETATM   20  C   UNL     1      40.779  -8.860  13.281  1.00  0.00     0.009 A 
HETATM   21  C   UNL     1      41.383  -9.101  14.516  1.00  0.00     0.001 A 
HETATM   22  C   UNL     1      42.733  -9.443  14.580  1.00  0.00     0.000 A 
HETATM   23  C   UNL     1      43.481  -9.551  13.410  1.00  0.00     0.001 A 
HETATM   24  C   UNL     1      42.883  -9.306  12.174  1.00  0.00     0.009 A 
ENDBRANCH  18  19
ENDBRANCH  15  18
ENDBRANCH  14  15
ENDBRANCH  12  14
ENDBRANCH   1   9
BRANCH   4  25
HETATM   25  N   UNL     1      42.084 -17.152   2.901  1.00  0.00    -0.062 N 
HETATM   26  H   UNL     1      41.776 -17.831   3.616  1.00  0.00     0.278 HD
HETATM   27  H   UNL     1      41.625 -17.464   2.033  1.00  0.00     0.278 HD
BRANCH  25  28
HETATM   28  C   UNL     1      43.557 -17.350   2.736  1.00  0.00     0.273 C 
BRANCH  28  29
HETATM   29  C   UNL     1      44.015 -18.433   3.634  1.00  0.00    -0.005 A 
HETATM   30  C   UNL     1      44.145 -19.818   3.291  1.00  0.00    -0.000 A 
HETATM   31  C   UNL     1      44.588 -20.487   4.432  1.00  0.00     0.043 A 
HETATM   32  C   UNL     1      43.928 -20.566   2.114  1.00  0.00     0.014 A 
HETATM   33  C   UNL     1      44.821 -21.866   4.458  1.00  0.00     0.030 A 
HETATM   34  N   UNL     1      44.742 -19.549   5.426  1.00  0.00    -0.365 N 
HETATM   35  C   UNL     1      44.594 -22.585   3.283  1.00  0.00     0.002 A 
HETATM   36  C   UNL     1      44.155 -21.947   2.126  1.00  0.00     0.001 A 
HETATM   37  H   UNL     1      45.079 -19.758   6.359  1.00  0.00     0.165 HD
HETATM   38  C   UNL     1      44.381 -18.310   4.962  1.00  0.00     0.098 A 
ENDBRANCH  28  29
ENDBRANCH  25  28
ENDBRANCH   4  25
TORSDOF 8
ENDMDL
MODEL 5
REMARK VINA RESULT:      -8.9      4.250      8.582
REMARK  8 active torsions:
REMARK  status: ('A' for Active; 'I' for Inactive)
REMARK    1  A    between atoms: N_2  and  C_4 
REMARK    2  A    between atoms: N_2  and  C_32 
REMARK    3  A    between atoms: C_4  and  C_5 
REMARK    4  A    between atoms: N_8  and  C_9 
REMARK    5  A    between atoms: C_12  and  N_13 
REMARK    6  A    between atoms: N_13  and  C_16 
REMARK    7  A    between atoms: C_16  and  C_17 
REMARK    8  A    between atoms: C_32  and  C_33 
ROOT
HETATM    1  C   UNL     1      41.537 -14.687   4.035  1.00  0.00     0.161 C 
HETATM    2  C   UNL     1      42.501 -14.783   2.862  1.00  0.00     0.179 C 
HETATM    3  C   UNL     1      42.495 -13.375   2.282  1.00  0.00     0.185 C 
HETATM    4  C   UNL     1      41.627 -13.505   1.035  1.00  0.00     0.241 C 
HETATM    5  C   UNL     1      41.931 -14.931   0.609  1.00  0.00     0.204 C 
HETATM    6  O   UNL     1      42.032 -15.675   1.836  1.00  0.00    -0.379 OA
HETATM    7  O   UNL     1      41.892 -12.490   3.228  1.00  0.00    -0.379 OA
HETATM    8  C   UNL     1      41.718 -13.234   4.457  1.00  0.00     0.198 C 
ENDROOT
BRANCH   1   9
HETATM    9  N   UNL     1      41.769 -15.678   5.054  1.00  0.00    -0.274 N 
HETATM   10  N   UNL     1      40.809 -16.033   5.921  1.00  0.00     0.005 NA
HETATM   11  N   UNL     1      41.313 -16.943   6.741  1.00  0.00    -0.161 NA
HETATM   12  C   UNL     1      42.619 -17.159   6.386  1.00  0.00     0.095 A 
HETATM   13  C   UNL     1      42.925 -16.364   5.303  1.00  0.00     0.139 A 
BRANCH  12  14
HETATM   14  C   UNL     1      43.445 -18.145   7.133  1.00  0.00     0.296 C 
BRANCH  14  15
HETATM   15  N   UNL     1      43.589 -19.482   6.439  1.00  0.00    -0.066 N 
HETATM   16  C   UNL     1      43.627 -20.614   7.424  1.00  0.00     0.270 C 
HETATM   17  H   UNL     1      42.738 -19.595   5.871  1.00  0.00     0.280 HD
BRANCH  15  18
HETATM   18  C   UNL     1      44.747 -19.501   5.464  1.00  0.00     0.273 C 
BRANCH  18  19
HETATM   19  C   UNL     1      44.442 -20.184   4.159  1.00  0.00    -0.033 A 
HETATM   20  C   UNL     1      43.837 -19.482   3.105  1.00  0.00     0.009 A 
HETATM   21  C   UNL     1      43.537 -20.132   1.907  1.00  0.00     0.001 A 
HETATM   22  C   UNL     1      43.844 -21.482   1.747  1.00  0.00     0.000 A 
HETATM   23  C   UNL     1      44.455 -22.185   2.781  1.00  0.00     0.001 A 
HETATM   24  C   UNL     1      44.753 -21.542   3.983  1.00  0.00     0.009 A 
ENDBRANCH  18  19
ENDBRANCH  15  18
ENDBRANCH  14  15
ENDBRANCH  12  14
ENDBRANCH   1   9
BRANCH   4  25
HETATM   25  N   UNL     1      41.956 -12.470   0.019  1.00  0.00    -0.062 N 
HETATM   26  H   UNL     1      41.231 -11.735   0.034  1.00  0.00     0.278 HD
HETATM   27  H   UNL     1      42.834 -11.974   0.227  1.00  0.00     0.278 HD
BRANCH  25  28
HETATM   28  C   UNL     1      42.030 -12.964  -1.390  1.00  0.00     0.273 C 
BRANCH  28  29
HETATM   29  C   UNL     1      40.666 -13.040  -1.960  1.00  0.00    -0.005 A 
HETATM   30  C   UNL     1      40.095 -14.164  -2.641  1.00  0.00    -0.000 A 
HETATM   31  C   UNL     1      38.805 -13.803  -3.025  1.00  0.00     0.043 A 
HETATM   32  C   UNL     1      40.557 -15.458  -2.965  1.00  0.00     0.014 A 
HETATM   33  C   UNL     1      37.952 -14.667  -3.721  1.00  0.00     0.030 A 
HETATM   34  N   UNL     1      38.585 -12.520  -2.582  1.00  0.00    -0.365 N 
HETATM   35  C   UNL     1      38.434 -15.940  -4.035  1.00  0.00     0.002 A 
HETATM   36  C   UNL     1      39.717 -16.333  -3.663  1.00  0.00     0.001 A 
HETATM   37  H   UNL     1      37.715 -12.015  -2.705  1.00  0.00     0.165 HD
HETATM   38  C   UNL     1      39.708 -12.042  -1.955  1.00  0.00     0.098 A 
ENDBRANCH  28  29
ENDBRANCH  25  28
ENDBRANCH   4  25
TORSDOF 8
ENDMDL
MODEL 6
REMARK VINA RESULT:      -8.7      1.802      2.318
REMARK  8 active torsions:
REMARK  status: ('A' for Active; 'I' for Inactive)
REMARK    1  A    between atoms: N_2  and  C_4 
REMARK    2  A    between atoms: N_2  and  C_32 
REMARK    3  A    between atoms: C_4  and  C_5 
REMARK    4  A    between atoms: N_8  and  C_9 
REMARK    5  A    between atoms: C_12  and  N_13 
REMARK    6  A    between atoms: N_13  and  C_16 
REMARK    7  A    between atoms: C_16  and  C_17 
REMARK    8  A    between atoms: C_32  and  C_33 
ROOT
HETATM    1  C   UNL     1      39.986 -12.393   6.496  1.00  0.00     0.161 C 
HETATM    2  C   UNL     1      41.286 -12.261   5.717  1.00  0.00     0.179 C 
HETATM    3  C   UNL     1      41.245 -13.443   4.757  1.00  0.00     0.185 C 
HETATM    4  C   UNL     1      42.211 -14.443   5.381  1.00  0.00     0.241 C 
HETATM    5  C   UNL     1      43.222 -13.515   6.032  1.00  0.00     0.204 C 
HETATM    6  O   UNL     1      42.445 -12.421   6.551  1.00  0.00    -0.379 OA
HETATM    7  O   UNL     1      39.917 -13.970   4.731  1.00  0.00    -0.379 OA
HETATM    8  C   UNL     1      39.077 -13.044   5.460  1.00  0.00     0.198 C 
ENDROOT
BRANCH   1   9
HETATM    9  N   UNL     1      39.520 -11.150   7.056  1.00  0.00    -0.274 N 
HETATM   10  N   UNL     1      39.079 -10.150   6.278  1.00  0.00     0.005 NA
HETATM   11  N   UNL     1      38.735  -9.141   7.065  1.00  0.00    -0.161 NA
HETATM   12  C   UNL     1      38.971  -9.513   8.363  1.00  0.00     0.095 A 
HETATM   13  C   UNL     1      39.465 -10.799   8.376  1.00  0.00     0.139 A 
BRANCH  12  14
HETATM   14  C   UNL     1      38.670  -8.576   9.477  1.00  0.00     0.296 C 
BRANCH  14  15
HETATM   15  N   UNL     1      39.044  -9.103  10.846  1.00  0.00    -0.066 N 
HETATM   16  C   UNL     1      37.851  -9.177  11.754  1.00  0.00     0.270 C 
HETATM   17  H   UNL     1      39.376 -10.065  10.693  1.00  0.00     0.280 HD
BRANCH  15  18
HETATM   18  C   UNL     1      40.209  -8.350  11.453  1.00  0.00     0.273 C 
BRANCH  18  19
HETATM   19  C   UNL     1      41.400  -9.212  11.771  1.00  0.00    -0.033 A 
HETATM   20  C   UNL     1      42.378  -8.778  12.680  1.00  0.00     0.009 A 
HETATM   21  C   UNL     1      43.491  -9.576  12.950  1.00  0.00     0.001 A 
HETATM   22  C   UNL     1      43.633 -10.813  12.325  1.00  0.00     0.000 A 
HETATM   23  C   UNL     1      42.663 -11.259  11.431  1.00  0.00     0.001 A 
HETATM   24  C   UNL     1      41.551 -10.463  11.154  1.00  0.00     0.009 A 
ENDBRANCH  18  19
ENDBRANCH  15  18
ENDBRANCH  14  15
ENDBRANCH  12  14
ENDBRANCH   1   9
BRANCH   4  25
HETATM   25  N   UNL     1      42.782 -15.370   4.368  1.00  0.00    -0.062 N 
HETATM   26  H   UNL     1      42.687 -14.951   3.429  1.00  0.00     0.278 HD
HETATM   27  H   UNL     1      43.796 -15.514   4.486  1.00  0.00     0.278 HD
BRANCH  25  28
HETATM   28  C   UNL     1      42.133 -16.715   4.299  1.00  0.00     0.273 C 
BRANCH  28  29
HETATM   29  C   UNL     1      43.140 -17.766   4.566  1.00  0.00    -0.005 A 
HETATM   30  C   UNL     1      43.459 -18.869   3.710  1.00  0.00    -0.000 A 
HETATM   31  C   UNL     1      44.445 -19.619   4.351  1.00  0.00     0.043 A 
HETATM   32  C   UNL     1      43.003 -19.299   2.445  1.00  0.00     0.014 A 
HETATM   33  C   UNL     1      44.994 -20.779   3.796  1.00  0.00     0.030 A 
HETATM   34  N   UNL     1      44.732 -18.992   5.540  1.00  0.00    -0.365 N 
HETATM   35  C   UNL     1      44.522 -21.188   2.546  1.00  0.00     0.002 A 
HETATM   36  C   UNL     1      43.541 -20.459   1.878  1.00  0.00     0.001 A 
HETATM   37  H   UNL     1      45.433 -19.311   6.199  1.00  0.00     0.165 HD
HETATM   38  C   UNL     1      43.937 -17.883   5.690  1.00  0.00     0.098 A 
ENDBRANCH  28  29
ENDBRANCH  25  28
ENDBRANCH   4  25
TORSDOF 8
ENDMDL
MODEL 7
REMARK VINA RESULT:      -8.7      5.027      9.646
REMARK  8 active torsions:
REMARK  status: ('A' for Active; 'I' for Inactive)
REMARK    1  A    between atoms: N_2  and  C_4 
REMARK    2  A    between atoms: N_2  and  C_32 
REMARK    3  A    between atoms: C_4  and  C_5 
REMARK    4  A    between atoms: N_8  and  C_9 
REMARK    5  A    between atoms: C_12  and  N_13 
REMARK    6  A    between atoms: N_13  and  C_16 
REMARK    7  A    between atoms: C_16  and  C_17 
REMARK    8  A    between atoms: C_32  and  C_33 
ROOT
HETATM    1  C   UNL     1      40.691 -14.936   1.256  1.00  0.00     0.161 C 
HETATM    2  C   UNL     1      41.611 -15.052   0.050  1.00  0.00     0.179 C 
HETATM    3  C   UNL     1      41.360 -13.759  -0.715  1.00  0.00     0.185 C 
HETATM    4  C   UNL     1      40.475 -14.197  -1.876  1.00  0.00     0.241 C 
HETATM    5  C   UNL     1      40.985 -15.606  -2.123  1.00  0.00     0.204 C 
HETATM    6  O   UNL     1      41.250 -16.142  -0.814  1.00  0.00    -0.379 OA
HETATM    7  O   UNL     1      40.661 -12.849   0.138  1.00  0.00    -0.379 OA
HETATM    8  C   UNL     1      40.655 -13.426   1.465  1.00  0.00     0.198 C 
ENDROOT
BRANCH   1   9
HETATM    9  N   UNL     1      41.116 -15.722   2.384  1.00  0.00    -0.274 N 
HETATM   10  N   UNL     1      40.633 -16.954   2.606  1.00  0.00     0.005 NA
HETATM   11  N   UNL     1      41.192 -17.421   3.713  1.00  0.00    -0.161 NA
HETATM   12  C   UNL     1      42.038 -16.460   4.201  1.00  0.00     0.095 A 
HETATM   13  C   UNL     1      42.009 -15.369   3.359  1.00  0.00     0.139 A 
BRANCH  12  14
HETATM   14  C   UNL     1      42.816 -16.707   5.443  1.00  0.00     0.296 C 
BRANCH  14  15
HETATM   15  N   UNL     1      43.262 -18.143   5.616  1.00  0.00    -0.066 N 
HETATM   16  C   UNL     1      43.411 -18.505   7.066  1.00  0.00     0.270 C 
HETATM   17  H   UNL     1      42.502 -18.720   5.230  1.00  0.00     0.280 HD
BRANCH  15  18
HETATM   18  C   UNL     1      44.492 -18.465   4.793  1.00  0.00     0.273 C 
BRANCH  18  19
HETATM   19  C   UNL     1      44.343 -19.676   3.913  1.00  0.00    -0.033 A 
HETATM   20  C   UNL     1      44.728 -20.946   4.368  1.00  0.00     0.009 A 
HETATM   21  C   UNL     1      44.608 -22.059   3.534  1.00  0.00     0.001 A 
HETATM   22  C   UNL     1      44.095 -21.916   2.246  1.00  0.00     0.000 A 
HETATM   23  C   UNL     1      43.698 -20.662   1.789  1.00  0.00     0.001 A 
HETATM   24  C   UNL     1      43.822 -19.546   2.616  1.00  0.00     0.009 A 
ENDBRANCH  18  19
ENDBRANCH  15  18
ENDBRANCH  14  15
ENDBRANCH  12  14
ENDBRANCH   1   9
BRANCH   4  25
HETATM   25  N   UNL     1      40.596 -13.281  -3.042  1.00  0.00    -0.062 N 
HETATM   26  H   UNL     1      40.157 -13.720  -3.868  1.00  0.00     0.278 HD
HETATM   27  H   UNL     1      40.079 -12.400  -2.911  1.00  0.00     0.278 HD
BRANCH  25  28
HETATM   28  C   UNL     1      41.996 -12.938  -3.438  1.00  0.00     0.273 C 
BRANCH  28  29
HETATM   29  C   UNL     1      42.106 -11.478  -3.654  1.00  0.00    -0.005 A 
HETATM   30  C   UNL     1      42.654 -10.526  -2.735  1.00  0.00    -0.000 A 
HETATM   31  C   UNL     1      42.546  -9.268  -3.328  1.00  0.00     0.043 A 
HETATM   32  C   UNL     1      43.236 -10.616  -1.452  1.00  0.00     0.014 A 
HETATM   33  C   UNL     1      42.984  -8.096  -2.704  1.00  0.00     0.030 A 
HETATM   34  N   UNL     1      41.973  -9.444  -4.566  1.00  0.00    -0.365 N 
HETATM   35  C   UNL     1      43.551  -8.211  -1.433  1.00  0.00     0.002 A 
HETATM   36  C   UNL     1      43.678  -9.452  -0.814  1.00  0.00     0.001 A 
HETATM   37  H   UNL     1      41.799  -8.694  -5.226  1.00  0.00     0.165 HD
HETATM   38  C   UNL     1      41.686 -10.771  -4.766  1.00  0.00     0.098 A 
ENDBRANCH  28  29
ENDBRANCH  25  28
ENDBRANCH   4  25
TORSDOF 8
ENDMDL
MODEL 8
REMARK VINA RESULT:      -8.6      4.426      8.100
REMARK  8 active torsions:
REMARK  status: ('A' for Active; 'I' for Inactive)
REMARK    1  A    between atoms: N_2  and  C_4 
REMARK    2  A    between atoms: N_2  and  C_32 
REMARK    3  A    between atoms: C_4  and  C_5 
REMARK    4  A    between atoms: N_8  and  C_9 
REMARK    5  A    between atoms: C_12  and  N_13 
REMARK    6  A    between atoms: N_13  and  C_16 
REMARK    7  A    between atoms: C_16  and  C_17 
REMARK    8  A    between atoms: C_32  and  C_33 
ROOT
HETATM    1  C   UNL     1      39.748 -15.400   2.450  1.00  0.00     0.161 C 
HETATM    2  C   UNL     1      40.994 -14.938   3.190  1.00  0.00     0.179 C 
HETATM    3  C   UNL     1      41.679 -16.241   3.578  1.00  0.00     0.185 C 
HETATM    4  C   UNL     1      41.362 -16.384   5.062  1.00  0.00     0.241 C 
HETATM    5  C   UNL     1      41.310 -14.930   5.497  1.00  0.00     0.204 C 
HETATM    6  O   UNL     1      40.682 -14.235   4.405  1.00  0.00    -0.379 OA
HETATM    7  O   UNL     1      41.094 -17.309   2.830  1.00  0.00    -0.379 OA
HETATM    8  C   UNL     1      40.228 -16.710   1.838  1.00  0.00     0.198 C 
ENDROOT
BRANCH   1   9
HETATM    9  N   UNL     1      39.229 -14.422   1.528  1.00  0.00    -0.274 N 
HETATM   10  N   UNL     1      37.947 -14.440   1.131  1.00  0.00     0.005 NA
HETATM   11  N   UNL     1      37.768 -13.439   0.281  1.00  0.00    -0.161 NA
HETATM   12  C   UNL     1      38.962 -12.783   0.137  1.00  0.00     0.095 A 
HETATM   13  C   UNL     1      39.906 -13.393   0.934  1.00  0.00     0.139 A 
BRANCH  12  14
HETATM   14  C   UNL     1      39.064 -11.601  -0.759  1.00  0.00     0.296 C 
BRANCH  14  15
HETATM   15  N   UNL     1      40.149 -11.713  -1.808  1.00  0.00    -0.066 N 
HETATM   16  C   UNL     1      41.092 -10.545  -1.755  1.00  0.00     0.270 C 
HETATM   17  H   UNL     1      40.687 -12.556  -1.564  1.00  0.00     0.280 HD
BRANCH  15  18
HETATM   18  C   UNL     1      39.586 -11.962  -3.192  1.00  0.00     0.273 C 
BRANCH  18  19
HETATM   19  C   UNL     1      39.205 -13.393  -3.453  1.00  0.00    -0.033 A 
HETATM   20  C   UNL     1      37.859 -13.760  -3.608  1.00  0.00     0.009 A 
HETATM   21  C   UNL     1      37.515 -15.095  -3.826  1.00  0.00     0.001 A 
HETATM   22  C   UNL     1      38.507 -16.071  -3.901  1.00  0.00     0.000 A 
HETATM   23  C   UNL     1      39.846 -15.715  -3.761  1.00  0.00     0.001 A 
HETATM   24  C   UNL     1      40.195 -14.384  -3.537  1.00  0.00     0.009 A 
ENDBRANCH  18  19
ENDBRANCH  15  18
ENDBRANCH  14  15
ENDBRANCH  12  14
ENDBRANCH   1   9
BRANCH   4  25
HETATM   25  N   UNL     1      42.377 -17.208   5.770  1.00  0.00    -0.062 N 
HETATM   26  H   UNL     1      42.606 -16.766   6.675  1.00  0.00     0.278 HD
HETATM   27  H   UNL     1      42.027 -18.144   6.020  1.00  0.00     0.278 HD
BRANCH  25  28
HETATM   28  C   UNL     1      43.673 -17.382   5.045  1.00  0.00     0.273 C 
BRANCH  28  29
HETATM   29  C   UNL     1      44.031 -18.817   5.007  1.00  0.00    -0.005 A 
HETATM   30  C   UNL     1      44.034 -19.658   3.847  1.00  0.00    -0.000 A 
HETATM   31  C   UNL     1      44.415 -20.934   4.262  1.00  0.00     0.043 A 
HETATM   32  C   UNL     1      43.749 -19.452   2.480  1.00  0.00     0.014 A 
HETATM   33  C   UNL     1      44.522 -22.016   3.382  1.00  0.00     0.030 A 
HETATM   34  N   UNL     1      44.655 -20.873   5.615  1.00  0.00    -0.365 N 
HETATM   35  C   UNL     1      44.229 -21.788   2.036  1.00  0.00     0.002 A 
HETATM   36  C   UNL     1      43.849 -20.526   1.588  1.00  0.00     0.001 A 
HETATM   37  H   UNL     1      44.972 -21.657   6.174  1.00  0.00     0.165 HD
HETATM   38  C   UNL     1      44.408 -19.606   6.079  1.00  0.00     0.098 A 
ENDBRANCH  28  29
ENDBRANCH  25  28
ENDBRANCH   4  25
TORSDOF 8
ENDMDL
MODEL 9
REMARK VINA RESULT:      -8.5      2.036      9.891
REMARK  8 active torsions:
REMARK  status: ('A' for Active; 'I' for Inactive)
REMARK    1  A    between atoms: N_2  and  C_4 
REMARK    2  A    between atoms: N_2  and  C_32 
REMARK    3  A    between atoms: C_4  and  C_5 
REMARK    4  A    between atoms: N_8  and  C_9 
REMARK    5  A    between atoms: C_12  and  N_13 
REMARK    6  A    between atoms: N_13  and  C_16 
REMARK    7  A    between atoms: C_16  and  C_17 
REMARK    8  A    between atoms: C_32  and  C_33 
ROOT
HETATM    1  C   UNL     1      39.889 -12.941   4.669  1.00  0.00     0.161 C 
HETATM    2  C   UNL     1      41.118 -12.218   5.200  1.00  0.00     0.179 C 
HETATM    3  C   UNL     1      40.683 -11.749   6.582  1.00  0.00     0.185 C 
HETATM    4  C   UNL     1      40.413 -10.262   6.386  1.00  0.00     0.241 C 
HETATM    5  C   UNL     1      41.428  -9.913   5.313  1.00  0.00     0.204 C 
HETATM    6  O   UNL     1      41.444 -11.049   4.430  1.00  0.00    -0.379 OA
HETATM    7  O   UNL     1      39.485 -12.438   6.947  1.00  0.00    -0.379 OA
HETATM    8  C   UNL     1      39.269 -13.471   5.956  1.00  0.00     0.198 C 
ENDROOT
BRANCH   1   9
HETATM    9  N   UNL     1      40.188 -13.922   3.658  1.00  0.00    -0.274 N 
HETATM   10  N   UNL     1      40.035 -13.656   2.352  1.00  0.00     0.005 NA
HETATM   11  N   UNL     1      40.371 -14.742   1.671  1.00  0.00    -0.161 NA
HETATM   12  C   UNL     1      40.737 -15.711   2.568  1.00  0.00     0.095 A 
HETATM   13  C   UNL     1      40.635 -15.201   3.844  1.00  0.00     0.139 A 
BRANCH  12  14
HETATM   14  C   UNL     1      41.175 -17.049   2.088  1.00  0.00     0.296 C 
BRANCH  14  15
HETATM   15  N   UNL     1      42.624 -17.367   2.384  1.00  0.00    -0.066 N 
HETATM   16  C   UNL     1      43.487 -16.141   2.302  1.00  0.00     0.270 C 
HETATM   17  H   UNL     1      42.645 -17.694   3.359  1.00  0.00     0.280 HD
BRANCH  15  18
HETATM   18  C   UNL     1      43.142 -18.518   1.546  1.00  0.00     0.273 C 
BRANCH  18  19
HETATM   19  C   UNL     1      43.708 -19.657   2.348  1.00  0.00    -0.033 A 
HETATM   20  C   UNL     1      43.776 -20.951   1.808  1.00  0.00     0.009 A 
HETATM   21  C   UNL     1      44.281 -22.006   2.571  1.00  0.00     0.001 A 
HETATM   22  C   UNL     1      44.729 -21.779   3.870  1.00  0.00     0.000 A 
HETATM   23  C   UNL     1      44.678 -20.497   4.411  1.00  0.00     0.001 A 
HETATM   24  C   UNL     1      44.169 -19.440   3.656  1.00  0.00     0.009 A 
ENDBRANCH  18  19
ENDBRANCH  15  18
ENDBRANCH  14  15
ENDBRANCH  12  14
ENDBRANCH   1   9
BRANCH   4  25
HETATM   25  N   UNL     1      40.563  -9.499   7.654  1.00  0.00    -0.062 N 
HETATM   26  H   UNL     1      40.723  -8.502   7.436  1.00  0.00     0.278 HD
HETATM   27  H   UNL     1      39.707  -9.505   8.227  1.00  0.00     0.278 HD
BRANCH  25  28
HETATM   28  C   UNL     1      41.700  -9.929   8.524  1.00  0.00     0.273 C 
BRANCH  28  29
HETATM   29  C   UNL     1      41.181 -10.351   9.844  1.00  0.00    -0.005 A 
HETATM   30  C   UNL     1      41.869 -10.244  11.097  1.00  0.00    -0.000 A 
HETATM   31  C   UNL     1      41.028 -10.772  12.076  1.00  0.00     0.043 A 
HETATM   32  C   UNL     1      43.128  -9.743  11.490  1.00  0.00     0.014 A 
HETATM   33  C   UNL     1      41.384 -10.831  13.428  1.00  0.00     0.030 A 
HETATM   34  N   UNL     1      39.868 -11.169  11.454  1.00  0.00    -0.365 N 
HETATM   35  C   UNL     1      42.638 -10.335  13.791  1.00  0.00     0.002 A 
HETATM   36  C   UNL     1      43.499  -9.797  12.838  1.00  0.00     0.001 A 
HETATM   37  H   UNL     1      39.070 -11.568  11.936  1.00  0.00     0.165 HD
HETATM   38  C   UNL     1      39.956 -10.938  10.105  1.00  0.00     0.098 A 
ENDBRANCH  28  29
ENDBRANCH  25  28
ENDBRANCH   4  25
TORSDOF 8
ENDMDL
MODEL 10
REMARK VINA RESULT:      -8.5      2.232      3.371
REMARK  8 active torsions:
REMARK  status: ('A' for Active; 'I' for Inactive)
REMARK    1  A    between atoms: N_2  and  C_4 
REMARK    2  A    between atoms: N_2  and  C_32 
REMARK    3  A    between atoms: C_4  and  C_5 
REMARK    4  A    between atoms: N_8  and  C_9 
REMARK    5  A    between atoms: C_12  and  N_13 
REMARK    6  A    between atoms: N_13  and  C_16 
REMARK    7  A    between atoms: C_16  and  C_17 
REMARK    8  A    between atoms: C_32  and  C_33 
ROOT
HETATM    1  C   UNL     1      43.529 -12.775   6.557  1.00  0.00     0.161 C 
HETATM    2  C   UNL     1      42.406 -13.459   5.792  1.00  0.00     0.179 C 
HETATM    3  C   UNL     1      42.994 -14.819   5.439  1.00  0.00     0.185 C 
HETATM    4  C   UNL     1      43.350 -14.683   3.963  1.00  0.00     0.241 C 
HETATM    5  C   UNL     1      42.270 -13.731   3.483  1.00  0.00     0.204 C 
HETATM    6  O   UNL     1      42.096 -12.790   4.558  1.00  0.00    -0.379 OA
HETATM    7  O   UNL     1      44.168 -15.031   6.226  1.00  0.00    -0.379 OA
HETATM    8  C   UNL     1      44.222 -13.968   7.206  1.00  0.00     0.198 C 
ENDROOT
BRANCH   1   9
HETATM    9  N   UNL     1      43.073 -11.743   7.452  1.00  0.00    -0.274 N 
HETATM   10  N   UNL     1      43.756 -11.419   8.560  1.00  0.00     0.005 NA
HETATM   11  N   UNL     1      43.093 -10.457   9.184  1.00  0.00    -0.161 NA
HETATM   12  C   UNL     1      41.966 -10.175   8.456  1.00  0.00     0.095 A 
HETATM   13  C   UNL     1      41.942 -10.983   7.340  1.00  0.00     0.139 A 
BRANCH  12  14
HETATM   14  C   UNL     1      41.023  -9.121   8.915  1.00  0.00     0.296 C 
BRANCH  14  15
HETATM   15  N   UNL     1      40.345  -9.430  10.232  1.00  0.00    -0.066 N 
HETATM   16  C   UNL     1      38.900  -9.788  10.039  1.00  0.00     0.270 C 
HETATM   17  H   UNL     1      40.823 -10.262  10.603  1.00  0.00     0.280 HD
BRANCH  15  18
HETATM   18  C   UNL     1      40.556  -8.335  11.257  1.00  0.00     0.273 C 
BRANCH  18  19
HETATM   19  C   UNL     1      41.292  -8.780  12.491  1.00  0.00    -0.033 A 
HETATM   20  C   UNL     1      40.618  -8.931  13.713  1.00  0.00     0.009 A 
HETATM   21  C   UNL     1      41.316  -9.322  14.857  1.00  0.00     0.001 A 
HETATM   22  C   UNL     1      42.685  -9.573  14.790  1.00  0.00     0.000 A 
HETATM   23  C   UNL     1      43.361  -9.439  13.580  1.00  0.00     0.001 A 
HETATM   24  C   UNL     1      42.669  -9.043  12.435  1.00  0.00     0.009 A 
ENDBRANCH  18  19
ENDBRANCH  15  18
ENDBRANCH  14  15
ENDBRANCH  12  14
ENDBRANCH   1   9
BRANCH   4  25
HETATM   25  N   UNL     1      43.367 -16.001   3.273  1.00  0.00    -0.062 N 
HETATM   26  H   UNL     1      42.999 -15.889   2.315  1.00  0.00     0.278 HD
HETATM   27  H   UNL     1      44.320 -16.370   3.144  1.00  0.00     0.278 HD
BRANCH  25  28
HETATM   28  C   UNL     1      42.545 -17.068   3.921  1.00  0.00     0.273 C 
BRANCH  28  29
HETATM   29  C   UNL     1      43.409 -18.220   4.263  1.00  0.00    -0.005 A 
HETATM   30  C   UNL     1      43.621 -19.387   3.459  1.00  0.00    -0.000 A 
HETATM   31  C   UNL     1      44.488 -20.222   4.163  1.00  0.00     0.043 A 
HETATM   32  C   UNL     1      43.158 -19.810   2.195  1.00  0.00     0.014 A 
HETATM   33  C   UNL     1      44.912 -21.461   3.671  1.00  0.00     0.030 A 
HETATM   34  N   UNL     1      44.810 -19.586   5.339  1.00  0.00    -0.365 N 
HETATM   35  C   UNL     1      44.435 -21.860   2.420  1.00  0.00     0.002 A 
HETATM   36  C   UNL     1      43.572 -21.048   1.690  1.00  0.00     0.001 A 
HETATM   37  H   UNL     1      45.446 -19.960   6.034  1.00  0.00     0.165 HD
HETATM   38  C   UNL     1      44.149 -18.386   5.419  1.00  0.00     0.098 A 
ENDBRANCH  28  29
ENDBRANCH  25  28
ENDBRANCH   4  25
TORSDOF 8
ENDMDL
