MODEL 1
REMARK VINA RESULT:      -9.9      0.000      0.000
REMARK  1 active torsions:
REMARK  status: ('A' for Active; 'I' for Inactive)
REMARK    1  A    between atoms: C_8  and  C_9 
ROOT
HETATM    1  C   UNL     1      42.472 -18.148   1.885  1.00  0.00     0.049 C 
HETATM    2  C   UNL     1      43.238 -19.179   2.670  1.00  0.00    -0.050 A 
HETATM    3  C   UNL     1      43.394 -19.105   4.069  1.00  0.00    -0.002 A 
HETATM    4  C   UNL     1      44.107 -20.116   4.744  1.00  0.00     0.051 A 
HETATM    5  N   UNL     1      44.220 -20.039   6.141  1.00  0.00    -0.322 N 
HETATM    6  C   UNL     1      43.695 -19.038   6.905  1.00  0.00     0.256 A 
HETATM    7  O   UNL     1      43.791 -19.064   8.130  1.00  0.00    -0.267 OA
HETATM    8  C   UNL     1      43.010 -17.915   6.201  1.00  0.00     0.053 A 
HETATM    9  C   UNL     1      42.858 -17.991   4.865  1.00  0.00     0.031 A 
HETATM   10  C   UNL     1      44.686 -21.189   4.046  1.00  0.00    -0.034 A 
HETATM   11  C   UNL     1      45.471 -22.267   4.739  1.00  0.00     0.050 C 
HETATM   12  C   UNL     1      44.520 -21.250   2.659  1.00  0.00     0.009 A 
HETATM   13  C   UNL     1      43.803 -20.263   1.981  1.00  0.00     0.008 A 
HETATM   14  H   UNL     1      44.700 -20.765   6.653  1.00  0.00     0.169 HD
ENDROOT
BRANCH   8  15
HETATM   15  C   UNL     1      42.541 -16.811   7.120  1.00  0.00     0.224 C 
HETATM   16  N   UNL     1      43.611 -15.902   7.404  1.00  0.00    -0.331 N 
HETATM   17  C   UNL     1      43.970 -14.884   6.567  1.00  0.00     0.255 C 
HETATM   18  H   UNL     1      44.356 -16.247   7.996  1.00  0.00     0.165 HD
HETATM   19  O   UNL     1      45.073 -14.353   6.629  1.00  0.00    -0.268 OA
HETATM   20  C   UNL     1      42.945 -14.443   5.603  1.00  0.00     0.058 A 
HETATM   21  C   UNL     1      41.687 -15.059   5.657  1.00  0.00     0.045 A 
HETATM   22  C   UNL     1      43.221 -13.423   4.687  1.00  0.00     0.019 A 
HETATM   23  N   UNL     1      41.408 -16.056   6.598  1.00  0.00    -0.364 N 
HETATM   24  C   UNL     1      40.679 -14.572   4.818  1.00  0.00     0.030 A 
HETATM   25  H   UNL     1      40.602 -16.629   6.381  1.00  0.00     0.162 HD
HETATM   26  C   UNL     1      40.947 -13.553   3.898  1.00  0.00     0.002 A 
HETATM   27  C   UNL     1      42.219 -12.986   3.824  1.00  0.00     0.001 A 
ENDBRANCH   8  15
TORSDOF 1
ENDMDL
MODEL 2
REMARK VINA RESULT:      -9.3      1.173      1.479
REMARK  1 active torsions:
REMARK  status: ('A' for Active; 'I' for Inactive)
REMARK    1  A    between atoms: C_8  and  C_9 
ROOT
HETATM    1  C   UNL     1      41.912 -18.089   1.202  1.00  0.00     0.049 C 
HETATM    2  C   UNL     1      42.767 -18.832   2.192  1.00  0.00    -0.050 A 
HETATM    3  C   UNL     1      42.769 -18.530   3.569  1.00  0.00    -0.002 A 
HETATM    4  C   UNL     1      43.579 -19.279   4.445  1.00  0.00     0.051 A 
HETATM    5  N   UNL     1      43.539 -18.984   5.816  1.00  0.00    -0.322 N 
HETATM    6  C   UNL     1      42.772 -18.002   6.373  1.00  0.00     0.256 A 
HETATM    7  O   UNL     1      42.749 -17.833   7.590  1.00  0.00    -0.267 OA
HETATM    8  C   UNL     1      41.971 -17.142   5.453  1.00  0.00     0.053 A 
HETATM    9  C   UNL     1      41.968 -17.436   4.139  1.00  0.00     0.031 A 
HETATM   10  C   UNL     1      44.405 -20.312   3.969  1.00  0.00    -0.034 A 
HETATM   11  C   UNL     1      45.297 -21.110   4.879  1.00  0.00     0.050 C 
HETATM   12  C   UNL     1      44.391 -20.601   2.601  1.00  0.00     0.009 A 
HETATM   13  C   UNL     1      43.581 -19.875   1.727  1.00  0.00     0.008 A 
HETATM   14  H   UNL     1      44.087 -19.524   6.470  1.00  0.00     0.169 HD
ENDROOT
BRANCH   8  15
HETATM   15  C   UNL     1      41.226 -16.028   6.149  1.00  0.00     0.224 C 
HETATM   16  N   UNL     1      42.131 -15.000   6.570  1.00  0.00    -0.331 N 
HETATM   17  C   UNL     1      42.581 -14.013   5.739  1.00  0.00     0.255 C 
HETATM   18  H   UNL     1      42.755 -15.229   7.334  1.00  0.00     0.165 HD
HETATM   19  O   UNL     1      43.597 -13.374   5.986  1.00  0.00    -0.268 OA
HETATM   20  C   UNL     1      41.759 -13.744   4.545  1.00  0.00     0.058 A 
HETATM   21  C   UNL     1      40.574 -14.474   4.388  1.00  0.00     0.045 A 
HETATM   22  C   UNL     1      42.145 -12.769   3.621  1.00  0.00     0.019 A 
HETATM   23  N   UNL     1      40.177 -15.425   5.334  1.00  0.00    -0.364 N 
HETATM   24  C   UNL     1      39.737 -14.149   3.315  1.00  0.00     0.030 A 
HETATM   25  H   UNL     1      39.487 -16.089   5.004  1.00  0.00     0.162 HD
HETATM   26  C   UNL     1      40.117 -13.176   2.384  1.00  0.00     0.002 A 
HETATM   27  C   UNL     1      41.324 -12.494   2.530  1.00  0.00     0.001 A 
ENDBRANCH   8  15
TORSDOF 1
ENDMDL
MODEL 3
REMARK VINA RESULT:      -8.8      3.042      4.196
REMARK  1 active torsions:
REMARK  status: ('A' for Active; 'I' for Inactive)
REMARK    1  A    between atoms: C_8  and  C_9 
ROOT
HETATM    1  C   UNL     1      44.312 -17.538   6.557  1.00  0.00     0.049 C 
HETATM    2  C   UNL     1      44.310 -18.547   5.440  1.00  0.00    -0.050 A 
HETATM    3  C   UNL     1      43.978 -18.207   4.113  1.00  0.00    -0.002 A 
HETATM    4  C   UNL     1      44.015 -19.197   3.111  1.00  0.00     0.051 A 
HETATM    5  N   UNL     1      43.715 -18.829   1.791  1.00  0.00    -0.322 N 
HETATM    6  C   UNL     1      43.373 -17.567   1.399  1.00  0.00     0.256 A 
HETATM    7  O   UNL     1      43.172 -17.308   0.215  1.00  0.00    -0.267 OA
HETATM    8  C   UNL     1      43.245 -16.524   2.458  1.00  0.00     0.053 A 
HETATM    9  C   UNL     1      43.567 -16.850   3.724  1.00  0.00     0.031 A 
HETATM   10  C   UNL     1      44.356 -20.526   3.413  1.00  0.00    -0.034 A 
HETATM   11  C   UNL     1      44.380 -21.607   2.368  1.00  0.00     0.050 C 
HETATM   12  C   UNL     1      44.684 -20.848   4.734  1.00  0.00     0.009 A 
HETATM   13  C   UNL     1      44.666 -19.872   5.732  1.00  0.00     0.008 A 
HETATM   14  H   UNL     1      43.762 -19.512   1.048  1.00  0.00     0.169 HD
ENDROOT
BRANCH   8  15
HETATM   15  C   UNL     1      42.776 -15.183   1.944  1.00  0.00     0.224 C 
HETATM   16  N   UNL     1      41.388 -15.235   1.591  1.00  0.00    -0.331 N 
HETATM   17  C   UNL     1      40.379 -15.100   2.501  1.00  0.00     0.255 C 
HETATM   18  H   UNL     1      41.148 -15.775   0.768  1.00  0.00     0.165 HD
HETATM   19  O   UNL     1      39.242 -15.494   2.270  1.00  0.00    -0.268 OA
HETATM   20  C   UNL     1      40.731 -14.431   3.767  1.00  0.00     0.058 A 
HETATM   21  C   UNL     1      42.038 -13.947   3.911  1.00  0.00     0.045 A 
HETATM   22  C   UNL     1      39.775 -14.263   4.773  1.00  0.00     0.019 A 
HETATM   23  N   UNL     1      42.980 -14.089   2.886  1.00  0.00    -0.364 N 
HETATM   24  C   UNL     1      42.348 -13.217   5.063  1.00  0.00     0.030 A 
HETATM   25  H   UNL     1      43.944 -13.979   3.178  1.00  0.00     0.162 HD
HETATM   26  C   UNL     1      41.398 -13.047   6.076  1.00  0.00     0.002 A 
HETATM   27  C   UNL     1      40.116 -13.578   5.937  1.00  0.00     0.001 A 
ENDBRANCH   8  15
TORSDOF 1
ENDMDL
MODEL 4
REMARK VINA RESULT:      -8.6      2.461      3.224
REMARK  1 active torsions:
REMARK  status: ('A' for Active; 'I' for Inactive)
REMARK    1  A    between atoms: C_8  and  C_9 
ROOT
HETATM    1  C   UNL     1      43.489 -18.140   0.989  1.00  0.00     0.049 C 
HETATM    2  C   UNL     1      43.633 -18.631   2.405  1.00  0.00    -0.050 A 
HETATM    3  C   UNL     1      42.885 -18.095   3.473  1.00  0.00    -0.002 A 
HETATM    4  C   UNL     1      43.054 -18.616   4.771  1.00  0.00     0.051 A 
HETATM    5  N   UNL     1      42.273 -18.092   5.812  1.00  0.00    -0.322 N 
HETATM    6  C   UNL     1      41.358 -17.091   5.663  1.00  0.00     0.256 A 
HETATM    7  O   UNL     1      40.674 -16.716   6.612  1.00  0.00    -0.267 OA
HETATM    8  C   UNL     1      41.225 -16.469   4.314  1.00  0.00     0.053 A 
HETATM    9  C   UNL     1      41.937 -16.985   3.294  1.00  0.00     0.031 A 
HETATM   10  C   UNL     1      43.973 -19.648   5.028  1.00  0.00    -0.034 A 
HETATM   11  C   UNL     1      44.190 -20.205   6.407  1.00  0.00     0.050 C 
HETATM   12  C   UNL     1      44.706 -20.170   3.958  1.00  0.00     0.009 A 
HETATM   13  C   UNL     1      44.535 -19.673   2.665  1.00  0.00     0.008 A 
HETATM   14  H   UNL     1      42.353 -18.465   6.747  1.00  0.00     0.169 HD
ENDROOT
BRANCH   8  15
HETATM   15  C   UNL     1      40.254 -15.312   4.265  1.00  0.00     0.224 C 
HETATM   16  N   UNL     1      40.905 -14.091   4.635  1.00  0.00    -0.331 N 
HETATM   17  C   UNL     1      41.646 -13.344   3.763  1.00  0.00     0.255 C 
HETATM   18  H   UNL     1      41.167 -13.991   5.608  1.00  0.00     0.165 HD
HETATM   19  O   UNL     1      42.472 -12.526   4.152  1.00  0.00    -0.268 OA
HETATM   20  C   UNL     1      41.376 -13.561   2.330  1.00  0.00     0.058 A 
HETATM   21  C   UNL     1      40.360 -14.462   1.983  1.00  0.00     0.045 A 
HETATM   22  C   UNL     1      42.096 -12.862   1.357  1.00  0.00     0.019 A 
HETATM   23  N   UNL     1      39.620 -15.132   2.964  1.00  0.00    -0.364 N 
HETATM   24  C   UNL     1      40.027 -14.590   0.631  1.00  0.00     0.030 A 
HETATM   25  H   UNL     1      39.127 -15.953   2.635  1.00  0.00     0.162 HD
HETATM   26  C   UNL     1      40.744 -13.897  -0.349  1.00  0.00     0.002 A 
HETATM   27  C   UNL     1      41.785 -13.042   0.011  1.00  0.00     0.001 A 
ENDBRANCH   8  15
TORSDOF 1
ENDMDL
MODEL 5
REMARK VINA RESULT:      -8.5      3.380      4.631
REMARK  1 active torsions:
REMARK  status: ('A' for Active; 'I' for Inactive)
REMARK    1  A    between atoms: C_8  and  C_9 
ROOT
HETATM    1  C   UNL     1      43.076 -16.205   6.448  1.00  0.00     0.049 C 
HETATM    2  C   UNL     1      43.439 -17.307   5.490  1.00  0.00    -0.050 A 
HETATM    3  C   UNL     1      42.776 -17.490   4.259  1.00  0.00    -0.002 A 
HETATM    4  C   UNL     1      43.180 -18.530   3.398  1.00  0.00     0.051 A 
HETATM    5  N   UNL     1      42.529 -18.671   2.163  1.00  0.00    -0.322 N 
HETATM    6  C   UNL     1      41.511 -17.873   1.731  1.00  0.00     0.256 A 
HETATM    7  O   UNL     1      41.021 -18.025   0.614  1.00  0.00    -0.267 OA
HETATM    8  C   UNL     1      41.012 -16.819   2.663  1.00  0.00     0.053 A 
HETATM    9  C   UNL     1      41.650 -16.644   3.835  1.00  0.00     0.031 A 
HETATM   10  C   UNL     1      44.220 -19.406   3.753  1.00  0.00    -0.034 A 
HETATM   11  C   UNL     1      44.654 -20.538   2.865  1.00  0.00     0.050 C 
HETATM   12  C   UNL     1      44.869 -19.211   4.977  1.00  0.00     0.009 A 
HETATM   13  C   UNL     1      44.487 -18.174   5.830  1.00  0.00     0.008 A 
HETATM   14  H   UNL     1      42.817 -19.390   1.515  1.00  0.00     0.169 HD
ENDROOT
BRANCH   8  15
HETATM   15  C   UNL     1      39.827 -16.046   2.135  1.00  0.00     0.224 C 
HETATM   16  N   UNL     1      39.471 -14.990   3.036  1.00  0.00    -0.331 N 
HETATM   17  C   UNL     1      40.098 -13.776   3.052  1.00  0.00     0.255 C 
HETATM   18  H   UNL     1      39.056 -15.265   3.918  1.00  0.00     0.165 HD
HETATM   19  O   UNL     1      40.044 -13.034   4.025  1.00  0.00    -0.268 OA
HETATM   20  C   UNL     1      40.821 -13.403   1.823  1.00  0.00     0.058 A 
HETATM   21  C   UNL     1      40.763 -14.284   0.735  1.00  0.00     0.045 A 
HETATM   22  C   UNL     1      41.515 -12.191   1.746  1.00  0.00     0.019 A 
HETATM   23  N   UNL     1      40.039 -15.479   0.808  1.00  0.00    -0.364 N 
HETATM   24  C   UNL     1      41.356 -13.886  -0.468  1.00  0.00     0.030 A 
HETATM   25  H   UNL     1      40.286 -16.167   0.107  1.00  0.00     0.162 HD
HETATM   26  C   UNL     1      42.054 -12.677  -0.553  1.00  0.00     0.002 A 
HETATM   27  C   UNL     1      42.143 -11.835   0.555  1.00  0.00     0.001 A 
ENDBRANCH   8  15
TORSDOF 1
ENDMDL
MODEL 6
REMARK VINA RESULT:      -8.3      3.062      4.598
REMARK  1 active torsions:
REMARK  status: ('A' for Active; 'I' for Inactive)
REMARK    1  A    between atoms: C_8  and  C_9 
ROOT
HETATM    1  C   UNL     1      43.788 -15.633   7.162  1.00  0.00     0.049 C 
HETATM    2  C   UNL     1      43.816 -17.127   6.984  1.00  0.00    -0.050 A 
HETATM    3  C   UNL     1      43.824 -17.739   5.714  1.00  0.00    -0.002 A 
HETATM    4  C   UNL     1      43.872 -19.144   5.619  1.00  0.00     0.051 A 
HETATM    5  N   UNL     1      43.914 -19.730   4.345  1.00  0.00    -0.322 N 
HETATM    6  C   UNL     1      43.898 -19.032   3.172  1.00  0.00     0.256 A 
HETATM    7  O   UNL     1      43.988 -19.611   2.092  1.00  0.00    -0.267 OA
HETATM    8  C   UNL     1      43.763 -17.548   3.251  1.00  0.00     0.053 A 
HETATM    9  C   UNL     1      43.761 -16.966   4.465  1.00  0.00     0.031 A 
HETATM   10  C   UNL     1      43.890 -19.951   6.769  1.00  0.00    -0.034 A 
HETATM   11  C   UNL     1      43.917 -21.453   6.695  1.00  0.00     0.050 C 
HETATM   12  C   UNL     1      43.884 -19.330   8.021  1.00  0.00     0.009 A 
HETATM   13  C   UNL     1      43.853 -17.938   8.127  1.00  0.00     0.008 A 
HETATM   14  H   UNL     1      43.977 -20.733   4.247  1.00  0.00     0.169 HD
ENDROOT
BRANCH   8  15
HETATM   15  C   UNL     1      43.665 -16.869   1.904  1.00  0.00     0.224 C 
HETATM   16  N   UNL     1      42.665 -17.499   1.093  1.00  0.00    -0.331 N 
HETATM   17  C   UNL     1      41.332 -17.217   1.194  1.00  0.00     0.255 C 
HETATM   18  H   UNL     1      42.878 -18.427   0.749  1.00  0.00     0.165 HD
HETATM   19  O   UNL     1      40.475 -17.986   0.776  1.00  0.00    -0.268 OA
HETATM   20  C   UNL     1      40.988 -15.923   1.811  1.00  0.00     0.058 A 
HETATM   21  C   UNL     1      42.039 -15.076   2.190  1.00  0.00     0.045 A 
HETATM   22  C   UNL     1      39.651 -15.549   1.981  1.00  0.00     0.019 A 
HETATM   23  N   UNL     1      43.373 -15.443   1.986  1.00  0.00    -0.364 N 
HETATM   24  C   UNL     1      41.718 -13.804   2.675  1.00  0.00     0.030 A 
HETATM   25  H   UNL     1      44.044 -14.922   2.537  1.00  0.00     0.162 HD
HETATM   26  C   UNL     1      40.383 -13.424   2.851  1.00  0.00     0.002 A 
HETATM   27  C   UNL     1      39.351 -14.298   2.514  1.00  0.00     0.001 A 
ENDBRANCH   8  15
TORSDOF 1
ENDMDL
MODEL 7
REMARK VINA RESULT:      -7.9      4.089      6.357
REMARK  1 active torsions:
REMARK  status: ('A' for Active; 'I' for Inactive)
REMARK    1  A    between atoms: C_8  and  C_9 
ROOT
HETATM    1  C   UNL     1      37.531 -13.539   0.925  1.00  0.00     0.049 C 
HETATM    2  C   UNL     1      38.540 -13.907  -0.129  1.00  0.00    -0.050 A 
HETATM    3  C   UNL     1      39.723 -14.613   0.169  1.00  0.00    -0.002 A 
HETATM    4  C   UNL     1      40.617 -14.944  -0.869  1.00  0.00     0.051 A 
HETATM    5  N   UNL     1      41.770 -15.678  -0.555  1.00  0.00    -0.322 N 
HETATM    6  C   UNL     1      42.104 -16.092   0.702  1.00  0.00     0.256 A 
HETATM    7  O   UNL     1      43.107 -16.776   0.895  1.00  0.00    -0.267 OA
HETATM    8  C   UNL     1      41.215 -15.680   1.827  1.00  0.00     0.053 A 
HETATM    9  C   UNL     1      40.083 -15.009   1.539  1.00  0.00     0.031 A 
HETATM   10  C   UNL     1      40.362 -14.562  -2.198  1.00  0.00    -0.034 A 
HETATM   11  C   UNL     1      41.311 -14.881  -3.320  1.00  0.00     0.050 C 
HETATM   12  C   UNL     1      39.184 -13.863  -2.478  1.00  0.00     0.009 A 
HETATM   13  C   UNL     1      38.284 -13.544  -1.459  1.00  0.00     0.008 A 
HETATM   14  H   UNL     1      42.413 -15.953  -1.283  1.00  0.00     0.169 HD
ENDROOT
BRANCH   8  15
HETATM   15  C   UNL     1      41.711 -16.107   3.188  1.00  0.00     0.224 C 
HETATM   16  N   UNL     1      42.980 -15.507   3.474  1.00  0.00    -0.331 N 
HETATM   17  C   UNL     1      43.117 -14.238   3.959  1.00  0.00     0.255 C 
HETATM   18  H   UNL     1      43.773 -15.846   2.942  1.00  0.00     0.165 HD
HETATM   19  O   UNL     1      44.169 -13.618   3.862  1.00  0.00    -0.268 OA
HETATM   20  C   UNL     1      41.933 -13.668   4.629  1.00  0.00     0.058 A 
HETATM   21  C   UNL     1      40.799 -14.481   4.758  1.00  0.00     0.045 A 
HETATM   22  C   UNL     1      41.963 -12.367   5.140  1.00  0.00     0.019 A 
HETATM   23  N   UNL     1      40.789 -15.793   4.274  1.00  0.00    -0.364 N 
HETATM   24  C   UNL     1      39.712 -13.984   5.486  1.00  0.00     0.030 A 
HETATM   25  H   UNL     1      39.865 -16.191   4.151  1.00  0.00     0.162 HD
HETATM   26  C   UNL     1      39.733 -12.683   5.999  1.00  0.00     0.002 A 
HETATM   27  C   UNL     1      40.852 -11.871   5.818  1.00  0.00     0.001 A 
ENDBRANCH   8  15
TORSDOF 1
ENDMDL
MODEL 8
REMARK VINA RESULT:      -7.9      3.505      5.115
REMARK  1 active torsions:
REMARK  status: ('A' for Active; 'I' for Inactive)
REMARK    1  A    between atoms: C_8  and  C_9 
ROOT
HETATM    1  C   UNL     1      43.948 -17.759   1.125  1.00  0.00     0.049 C 
HETATM    2  C   UNL     1      43.661 -17.724   2.602  1.00  0.00    -0.050 A 
HETATM    3  C   UNL     1      43.131 -16.587   3.244  1.00  0.00    -0.002 A 
HETATM    4  C   UNL     1      42.866 -16.629   4.628  1.00  0.00     0.051 A 
HETATM    5  N   UNL     1      42.305 -15.498   5.239  1.00  0.00    -0.322 N 
HETATM    6  C   UNL     1      42.004 -14.337   4.588  1.00  0.00     0.256 A 
HETATM    7  O   UNL     1      41.468 -13.403   5.180  1.00  0.00    -0.267 OA
HETATM    8  C   UNL     1      42.355 -14.243   3.141  1.00  0.00     0.053 A 
HETATM    9  C   UNL     1      42.857 -15.332   2.529  1.00  0.00     0.031 A 
HETATM   10  C   UNL     1      43.142 -17.779   5.387  1.00  0.00    -0.034 A 
HETATM   11  C   UNL     1      42.892 -17.841   6.868  1.00  0.00     0.050 C 
HETATM   12  C   UNL     1      43.667 -18.900   4.735  1.00  0.00     0.009 A 
HETATM   13  C   UNL     1      43.918 -18.874   3.363  1.00  0.00     0.008 A 
HETATM   14  H   UNL     1      42.079 -15.510   6.223  1.00  0.00     0.169 HD
ENDROOT
BRANCH   8  15
HETATM   15  C   UNL     1      42.067 -12.893   2.527  1.00  0.00     0.224 C 
HETATM   16  N   UNL     1      42.460 -12.870   1.149  1.00  0.00    -0.331 N 
HETATM   17  C   UNL     1      41.678 -13.357   0.140  1.00  0.00     0.255 C 
HETATM   18  H   UNL     1      43.454 -12.883   0.960  1.00  0.00     0.165 HD
HETATM   19  O   UNL     1      42.146 -13.660  -0.951  1.00  0.00    -0.268 OA
HETATM   20  C   UNL     1      40.238 -13.472   0.432  1.00  0.00     0.058 A 
HETATM   21  C   UNL     1      39.785 -13.029   1.682  1.00  0.00     0.045 A 
HETATM   22  C   UNL     1      39.356 -13.980  -0.527  1.00  0.00     0.019 A 
HETATM   23  N   UNL     1      40.669 -12.490   2.624  1.00  0.00    -0.364 N 
HETATM   24  C   UNL     1      38.407 -13.035   1.924  1.00  0.00     0.030 A 
HETATM   25  H   UNL     1      40.316 -12.471   3.573  1.00  0.00     0.162 HD
HETATM   26  C   UNL     1      37.518 -13.544   0.971  1.00  0.00     0.002 A 
HETATM   27  C   UNL     1      37.992 -14.026  -0.249  1.00  0.00     0.001 A 
ENDBRANCH   8  15
TORSDOF 1
ENDMDL
MODEL 9
REMARK VINA RESULT:      -7.8      3.686      5.639
REMARK  1 active torsions:
REMARK  status: ('A' for Active; 'I' for Inactive)
REMARK    1  A    between atoms: C_8  and  C_9 
ROOT
HETATM    1  C   UNL     1      41.823 -12.984   5.427  1.00  0.00     0.049 C 
HETATM    2  C   UNL     1      42.635 -14.235   5.629  1.00  0.00    -0.050 A 
HETATM    3  C   UNL     1      42.472 -15.382   4.826  1.00  0.00    -0.002 A 
HETATM    4  C   UNL     1      43.280 -16.513   5.056  1.00  0.00     0.051 A 
HETATM    5  N   UNL     1      43.124 -17.631   4.223  1.00  0.00    -0.322 N 
HETATM    6  C   UNL     1      42.226 -17.712   3.198  1.00  0.00     0.256 A 
HETATM    7  O   UNL     1      42.180 -18.705   2.477  1.00  0.00    -0.267 OA
HETATM    8  C   UNL     1      41.304 -16.557   2.992  1.00  0.00     0.053 A 
HETATM    9  C   UNL     1      41.465 -15.461   3.757  1.00  0.00     0.031 A 
HETATM   10  C   UNL     1      44.234 -16.529   6.088  1.00  0.00    -0.034 A 
HETATM   11  C   UNL     1      45.092 -17.731   6.369  1.00  0.00     0.050 C 
HETATM   12  C   UNL     1      44.386 -15.383   6.875  1.00  0.00     0.009 A 
HETATM   13  C   UNL     1      43.602 -14.251   6.645  1.00  0.00     0.008 A 
HETATM   14  H   UNL     1      43.709 -18.445   4.346  1.00  0.00     0.169 HD
ENDROOT
BRANCH   8  15
HETATM   15  C   UNL     1      40.288 -16.772   1.895  1.00  0.00     0.224 C 
HETATM   16  N   UNL     1      39.163 -15.903   2.071  1.00  0.00    -0.331 N 
HETATM   17  C   UNL     1      39.151 -14.601   1.656  1.00  0.00     0.255 C 
HETATM   18  H   UNL     1      38.549 -16.105   2.850  1.00  0.00     0.165 HD
HETATM   19  O   UNL     1      38.361 -13.784   2.113  1.00  0.00    -0.268 OA
HETATM   20  C   UNL     1      40.126 -14.245   0.609  1.00  0.00     0.058 A 
HETATM   21  C   UNL     1      40.937 -15.265   0.094  1.00  0.00     0.045 A 
HETATM   22  C   UNL     1      40.210 -12.933   0.132  1.00  0.00     0.019 A 
HETATM   23  N   UNL     1      40.824 -16.582   0.553  1.00  0.00    -0.364 N 
HETATM   24  C   UNL     1      41.787 -14.955  -0.973  1.00  0.00     0.030 A 
HETATM   25  H   UNL     1      41.621 -17.172   0.345  1.00  0.00     0.162 HD
HETATM   26  C   UNL     1      41.879 -13.645  -1.455  1.00  0.00     0.002 A 
HETATM   27  C   UNL     1      41.099 -12.633  -0.897  1.00  0.00     0.001 A 
ENDBRANCH   8  15
TORSDOF 1
ENDMDL
MODEL 10
REMARK VINA RESULT:      -7.6      4.216      8.204
REMARK  1 active torsions:
REMARK  status: ('A' for Active; 'I' for Inactive)
REMARK    1  A    between atoms: C_8  and  C_9 
ROOT
HETATM    1  C   UNL     1      45.740 -12.448   8.534  1.00  0.00     0.049 C 
HETATM    2  C   UNL     1      44.708 -11.617   9.247  1.00  0.00    -0.050 A 
HETATM    3  C   UNL     1      43.427 -11.374   8.710  1.00  0.00    -0.002 A 
HETATM    4  C   UNL     1      42.501 -10.603   9.441  1.00  0.00     0.051 A 
HETATM    5  N   UNL     1      41.220 -10.404   8.903  1.00  0.00    -0.322 N 
HETATM    6  C   UNL     1      40.801 -10.898   7.701  1.00  0.00     0.256 A 
HETATM    7  O   UNL     1      39.647 -10.724   7.317  1.00  0.00    -0.267 OA
HETATM    8  C   UNL     1      41.794 -11.645   6.875  1.00  0.00     0.053 A 
HETATM    9  C   UNL     1      43.015 -11.879   7.392  1.00  0.00     0.031 A 
HETATM   10  C   UNL     1      42.837 -10.051  10.688  1.00  0.00    -0.034 A 
HETATM   11  C   UNL     1      41.876  -9.205  11.476  1.00  0.00     0.050 C 
HETATM   12  C   UNL     1      44.111 -10.302  11.208  1.00  0.00     0.009 A 
HETATM   13  C   UNL     1      45.030 -11.077  10.501  1.00  0.00     0.008 A 
HETATM   14  H   UNL     1      40.527  -9.880   9.417  1.00  0.00     0.169 HD
ENDROOT
BRANCH   8  15
HETATM   15  C   UNL     1      41.268 -12.074   5.525  1.00  0.00     0.224 C 
HETATM   16  N   UNL     1      42.348 -12.318   4.617  1.00  0.00    -0.331 N 
HETATM   17  C   UNL     1      43.045 -13.492   4.580  1.00  0.00     0.255 C 
HETATM   18  H   UNL     1      42.864 -11.508   4.296  1.00  0.00     0.165 HD
HETATM   19  O   UNL     1      44.160 -13.567   4.077  1.00  0.00    -0.268 OA
HETATM   20  C   UNL     1      42.368 -14.668   5.158  1.00  0.00     0.058 A 
HETATM   21  C   UNL     1      41.064 -14.500   5.643  1.00  0.00     0.045 A 
HETATM   22  C   UNL     1      43.006 -15.911   5.191  1.00  0.00     0.019 A 
HETATM   23  N   UNL     1      40.420 -13.260   5.577  1.00  0.00    -0.364 N 
HETATM   24  C   UNL     1      40.378 -15.633   6.093  1.00  0.00     0.030 A 
HETATM   25  H   UNL     1      39.623 -13.163   6.194  1.00  0.00     0.162 HD
HETATM   26  C   UNL     1      41.009 -16.881   6.131  1.00  0.00     0.002 A 
HETATM   27  C   UNL     1      42.325 -17.019   5.690  1.00  0.00     0.001 A 
ENDBRANCH   8  15
TORSDOF 1
ENDMDL
