MODEL 1
REMARK VINA RESULT:      -8.4      0.000      0.000
REMARK  4 active torsions:
REMARK  status: ('A' for Active; 'I' for Inactive)
REMARK    1  A    between atoms: N_6  and  N_7 
REMARK       I    between atoms: N_7  and  C_8 
REMARK    2  A    between atoms: C_8  and  C_9 
REMARK    3  A    between atoms: C_10  and  O_11 
REMARK    4  A    between atoms: C_14  and  N_15 
ROOT
HETATM    1  N   UNL     1      43.254 -17.587   1.166  1.00  0.00    -0.242 N 
HETATM    2  C   UNL     1      41.959 -17.134   0.970  1.00  0.00     0.274 C 
HETATM    3  O   UNL     1      40.933 -17.791   1.121  1.00  0.00    -0.266 OA
HETATM    4  H   UNL     1      44.043 -16.969   1.049  1.00  0.00     0.192 HD
ENDROOT
BRANCH   1   5
HETATM    5  N   UNL     1      43.492 -18.900   1.416  1.00  0.00    -0.166 NA
HETATM    6  C   UNL     1      43.846 -19.261   2.609  1.00  0.00     0.157 A 
HETATM    7  C   UNL     1      44.312 -20.701   2.899  1.00  0.00     0.279 A 
HETATM    8  C   UNL     1      43.911 -18.548   3.895  1.00  0.00     0.028 A 
HETATM    9  N   UNL     1      44.660 -20.708   4.237  1.00  0.00    -0.316 N 
HETATM   10  O   UNL     1      44.368 -21.601   2.090  1.00  0.00    -0.265 OA
HETATM   11  C   UNL     1      45.140 -21.866   4.943  1.00  0.00     0.159 C 
HETATM   12  C   UNL     1      44.421 -19.460   4.826  1.00  0.00     0.050 A 
HETATM   13  C   UNL     1      44.607 -19.106   6.152  1.00  0.00     0.032 A 
HETATM   14  C   UNL     1      44.256 -17.810   6.542  1.00  0.00     0.021 A 
HETATM   15  C   UNL     1      43.713 -16.911   5.611  1.00  0.00     0.012 A 
HETATM   16  C   UNL     1      43.521 -17.275   4.276  1.00  0.00     0.035 A 
HETATM   17 BR   UNL     1      43.220 -15.174   6.176  1.00  0.00    -0.051 Br
ENDBRANCH   1   5
BRANCH   2  18
HETATM   18  C   UNL     1      41.829 -15.685   0.662  1.00  0.00     0.068 A 
HETATM   19  C   UNL     1      41.196 -15.295  -0.525  1.00  0.00     0.081 A 
HETATM   20  C   UNL     1      40.953 -13.951  -0.780  1.00  0.00     0.039 A 
HETATM   21  C   UNL     1      41.375 -12.983   0.135  1.00  0.00     0.026 A 
HETATM   22  C   UNL     1      42.101 -13.344   1.274  1.00  0.00     0.006 A 
HETATM   23  C   UNL     1      42.287 -14.702   1.553  1.00  0.00     0.043 A 
BRANCH  19  24
HETATM   24  O   UNL     1      40.760 -16.187  -1.467  1.00  0.00    -0.360 OA
HETATM   25  H   UNL     1      41.195 -17.053  -1.291  1.00  0.00     0.217 HD
ENDBRANCH  19  24
BRANCH  22  26
HETATM   26  N   UNL     1      42.425 -12.381   2.237  1.00  0.00    -0.303 NA
HETATM   27  H   UNL     1      41.672 -11.727   2.428  1.00  0.00     0.124 HD
HETATM   28  H   UNL     1      43.303 -11.900   2.067  1.00  0.00     0.124 HD
ENDBRANCH  22  26
ENDBRANCH   2  18
TORSDOF 4
ENDMDL
MODEL 2
REMARK VINA RESULT:      -7.8      3.595      4.479
REMARK  4 active torsions:
REMARK  status: ('A' for Active; 'I' for Inactive)
REMARK    1  A    between atoms: N_6  and  N_7 
REMARK       I    between atoms: N_7  and  C_8 
REMARK    2  A    between atoms: C_8  and  C_9 
REMARK    3  A    between atoms: C_10  and  O_11 
REMARK    4  A    between atoms: C_14  and  N_15 
ROOT
HETATM    1  N   UNL     1      43.016 -15.815   6.251  1.00  0.00    -0.242 N 
HETATM    2  C   UNL     1      41.671 -15.611   5.989  1.00  0.00     0.274 C 
HETATM    3  O   UNL     1      40.739 -16.267   6.446  1.00  0.00    -0.266 OA
HETATM    4  H   UNL     1      43.719 -15.207   5.857  1.00  0.00     0.192 HD
ENDROOT
BRANCH   1   5
HETATM    5  N   UNL     1      43.423 -16.902   6.956  1.00  0.00    -0.166 NA
HETATM    6  C   UNL     1      43.657 -18.011   6.327  1.00  0.00     0.157 A 
HETATM    7  C   UNL     1      43.933 -19.318   7.095  1.00  0.00     0.279 A 
HETATM    8  C   UNL     1      43.737 -18.356   4.899  1.00  0.00     0.028 A 
HETATM    9  N   UNL     1      44.078 -20.288   6.121  1.00  0.00    -0.316 N 
HETATM   10  O   UNL     1      43.982 -19.430   8.301  1.00  0.00    -0.265 OA
HETATM   11  C   UNL     1      44.365 -21.671   6.393  1.00  0.00     0.159 C 
HETATM   12  C   UNL     1      43.974 -19.735   4.839  1.00  0.00     0.050 A 
HETATM   13  C   UNL     1      44.108 -20.390   3.626  1.00  0.00     0.032 A 
HETATM   14  C   UNL     1      44.014 -19.631   2.456  1.00  0.00     0.021 A 
HETATM   15  C   UNL     1      43.811 -18.244   2.522  1.00  0.00     0.012 A 
HETATM   16  C   UNL     1      43.683 -17.587   3.749  1.00  0.00     0.035 A 
HETATM   17 BR   UNL     1      43.719 -17.241   0.921  1.00  0.00    -0.051 Br
ENDBRANCH   1   5
BRANCH   2  18
HETATM   18  C   UNL     1      41.354 -14.410   5.173  1.00  0.00     0.068 A 
HETATM   19  C   UNL     1      40.397 -13.501   5.641  1.00  0.00     0.081 A 
HETATM   20  C   UNL     1      40.169 -12.311   4.960  1.00  0.00     0.039 A 
HETATM   21  C   UNL     1      40.870 -12.040   3.783  1.00  0.00     0.026 A 
HETATM   22  C   UNL     1      41.752 -12.980   3.243  1.00  0.00     0.006 A 
HETATM   23  C   UNL     1      42.021 -14.146   3.966  1.00  0.00     0.043 A 
BRANCH  19  24
HETATM   24  O   UNL     1      39.670 -13.703   6.783  1.00  0.00    -0.360 OA
HETATM   25  H   UNL     1      39.312 -14.620   6.757  1.00  0.00     0.217 HD
ENDBRANCH  19  24
BRANCH  22  26
HETATM   26  N   UNL     1      42.530 -12.656   2.124  1.00  0.00    -0.303 NA
HETATM   27  H   UNL     1      43.371 -13.219   2.037  1.00  0.00     0.124 HD
HETATM   28  H   UNL     1      42.733 -11.665   2.029  1.00  0.00     0.124 HD
ENDBRANCH  22  26
ENDBRANCH   2  18
TORSDOF 4
ENDMDL
MODEL 3
REMARK VINA RESULT:      -7.7      2.657      6.659
REMARK  4 active torsions:
REMARK  status: ('A' for Active; 'I' for Inactive)
REMARK    1  A    between atoms: N_6  and  N_7 
REMARK       I    between atoms: N_7  and  C_8 
REMARK    2  A    between atoms: C_8  and  C_9 
REMARK    3  A    between atoms: C_10  and  O_11 
REMARK    4  A    between atoms: C_14  and  N_15 
ROOT
HETATM    1  N   UNL     1      41.572 -17.458   2.667  1.00  0.00    -0.242 N 
HETATM    2  C   UNL     1      42.644 -17.944   1.937  1.00  0.00     0.274 C 
HETATM    3  O   UNL     1      43.020 -17.530   0.843  1.00  0.00    -0.266 OA
HETATM    4  H   UNL     1      41.349 -17.837   3.576  1.00  0.00     0.192 HD
ENDROOT
BRANCH   1   5
HETATM    5  N   UNL     1      40.735 -16.535   2.129  1.00  0.00    -0.166 NA
HETATM    6  C   UNL     1      40.588 -15.393   2.726  1.00  0.00     0.157 A 
HETATM    7  C   UNL     1      39.512 -14.390   2.267  1.00  0.00     0.279 A 
HETATM    8  C   UNL     1      41.281 -14.755   3.855  1.00  0.00     0.028 A 
HETATM    9  N   UNL     1      39.603 -13.330   3.151  1.00  0.00    -0.316 N 
HETATM   10  O   UNL     1      38.753 -14.545   1.336  1.00  0.00    -0.265 OA
HETATM   11  C   UNL     1      38.786 -12.148   3.084  1.00  0.00     0.159 C 
HETATM   12  C   UNL     1      40.637 -13.532   4.074  1.00  0.00     0.050 A 
HETATM   13  C   UNL     1      41.050 -12.670   5.076  1.00  0.00     0.032 A 
HETATM   14  C   UNL     1      42.143 -13.050   5.860  1.00  0.00     0.021 A 
HETATM   15  C   UNL     1      42.806 -14.262   5.615  1.00  0.00     0.012 A 
HETATM   16  C   UNL     1      42.390 -15.125   4.598  1.00  0.00     0.035 A 
HETATM   17 BR   UNL     1      44.301 -14.734   6.674  1.00  0.00    -0.051 Br
ENDBRANCH   1   5
BRANCH   2  18
HETATM   18  C   UNL     1      43.463 -18.982   2.616  1.00  0.00     0.068 A 
HETATM   19  C   UNL     1      43.970 -18.720   3.895  1.00  0.00     0.081 A 
HETATM   20  C   UNL     1      44.634 -19.715   4.603  1.00  0.00     0.039 A 
HETATM   21  C   UNL     1      44.829 -20.969   4.019  1.00  0.00     0.026 A 
HETATM   22  C   UNL     1      44.424 -21.217   2.705  1.00  0.00     0.006 A 
HETATM   23  C   UNL     1      43.702 -20.232   2.024  1.00  0.00     0.043 A 
BRANCH  19  24
HETATM   24  O   UNL     1      43.820 -17.515   4.526  1.00  0.00    -0.360 OA
HETATM   25  H   UNL     1      42.915 -17.485   4.914  1.00  0.00     0.217 HD
ENDBRANCH  19  24
BRANCH  22  26
HETATM   26  N   UNL     1      44.526 -22.507   2.168  1.00  0.00    -0.303 NA
HETATM   27  H   UNL     1      44.843 -23.202   2.837  1.00  0.00     0.124 HD
HETATM   28  H   UNL     1      45.051 -22.557   1.300  1.00  0.00     0.124 HD
ENDBRANCH  22  26
ENDBRANCH   2  18
TORSDOF 4
ENDMDL
MODEL 4
REMARK VINA RESULT:      -7.6      3.225      4.195
REMARK  4 active torsions:
REMARK  status: ('A' for Active; 'I' for Inactive)
REMARK    1  A    between atoms: N_6  and  N_7 
REMARK       I    between atoms: N_7  and  C_8 
REMARK    2  A    between atoms: C_8  and  C_9 
REMARK    3  A    between atoms: C_10  and  O_11 
REMARK    4  A    between atoms: C_14  and  N_15 
ROOT
HETATM    1  N   UNL     1      42.424 -15.114   4.276  1.00  0.00    -0.242 N 
HETATM    2  C   UNL     1      42.997 -14.238   3.369  1.00  0.00     0.274 C 
HETATM    3  O   UNL     1      44.042 -13.612   3.531  1.00  0.00    -0.266 OA
HETATM    4  H   UNL     1      41.576 -15.614   4.049  1.00  0.00     0.192 HD
ENDROOT
BRANCH   1   5
HETATM    5  N   UNL     1      42.932 -15.239   5.528  1.00  0.00    -0.166 NA
HETATM    6  C   UNL     1      43.365 -16.396   5.921  1.00  0.00     0.157 A 
HETATM    7  C   UNL     1      43.772 -16.637   7.387  1.00  0.00     0.279 A 
HETATM    8  C   UNL     1      43.589 -17.672   5.224  1.00  0.00     0.028 A 
HETATM    9  N   UNL     1      44.119 -17.973   7.453  1.00  0.00    -0.316 N 
HETATM   10  O   UNL     1      43.754 -15.807   8.270  1.00  0.00    -0.265 OA
HETATM   11  C   UNL     1      44.582 -18.631   8.646  1.00  0.00     0.159 C 
HETATM   12  C   UNL     1      44.024 -18.581   6.195  1.00  0.00     0.050 A 
HETATM   13  C   UNL     1      44.333 -19.891   5.868  1.00  0.00     0.032 A 
HETATM   14  C   UNL     1      44.211 -20.281   4.531  1.00  0.00     0.021 A 
HETATM   15  C   UNL     1      43.808 -19.356   3.556  1.00  0.00     0.012 A 
HETATM   16  C   UNL     1      43.505 -18.034   3.890  1.00  0.00     0.035 A 
HETATM   17 BR   UNL     1      43.682 -19.906   1.750  1.00  0.00    -0.051 Br
ENDBRANCH   1   5
BRANCH   2  18
HETATM   18  C   UNL     1      42.327 -14.157   2.045  1.00  0.00     0.068 A 
HETATM   19  C   UNL     1      41.987 -12.901   1.529  1.00  0.00     0.081 A 
HETATM   20  C   UNL     1      41.470 -12.788   0.243  1.00  0.00     0.039 A 
HETATM   21  C   UNL     1      41.255 -13.937  -0.521  1.00  0.00     0.026 A 
HETATM   22  C   UNL     1      41.490 -15.206   0.014  1.00  0.00     0.006 A 
HETATM   23  C   UNL     1      42.066 -15.307   1.284  1.00  0.00     0.043 A 
BRANCH  19  24
HETATM   24  O   UNL     1      42.165 -11.734   2.223  1.00  0.00    -0.360 OA
HETATM   25  H   UNL     1      41.860 -10.992   1.653  1.00  0.00     0.217 HD
ENDBRANCH  19  24
BRANCH  22  26
HETATM   26  N   UNL     1      41.374 -16.344  -0.795  1.00  0.00    -0.303 NA
HETATM   27  H   UNL     1      41.227 -17.202  -0.271  1.00  0.00     0.124 HD
HETATM   28  H   UNL     1      42.118 -16.448  -1.479  1.00  0.00     0.124 HD
ENDBRANCH  22  26
ENDBRANCH   2  18
TORSDOF 4
ENDMDL
MODEL 5
REMARK VINA RESULT:      -7.6      1.675      6.525
REMARK  4 active torsions:
REMARK  status: ('A' for Active; 'I' for Inactive)
REMARK    1  A    between atoms: N_6  and  N_7 
REMARK       I    between atoms: N_7  and  C_8 
REMARK    2  A    between atoms: C_8  and  C_9 
REMARK    3  A    between atoms: C_10  and  O_11 
REMARK    4  A    between atoms: C_14  and  N_15 
ROOT
HETATM    1  N   UNL     1      42.402 -18.203   2.217  1.00  0.00    -0.242 N 
HETATM    2  C   UNL     1      43.706 -18.621   2.429  1.00  0.00     0.274 C 
HETATM    3  O   UNL     1      44.691 -18.266   1.788  1.00  0.00    -0.266 OA
HETATM    4  H   UNL     1      41.652 -18.522   2.814  1.00  0.00     0.192 HD
ENDROOT
BRANCH   1   5
HETATM    5  N   UNL     1      42.090 -17.441   1.139  1.00  0.00    -0.166 NA
HETATM    6  C   UNL     1      41.989 -16.157   1.282  1.00  0.00     0.157 A 
HETATM    7  C   UNL     1      41.453 -15.269   0.142  1.00  0.00     0.279 A 
HETATM    8  C   UNL     1      42.303 -15.243   2.392  1.00  0.00     0.028 A 
HETATM    9  N   UNL     1      41.430 -13.987   0.659  1.00  0.00    -0.316 N 
HETATM   10  O   UNL     1      41.114 -15.658  -0.955  1.00  0.00    -0.265 OA
HETATM   11  C   UNL     1      41.009 -12.825  -0.076  1.00  0.00     0.159 C 
HETATM   12  C   UNL     1      41.932 -13.963   1.966  1.00  0.00     0.050 A 
HETATM   13  C   UNL     1      42.101 -12.856   2.783  1.00  0.00     0.032 A 
HETATM   14  C   UNL     1      42.669 -13.051   4.045  1.00  0.00     0.021 A 
HETATM   15  C   UNL     1      43.071 -14.332   4.453  1.00  0.00     0.012 A 
HETATM   16  C   UNL     1      42.905 -15.444   3.623  1.00  0.00     0.035 A 
HETATM   17 BR   UNL     1      43.864 -14.559   6.155  1.00  0.00    -0.051 Br
ENDBRANCH   1   5
BRANCH   2  18
HETATM   18  C   UNL     1      43.915 -19.486   3.620  1.00  0.00     0.068 A 
HETATM   19  C   UNL     1      44.483 -20.754   3.449  1.00  0.00     0.081 A 
HETATM   20  C   UNL     1      44.801 -21.534   4.555  1.00  0.00     0.039 A 
HETATM   21  C   UNL     1      44.518 -21.065   5.840  1.00  0.00     0.026 A 
HETATM   22  C   UNL     1      43.857 -19.848   6.027  1.00  0.00     0.006 A 
HETATM   23  C   UNL     1      43.596 -19.043   4.913  1.00  0.00     0.043 A 
BRANCH  19  24
HETATM   24  O   UNL     1      44.783 -21.280   2.221  1.00  0.00    -0.360 OA
HETATM   25  H   UNL     1      44.779 -22.261   2.302  1.00  0.00     0.217 HD
ENDBRANCH  19  24
BRANCH  22  26
HETATM   26  N   UNL     1      43.674 -19.336   7.318  1.00  0.00    -0.303 NA
HETATM   27  H   UNL     1      44.005 -18.381   7.427  1.00  0.00     0.124 HD
HETATM   28  H   UNL     1      44.021 -19.938   8.059  1.00  0.00     0.124 HD
ENDBRANCH  22  26
ENDBRANCH   2  18
TORSDOF 4
ENDMDL
MODEL 6
REMARK VINA RESULT:      -7.4      3.815      4.684
REMARK  4 active torsions:
REMARK  status: ('A' for Active; 'I' for Inactive)
REMARK    1  A    between atoms: N_6  and  N_7 
REMARK       I    between atoms: N_7  and  C_8 
REMARK    2  A    between atoms: C_8  and  C_9 
REMARK    3  A    between atoms: C_10  and  O_11 
REMARK    4  A    between atoms: C_14  and  N_15 
ROOT
HETATM    1  N   UNL     1      42.572 -15.119   6.011  1.00  0.00    -0.242 N 
HETATM    2  C   UNL     1      43.096 -13.931   5.528  1.00  0.00     0.274 C 
HETATM    3  O   UNL     1      44.281 -13.706   5.294  1.00  0.00    -0.266 OA
HETATM    4  H   UNL     1      41.578 -15.231   6.146  1.00  0.00     0.192 HD
ENDROOT
BRANCH   1   5
HETATM    5  N   UNL     1      43.395 -16.121   6.412  1.00  0.00    -0.166 NA
HETATM    6  C   UNL     1      43.617 -17.115   5.609  1.00  0.00     0.157 A 
HETATM    7  C   UNL     1      44.384 -18.364   6.084  1.00  0.00     0.279 A 
HETATM    8  C   UNL     1      43.279 -17.359   4.198  1.00  0.00     0.028 A 
HETATM    9  N   UNL     1      44.381 -19.225   5.002  1.00  0.00    -0.316 N 
HETATM   10  O   UNL     1      44.855 -18.526   7.188  1.00  0.00    -0.265 OA
HETATM   11  C   UNL     1      45.007 -20.520   4.996  1.00  0.00     0.159 C 
HETATM   12  C   UNL     1      43.747 -18.643   3.897  1.00  0.00     0.050 A 
HETATM   13  C   UNL     1      43.592 -19.187   2.632  1.00  0.00     0.032 A 
HETATM   14  C   UNL     1      42.965 -18.409   1.655  1.00  0.00     0.021 A 
HETATM   15  C   UNL     1      42.529 -17.109   1.953  1.00  0.00     0.012 A 
HETATM   16  C   UNL     1      42.694 -16.562   3.228  1.00  0.00     0.035 A 
HETATM   17 BR   UNL     1      41.712 -16.070   0.600  1.00  0.00    -0.051 Br
ENDBRANCH   1   5
BRANCH   2  18
HETATM   18  C   UNL     1      42.097 -12.894   5.161  1.00  0.00     0.068 A 
HETATM   19  C   UNL     1      42.023 -12.460   3.832  1.00  0.00     0.081 A 
HETATM   20  C   UNL     1      41.020 -11.583   3.436  1.00  0.00     0.039 A 
HETATM   21  C   UNL     1      40.106 -11.104   4.377  1.00  0.00     0.026 A 
HETATM   22  C   UNL     1      40.226 -11.443   5.727  1.00  0.00     0.006 A 
HETATM   23  C   UNL     1      41.199 -12.373   6.106  1.00  0.00     0.043 A 
BRANCH  19  24
HETATM   24  O   UNL     1      42.887 -12.883   2.858  1.00  0.00    -0.360 OA
HETATM   25  H   UNL     1      42.913 -12.194   2.155  1.00  0.00     0.217 HD
ENDBRANCH  19  24
BRANCH  22  26
HETATM   26  N   UNL     1      39.243 -11.046   6.644  1.00  0.00    -0.303 NA
HETATM   27  H   UNL     1      39.553 -10.319   7.282  1.00  0.00     0.124 HD
HETATM   28  H   UNL     1      38.800 -11.814   7.139  1.00  0.00     0.124 HD
ENDBRANCH  22  26
ENDBRANCH   2  18
TORSDOF 4
ENDMDL
MODEL 7
REMARK VINA RESULT:      -7.4      3.456      4.276
REMARK  4 active torsions:
REMARK  status: ('A' for Active; 'I' for Inactive)
REMARK    1  A    between atoms: N_6  and  N_7 
REMARK       I    between atoms: N_7  and  C_8 
REMARK    2  A    between atoms: C_8  and  C_9 
REMARK    3  A    between atoms: C_10  and  O_11 
REMARK    4  A    between atoms: C_14  and  N_15 
ROOT
HETATM    1  N   UNL     1      42.456 -14.399   5.428  1.00  0.00    -0.242 N 
HETATM    2  C   UNL     1      41.107 -14.232   5.158  1.00  0.00     0.274 C 
HETATM    3  O   UNL     1      40.177 -14.563   5.889  1.00  0.00    -0.266 OA
HETATM    4  H   UNL     1      43.159 -14.067   4.784  1.00  0.00     0.192 HD
ENDROOT
BRANCH   1   5
HETATM    5  N   UNL     1      42.857 -15.106   6.515  1.00  0.00    -0.166 NA
HETATM    6  C   UNL     1      43.196 -16.348   6.370  1.00  0.00     0.157 A 
HETATM    7  C   UNL     1      43.474 -17.245   7.592  1.00  0.00     0.279 A 
HETATM    8  C   UNL     1      43.409 -17.198   5.188  1.00  0.00     0.028 A 
HETATM    9  N   UNL     1      43.746 -18.496   7.070  1.00  0.00    -0.316 N 
HETATM   10  O   UNL     1      43.430 -16.893   8.750  1.00  0.00    -0.265 OA
HETATM   11  C   UNL     1      44.079 -19.649   7.863  1.00  0.00     0.159 C 
HETATM   12  C   UNL     1      43.719 -18.475   5.670  1.00  0.00     0.050 A 
HETATM   13  C   UNL     1      43.983 -19.526   4.807  1.00  0.00     0.032 A 
HETATM   14  C   UNL     1      43.947 -19.272   3.433  1.00  0.00     0.021 A 
HETATM   15  C   UNL     1      43.670 -17.982   2.955  1.00  0.00     0.012 A 
HETATM   16  C   UNL     1      43.411 -16.924   3.830  1.00  0.00     0.035 A 
HETATM   17 BR   UNL     1      43.659 -17.664   1.090  1.00  0.00    -0.051 Br
ENDBRANCH   1   5
BRANCH   2  18
HETATM   18  C   UNL     1      40.792 -13.476   3.918  1.00  0.00     0.068 A 
HETATM   19  C   UNL     1      39.959 -14.060   2.957  1.00  0.00     0.081 A 
HETATM   20  C   UNL     1      39.550 -13.331   1.846  1.00  0.00     0.039 A 
HETATM   21  C   UNL     1      40.005 -12.022   1.671  1.00  0.00     0.026 A 
HETATM   22  C   UNL     1      40.919 -11.456   2.563  1.00  0.00     0.006 A 
HETATM   23  C   UNL     1      41.276 -12.174   3.709  1.00  0.00     0.043 A 
BRANCH  19  24
HETATM   24  O   UNL     1      39.480 -15.338   3.061  1.00  0.00    -0.360 OA
HETATM   25  H   UNL     1      40.239 -15.957   2.953  1.00  0.00     0.217 HD
ENDBRANCH  19  24
BRANCH  22  26
HETATM   26  N   UNL     1      41.284 -10.110   2.440  1.00  0.00    -0.303 NA
HETATM   27  H   UNL     1      42.044  -9.953   1.784  1.00  0.00     0.124 HD
HETATM   28  H   UNL     1      41.453  -9.640   3.324  1.00  0.00     0.124 HD
ENDBRANCH  22  26
ENDBRANCH   2  18
TORSDOF 4
ENDMDL
MODEL 8
REMARK VINA RESULT:      -7.4      3.891      7.764
REMARK  4 active torsions:
REMARK  status: ('A' for Active; 'I' for Inactive)
REMARK    1  A    between atoms: N_6  and  N_7 
REMARK       I    between atoms: N_7  and  C_8 
REMARK    2  A    between atoms: C_8  and  C_9 
REMARK    3  A    between atoms: C_10  and  O_11 
REMARK    4  A    between atoms: C_14  and  N_15 
ROOT
HETATM    1  N   UNL     1      41.263 -16.646   5.866  1.00  0.00    -0.242 N 
HETATM    2  C   UNL     1      42.605 -16.726   6.201  1.00  0.00     0.274 C 
HETATM    3  O   UNL     1      43.220 -15.935   6.912  1.00  0.00    -0.266 OA
HETATM    4  H   UNL     1      40.826 -17.359   5.299  1.00  0.00     0.192 HD
ENDROOT
BRANCH   1   5
HETATM    5  N   UNL     1      40.533 -15.553   6.203  1.00  0.00    -0.166 NA
HETATM    6  C   UNL     1      40.238 -14.683   5.288  1.00  0.00     0.157 A 
HETATM    7  C   UNL     1      39.581 -13.338   5.652  1.00  0.00     0.279 A 
HETATM    8  C   UNL     1      40.391 -14.676   3.825  1.00  0.00     0.028 A 
HETATM    9  N   UNL     1      39.467 -12.654   4.455  1.00  0.00    -0.316 N 
HETATM   10  O   UNL     1      39.267 -12.984   6.768  1.00  0.00    -0.265 OA
HETATM   11  C   UNL     1      38.887 -11.344   4.324  1.00  0.00     0.159 C 
HETATM   12  C   UNL     1      39.929 -13.430   3.386  1.00  0.00     0.050 A 
HETATM   13  C   UNL     1      39.931 -13.095   2.042  1.00  0.00     0.032 A 
HETATM   14  C   UNL     1      40.396 -14.046   1.128  1.00  0.00     0.021 A 
HETATM   15  C   UNL     1      40.826 -15.306   1.571  1.00  0.00     0.012 A 
HETATM   16  C   UNL     1      40.816 -15.642   2.927  1.00  0.00     0.035 A 
HETATM   17 BR   UNL     1      41.422 -16.581   0.307  1.00  0.00    -0.051 Br
ENDBRANCH   1   5
BRANCH   2  18
HETATM   18  C   UNL     1      43.307 -17.952   5.740  1.00  0.00     0.068 A 
HETATM   19  C   UNL     1      43.657 -18.930   6.679  1.00  0.00     0.081 A 
HETATM   20  C   UNL     1      44.204 -20.138   6.262  1.00  0.00     0.039 A 
HETATM   21  C   UNL     1      44.440 -20.360   4.903  1.00  0.00     0.026 A 
HETATM   22  C   UNL     1      44.195 -19.357   3.961  1.00  0.00     0.006 A 
HETATM   23  C   UNL     1      43.589 -18.169   4.382  1.00  0.00     0.043 A 
BRANCH  19  24
HETATM   24  O   UNL     1      43.458 -18.780   8.025  1.00  0.00    -0.360 OA
HETATM   25  H   UNL     1      42.776 -18.081   8.155  1.00  0.00     0.217 HD
ENDBRANCH  19  24
BRANCH  22  26
HETATM   26  N   UNL     1      44.333 -19.626   2.594  1.00  0.00    -0.303 NA
HETATM   27  H   UNL     1      43.830 -18.973   1.999  1.00  0.00     0.124 HD
HETATM   28  H   UNL     1      44.141 -20.589   2.336  1.00  0.00     0.124 HD
ENDBRANCH  22  26
ENDBRANCH   2  18
TORSDOF 4
ENDMDL
MODEL 9
REMARK VINA RESULT:      -7.3      2.180      6.750
REMARK  4 active torsions:
REMARK  status: ('A' for Active; 'I' for Inactive)
REMARK    1  A    between atoms: N_6  and  N_7 
REMARK       I    between atoms: N_7  and  C_8 
REMARK    2  A    between atoms: C_8  and  C_9 
REMARK    3  A    between atoms: C_10  and  O_11 
REMARK    4  A    between atoms: C_14  and  N_15 
ROOT
HETATM    1  N   UNL     1      42.219 -17.616   1.793  1.00  0.00    -0.242 N 
HETATM    2  C   UNL     1      43.518 -17.856   2.210  1.00  0.00     0.274 C 
HETATM    3  O   UNL     1      44.540 -17.467   1.650  1.00  0.00    -0.266 OA
HETATM    4  H   UNL     1      41.432 -17.946   2.332  1.00  0.00     0.192 HD
ENDROOT
BRANCH   1   5
HETATM    5  N   UNL     1      41.979 -17.023   0.596  1.00  0.00    -0.166 NA
HETATM    6  C   UNL     1      41.246 -15.954   0.557  1.00  0.00     0.157 A 
HETATM    7  C   UNL     1      40.786 -15.355  -0.786  1.00  0.00     0.279 A 
HETATM    8  C   UNL     1      40.692 -15.079   1.601  1.00  0.00     0.028 A 
HETATM    9  N   UNL     1      39.989 -14.277  -0.448  1.00  0.00    -0.316 N 
HETATM   10  O   UNL     1      41.070 -15.782  -1.884  1.00  0.00    -0.265 OA
HETATM   11  C   UNL     1      39.354 -13.409  -1.404  1.00  0.00     0.159 C 
HETATM   12  C   UNL     1      39.936 -14.105   0.940  1.00  0.00     0.050 A 
HETATM   13  C   UNL     1      39.274 -13.110   1.640  1.00  0.00     0.032 A 
HETATM   14  C   UNL     1      39.394 -13.095   3.033  1.00  0.00     0.021 A 
HETATM   15  C   UNL     1      40.181 -14.055   3.688  1.00  0.00     0.012 A 
HETATM   16  C   UNL     1      40.852 -15.052   2.977  1.00  0.00     0.035 A 
HETATM   17 BR   UNL     1      40.347 -13.990   5.572  1.00  0.00    -0.051 Br
ENDBRANCH   1   5
BRANCH   2  18
HETATM   18  C   UNL     1      43.653 -18.548   3.518  1.00  0.00     0.068 A 
HETATM   19  C   UNL     1      44.339 -19.767   3.576  1.00  0.00     0.081 A 
HETATM   20  C   UNL     1      44.585 -20.376   4.802  1.00  0.00     0.039 A 
HETATM   21  C   UNL     1      44.111 -19.786   5.976  1.00  0.00     0.026 A 
HETATM   22  C   UNL     1      43.334 -18.626   5.931  1.00  0.00     0.006 A 
HETATM   23  C   UNL     1      43.144 -17.988   4.701  1.00  0.00     0.043 A 
BRANCH  19  24
HETATM   24  O   UNL     1      44.828 -20.404   2.467  1.00  0.00    -0.360 OA
HETATM   25  H   UNL     1      45.146 -19.716   1.838  1.00  0.00     0.217 HD
ENDBRANCH  19  24
BRANCH  22  26
HETATM   26  N   UNL     1      42.956 -17.984   7.117  1.00  0.00    -0.303 NA
HETATM   27  H   UNL     1      43.350 -17.053   7.219  1.00  0.00     0.124 HD
HETATM   28  H   UNL     1      43.093 -18.541   7.955  1.00  0.00     0.124 HD
ENDBRANCH  22  26
ENDBRANCH   2  18
TORSDOF 4
ENDMDL
MODEL 10
REMARK VINA RESULT:      -7.3      7.293      9.473
REMARK  4 active torsions:
REMARK  status: ('A' for Active; 'I' for Inactive)
REMARK    1  A    between atoms: N_6  and  N_7 
REMARK       I    between atoms: N_7  and  C_8 
REMARK    2  A    between atoms: C_8  and  C_9 
REMARK    3  A    between atoms: C_10  and  O_11 
REMARK    4  A    between atoms: C_14  and  N_15 
ROOT
HETATM    1  N   UNL     1      40.439 -11.649   7.597  1.00  0.00    -0.242 N 
HETATM    2  C   UNL     1      39.925 -11.699   6.311  1.00  0.00     0.274 C 
HETATM    3  O   UNL     1      39.005 -11.012   5.874  1.00  0.00    -0.266 OA
HETATM    4  H   UNL     1      41.220 -12.229   7.866  1.00  0.00     0.192 HD
ENDROOT
BRANCH   1   5
HETATM    5  N   UNL     1      39.834 -10.897   8.551  1.00  0.00    -0.166 NA
HETATM    6  C   UNL     1      40.506 -10.556   9.606  1.00  0.00     0.157 A 
HETATM    7  C   UNL     1      39.815  -9.870  10.801  1.00  0.00     0.279 A 
HETATM    8  C   UNL     1      41.925 -10.674   9.972  1.00  0.00     0.028 A 
HETATM    9  N   UNL     1      40.808  -9.708  11.750  1.00  0.00    -0.316 N 
HETATM   10  O   UNL     1      38.642  -9.573  10.863  1.00  0.00    -0.265 OA
HETATM   11  C   UNL     1      40.608  -9.088  13.032  1.00  0.00     0.159 C 
HETATM   12  C   UNL     1      42.042 -10.166  11.271  1.00  0.00     0.050 A 
HETATM   13  C   UNL     1      43.264 -10.126  11.922  1.00  0.00     0.032 A 
HETATM   14  C   UNL     1      44.388 -10.596  11.237  1.00  0.00     0.021 A 
HETATM   15  C   UNL     1      44.272 -11.073   9.922  1.00  0.00     0.012 A 
HETATM   16  C   UNL     1      43.037 -11.104   9.268  1.00  0.00     0.035 A 
HETATM   17 BR   UNL     1      45.817 -11.674   9.011  1.00  0.00    -0.051 Br
ENDBRANCH   1   5
BRANCH   2  18
HETATM   18  C   UNL     1      40.649 -12.589   5.367  1.00  0.00     0.068 A 
HETATM   19  C   UNL     1      40.615 -13.974   5.575  1.00  0.00     0.081 A 
HETATM   20  C   UNL     1      41.180 -14.836   4.642  1.00  0.00     0.039 A 
HETATM   21  C   UNL     1      41.817 -14.316   3.513  1.00  0.00     0.026 A 
HETATM   22  C   UNL     1      41.953 -12.936   3.341  1.00  0.00     0.006 A 
HETATM   23  C   UNL     1      41.329 -12.077   4.251  1.00  0.00     0.043 A 
BRANCH  19  24
HETATM   24  O   UNL     1      40.013 -14.552   6.660  1.00  0.00    -0.360 OA
HETATM   25  H   UNL     1      39.184 -14.055   6.848  1.00  0.00     0.217 HD
ENDBRANCH  19  24
BRANCH  22  26
HETATM   26  N   UNL     1      42.496 -12.425   2.155  1.00  0.00    -0.303 NA
HETATM   27  H   UNL     1      42.414 -13.057   1.364  1.00  0.00     0.124 HD
HETATM   28  H   UNL     1      43.441 -12.066   2.249  1.00  0.00     0.124 HD
ENDBRANCH  22  26
ENDBRANCH   2  18
TORSDOF 4
ENDMDL
