MODEL 1
REMARK VINA RESULT:     -10.1      0.000      0.000
REMARK  9 active torsions:
REMARK  status: ('A' for Active; 'I' for Inactive)
REMARK    1  A    between atoms: C_4  and  C_5 
REMARK    2  A    between atoms: C_5  and  N_6 
REMARK    3  A    between atoms: C_10  and  C_11 
REMARK    4  A    between atoms: C_11  and  N_12 
REMARK       I    between atoms: N_12  and  C_13 
REMARK    5  A    between atoms: C_13  and  C_14 
REMARK    6  A    between atoms: C_14  and  C_15 
REMARK    7  A    between atoms: C_15  and  C_16 
REMARK       I    between atoms: C_16  and  N_17 
REMARK    8  A    between atoms: N_17  and  C_18 
REMARK    9  A    between atoms: C_24  and  N_25 
ROOT
HETATM    1  C   UNL     1      40.129 -10.071   5.044  1.00  0.00     0.112 C 
ENDROOT
BRANCH   1   2
HETATM    2  C   UNL     1      41.448  -9.520   5.573  1.00  0.00     0.112 C 
BRANCH   2   3
HETATM    3  C   UNL     1      41.439  -9.265   7.062  1.00  0.00     0.218 C 
HETATM    4  N   UNL     1      40.437  -8.429   7.509  1.00  0.00    -0.361 N 
HETATM    5  H   UNL     1      39.710  -8.175   6.850  1.00  0.00     0.162 HD
HETATM    6  O   UNL     1      42.252  -9.787   7.821  1.00  0.00    -0.274 OA
BRANCH   4   7
HETATM    7  C   UNL     1      40.115  -8.326   8.921  1.00  0.00     0.127 C 
BRANCH   7   8
HETATM    8  C   UNL     1      38.816  -9.051   9.332  1.00  0.00     0.006 C 
HETATM    9  C   UNL     1      38.392  -8.822  10.790  1.00  0.00     0.034 C 
HETATM   10  C   UNL     1      39.341  -9.468  11.792  1.00  0.00     0.235 C 
HETATM   11  N   UNL     1      39.418 -10.955  11.512  1.00  0.00    -0.067 N 
HETATM   12  H   UNL     1      38.471 -11.331  11.642  1.00  0.00     0.280 HD
HETATM   13  C   UNL     1      39.861 -11.258  10.105  1.00  0.00     0.235 C 
HETATM   14  C   UNL     1      38.941 -10.568   9.100  1.00  0.00     0.034 C 
BRANCH  11  15
HETATM   15  C   UNL     1      40.291 -11.685  12.520  1.00  0.00     0.273 C 
BRANCH  15  16
HETATM   16  C   UNL     1      41.404 -10.841  13.076  1.00  0.00    -0.032 A 
HETATM   17  C   UNL     1      41.299 -10.264  14.353  1.00  0.00     0.015 A 
HETATM   18  C   UNL     1      42.314  -9.437  14.852  1.00  0.00    -0.061 A 
HETATM   19  C   UNL     1      42.218  -8.841  16.226  1.00  0.00     0.048 C 
HETATM   20  C   UNL     1      43.454  -9.212  14.074  1.00  0.00     0.007 A 
HETATM   21  C   UNL     1      43.575  -9.788  12.811  1.00  0.00     0.001 A 
HETATM   22  C   UNL     1      42.555 -10.596  12.312  1.00  0.00     0.009 A 
ENDBRANCH  15  16
ENDBRANCH  11  15
ENDBRANCH   7   8
ENDBRANCH   4   7
ENDBRANCH   2   3
ENDBRANCH   1   2
BRANCH   1  23
HETATM   23  C   UNL     1      40.222 -11.574   4.831  1.00  0.00     0.222 C 
HETATM   24  N   UNL     1      41.499 -11.991   4.486  1.00  0.00    -0.327 N 
HETATM   25  H   UNL     1      42.187 -11.264   4.323  1.00  0.00     0.169 HD
HETATM   26  O   UNL     1      39.241 -12.302   4.942  1.00  0.00    -0.273 OA
BRANCH  24  27
HETATM   27  C   UNL     1      41.913 -13.320   4.236  1.00  0.00     0.035 A 
HETATM   28  C   UNL     1      42.549 -14.131   5.185  1.00  0.00     0.043 A 
HETATM   29  C   UNL     1      42.924 -15.467   4.905  1.00  0.00    -0.001 A 
HETATM   30  C   UNL     1      42.636 -15.976   3.622  1.00  0.00     0.044 A 
HETATM   31  C   UNL     1      43.560 -16.327   5.833  1.00  0.00    -0.046 A 
HETATM   32  N   UNL     1      42.951 -17.248   3.333  1.00  0.00    -0.346 N 
HETATM   33  C   UNL     1      42.020 -15.166   2.660  1.00  0.00     0.033 A 
HETATM   34  H   UNL     1      42.691 -17.646   2.437  1.00  0.00     0.167 HD
HETATM   35  C   UNL     1      43.547 -18.100   4.175  1.00  0.00     0.083 A 
HETATM   36  C   UNL     1      43.861 -17.642   5.453  1.00  0.00     0.050 A 
HETATM   37  C   UNL     1      41.670 -13.845   2.964  1.00  0.00     0.032 A 
HETATM   38  C   UNL     1      43.908 -15.873   7.229  1.00  0.00     0.049 C 
BRANCH  35  39
HETATM   39  N   UNL     1      43.737 -19.385   3.695  1.00  0.00    -0.269 NA
HETATM   40  C   UNL     1      44.885 -20.138   4.249  1.00  0.00     0.097 C 
HETATM   41  C   UNL     1      44.746 -21.618   3.895  1.00  0.00     0.015 C 
HETATM   42  C   UNL     1      44.610 -21.816   2.388  1.00  0.00     0.002 C 
HETATM   43  C   UNL     1      43.478 -20.958   1.828  1.00  0.00     0.015 C 
HETATM   44  C   UNL     1      43.645 -19.490   2.223  1.00  0.00     0.097 C 
ENDBRANCH  35  39
ENDBRANCH  24  27
ENDBRANCH   1  23
TORSDOF 9
ENDMDL
MODEL 2
REMARK VINA RESULT:      -9.8      1.979      3.167
REMARK  9 active torsions:
REMARK  status: ('A' for Active; 'I' for Inactive)
REMARK    1  A    between atoms: C_4  and  C_5 
REMARK    2  A    between atoms: C_5  and  N_6 
REMARK    3  A    between atoms: C_10  and  C_11 
REMARK    4  A    between atoms: C_11  and  N_12 
REMARK       I    between atoms: N_12  and  C_13 
REMARK    5  A    between atoms: C_13  and  C_14 
REMARK    6  A    between atoms: C_14  and  C_15 
REMARK    7  A    between atoms: C_15  and  C_16 
REMARK       I    between atoms: C_16  and  N_17 
REMARK    8  A    between atoms: N_17  and  C_18 
REMARK    9  A    between atoms: C_24  and  N_25 
ROOT
HETATM    1  C   UNL     1      40.741  -9.899   4.351  1.00  0.00     0.112 C 
ENDROOT
BRANCH   1   2
HETATM    2  C   UNL     1      41.144  -9.746   5.813  1.00  0.00     0.112 C 
BRANCH   2   3
HETATM    3  C   UNL     1      40.022 -10.039   6.781  1.00  0.00     0.218 C 
HETATM    4  N   UNL     1      40.413 -10.273   8.082  1.00  0.00    -0.361 N 
HETATM    5  H   UNL     1      41.381 -10.088   8.321  1.00  0.00     0.162 HD
HETATM    6  O   UNL     1      38.843 -10.042   6.435  1.00  0.00    -0.274 OA
BRANCH   4   7
HETATM    7  C   UNL     1      39.453 -10.272   9.170  1.00  0.00     0.127 C 
BRANCH   7   8
HETATM    8  C   UNL     1      39.863  -9.407  10.381  1.00  0.00     0.006 C 
HETATM    9  C   UNL     1      41.268  -8.797  10.283  1.00  0.00     0.034 C 
HETATM   10  C   UNL     1      42.376  -9.841  10.364  1.00  0.00     0.235 C 
HETATM   11  N   UNL     1      42.242 -10.603  11.667  1.00  0.00    -0.067 N 
HETATM   12  H   UNL     1      42.357  -9.919  12.424  1.00  0.00     0.280 HD
HETATM   13  C   UNL     1      40.894 -11.259  11.819  1.00  0.00     0.235 C 
HETATM   14  C   UNL     1      39.782 -10.220  11.686  1.00  0.00     0.034 C 
BRANCH  11  15
HETATM   15  C   UNL     1      43.359 -11.617  11.856  1.00  0.00     0.273 C 
BRANCH  15  16
HETATM   16  C   UNL     1      44.292 -11.712  10.681  1.00  0.00    -0.032 A 
HETATM   17  C   UNL     1      44.064 -12.648   9.658  1.00  0.00     0.015 A 
HETATM   18  C   UNL     1      44.961 -12.771   8.588  1.00  0.00    -0.061 A 
HETATM   19  C   UNL     1      44.707 -13.750   7.478  1.00  0.00     0.048 C 
HETATM   20  C   UNL     1      46.076 -11.929   8.531  1.00  0.00     0.007 A 
HETATM   21  C   UNL     1      46.305 -10.990   9.534  1.00  0.00     0.001 A 
HETATM   22  C   UNL     1      45.421 -10.883  10.606  1.00  0.00     0.009 A 
ENDBRANCH  15  16
ENDBRANCH  11  15
ENDBRANCH   7   8
ENDBRANCH   4   7
ENDBRANCH   2   3
ENDBRANCH   1   2
BRANCH   1  23
HETATM   23  C   UNL     1      40.829 -11.356   3.921  1.00  0.00     0.222 C 
HETATM   24  N   UNL     1      41.939 -12.005   4.439  1.00  0.00    -0.327 N 
HETATM   25  H   UNL     1      42.602 -11.434   4.951  1.00  0.00     0.169 HD
HETATM   26  O   UNL     1      39.995 -11.857   3.174  1.00  0.00    -0.273 OA
BRANCH  24  27
HETATM   27  C   UNL     1      42.294 -13.358   4.237  1.00  0.00     0.035 A 
HETATM   28  C   UNL     1      41.758 -14.424   4.971  1.00  0.00     0.043 A 
HETATM   29  C   UNL     1      42.119 -15.770   4.720  1.00  0.00    -0.001 A 
HETATM   30  C   UNL     1      43.050 -16.021   3.692  1.00  0.00     0.044 A 
HETATM   31  C   UNL     1      41.598 -16.879   5.428  1.00  0.00    -0.046 A 
HETATM   32  N   UNL     1      43.392 -17.286   3.408  1.00  0.00    -0.346 N 
HETATM   33  C   UNL     1      43.608 -14.960   2.967  1.00  0.00     0.033 A 
HETATM   34  H   UNL     1      44.010 -17.485   2.629  1.00  0.00     0.167 HD
HETATM   35  C   UNL     1      42.925 -18.367   4.044  1.00  0.00     0.083 A 
HETATM   36  C   UNL     1      42.008 -18.173   5.075  1.00  0.00     0.050 A 
HETATM   37  C   UNL     1      43.239 -13.639   3.245  1.00  0.00     0.032 A 
HETATM   38  C   UNL     1      40.597 -16.713   6.544  1.00  0.00     0.049 C 
BRANCH  35  39
HETATM   39  N   UNL     1      43.367 -19.587   3.559  1.00  0.00    -0.269 NA
HETATM   40  C   UNL     1      44.617 -20.121   4.145  1.00  0.00     0.097 C 
HETATM   41  C   UNL     1      44.768 -21.596   3.773  1.00  0.00     0.015 C 
HETATM   42  C   UNL     1      44.719 -21.793   2.261  1.00  0.00     0.002 C 
HETATM   43  C   UNL     1      43.465 -21.153   1.671  1.00  0.00     0.015 C 
HETATM   44  C   UNL     1      43.342 -19.686   2.084  1.00  0.00     0.097 C 
ENDBRANCH  35  39
ENDBRANCH  24  27
ENDBRANCH   1  23
TORSDOF 9
ENDMDL
MODEL 3
REMARK VINA RESULT:      -9.7      1.786      2.781
REMARK  9 active torsions:
REMARK  status: ('A' for Active; 'I' for Inactive)
REMARK    1  A    between atoms: C_4  and  C_5 
REMARK    2  A    between atoms: C_5  and  N_6 
REMARK    3  A    between atoms: C_10  and  C_11 
REMARK    4  A    between atoms: C_11  and  N_12 
REMARK       I    between atoms: N_12  and  C_13 
REMARK    5  A    between atoms: C_13  and  C_14 
REMARK    6  A    between atoms: C_14  and  C_15 
REMARK    7  A    between atoms: C_15  and  C_16 
REMARK       I    between atoms: C_16  and  N_17 
REMARK    8  A    between atoms: N_17  and  C_18 
REMARK    9  A    between atoms: C_24  and  N_25 
ROOT
HETATM    1  C   UNL     1      39.957 -11.044   6.843  1.00  0.00     0.112 C 
ENDROOT
BRANCH   1   2
HETATM    2  C   UNL     1      39.194 -11.709   7.984  1.00  0.00     0.112 C 
BRANCH   2   3
HETATM    3  C   UNL     1      39.375 -11.015   9.313  1.00  0.00     0.218 C 
HETATM    4  N   UNL     1      38.436 -10.048   9.605  1.00  0.00    -0.361 N 
HETATM    5  H   UNL     1      37.629  -9.979   8.995  1.00  0.00     0.162 HD
HETATM    6  O   UNL     1      40.281 -11.311  10.089  1.00  0.00    -0.274 OA
BRANCH   4   7
HETATM    7  C   UNL     1      38.297  -9.511  10.946  1.00  0.00     0.127 C 
BRANCH   7   8
HETATM    8  C   UNL     1      38.604  -8.003  11.064  1.00  0.00     0.006 C 
HETATM    9  C   UNL     1      39.859  -7.546  10.306  1.00  0.00     0.034 C 
HETATM   10  C   UNL     1      41.148  -8.090  10.911  1.00  0.00     0.235 C 
HETATM   11  N   UNL     1      41.239  -7.649  12.358  1.00  0.00    -0.067 N 
HETATM   12  H   UNL     1      41.265  -6.622  12.355  1.00  0.00     0.280 HD
HETATM   13  C   UNL     1      40.053  -8.091  13.174  1.00  0.00     0.235 C 
HETATM   14  C   UNL     1      38.757  -7.591  12.540  1.00  0.00     0.034 C 
BRANCH  11  15
HETATM   15  C   UNL     1      42.538  -8.091  13.012  1.00  0.00     0.273 C 
BRANCH  15  16
HETATM   16  C   UNL     1      43.011  -9.445  12.560  1.00  0.00    -0.032 A 
HETATM   17  C   UNL     1      43.960  -9.567  11.531  1.00  0.00     0.015 A 
HETATM   18  C   UNL     1      44.363 -10.829  11.075  1.00  0.00    -0.061 A 
HETATM   19  C   UNL     1      45.397 -10.965   9.995  1.00  0.00     0.048 C 
HETATM   20  C   UNL     1      43.832 -11.974  11.677  1.00  0.00     0.007 A 
HETATM   21  C   UNL     1      42.899 -11.865  12.706  1.00  0.00     0.001 A 
HETATM   22  C   UNL     1      42.487 -10.607  13.144  1.00  0.00     0.009 A 
ENDBRANCH  15  16
ENDBRANCH  11  15
ENDBRANCH   7   8
ENDBRANCH   4   7
ENDBRANCH   2   3
ENDBRANCH   1   2
BRANCH   1  23
HETATM   23  C   UNL     1      40.796 -12.067   6.092  1.00  0.00     0.222 C 
HETATM   24  N   UNL     1      40.384 -13.371   6.316  1.00  0.00    -0.327 N 
HETATM   25  H   UNL     1      39.656 -13.506   7.009  1.00  0.00     0.169 HD
HETATM   26  O   UNL     1      41.743 -11.729   5.389  1.00  0.00    -0.273 OA
BRANCH  24  27
HETATM   27  C   UNL     1      40.948 -14.541   5.757  1.00  0.00     0.035 A 
HETATM   28  C   UNL     1      41.802 -15.406   6.454  1.00  0.00     0.043 A 
HETATM   29  C   UNL     1      42.325 -16.584   5.868  1.00  0.00    -0.001 A 
HETATM   30  C   UNL     1      41.959 -16.875   4.538  1.00  0.00     0.044 A 
HETATM   31  C   UNL     1      43.183 -17.492   6.534  1.00  0.00    -0.046 A 
HETATM   32  N   UNL     1      42.412 -17.998   3.961  1.00  0.00    -0.346 N 
HETATM   33  C   UNL     1      41.122 -16.005   3.826  1.00  0.00     0.033 A 
HETATM   34  H   UNL     1      42.104 -18.253   3.029  1.00  0.00     0.167 HD
HETATM   35  C   UNL     1      43.220 -18.889   4.549  1.00  0.00     0.083 A 
HETATM   36  C   UNL     1      43.618 -18.642   5.862  1.00  0.00     0.050 A 
HETATM   37  C   UNL     1      40.630 -14.842   4.430  1.00  0.00     0.032 A 
HETATM   38  C   UNL     1      43.630 -17.266   7.957  1.00  0.00     0.049 C 
BRANCH  35  39
HETATM   39  N   UNL     1      43.529 -20.009   3.796  1.00  0.00    -0.269 NA
HETATM   40  C   UNL     1      44.700 -20.802   4.234  1.00  0.00     0.097 C 
HETATM   41  C   UNL     1      44.690 -22.160   3.535  1.00  0.00     0.015 C 
HETATM   42  C   UNL     1      44.646 -22.001   2.017  1.00  0.00     0.002 C 
HETATM   43  C   UNL     1      43.485 -21.104   1.599  1.00  0.00     0.015 C 
HETATM   44  C   UNL     1      43.520 -19.765   2.337  1.00  0.00     0.097 C 
ENDBRANCH  35  39
ENDBRANCH  24  27
ENDBRANCH   1  23
TORSDOF 9
ENDMDL
MODEL 4
REMARK VINA RESULT:      -9.6      1.828     11.477
REMARK  9 active torsions:
REMARK  status: ('A' for Active; 'I' for Inactive)
REMARK    1  A    between atoms: C_4  and  C_5 
REMARK    2  A    between atoms: C_5  and  N_6 
REMARK    3  A    between atoms: C_10  and  C_11 
REMARK    4  A    between atoms: C_11  and  N_12 
REMARK       I    between atoms: N_12  and  C_13 
REMARK    5  A    between atoms: C_13  and  C_14 
REMARK    6  A    between atoms: C_14  and  C_15 
REMARK    7  A    between atoms: C_15  and  C_16 
REMARK       I    between atoms: C_16  and  N_17 
REMARK    8  A    between atoms: N_17  and  C_18 
REMARK    9  A    between atoms: C_24  and  N_25 
ROOT
HETATM    1  C   UNL     1      41.207 -11.244   3.773  1.00  0.00     0.112 C 
ENDROOT
BRANCH   1   2
HETATM    2  C   UNL     1      39.833 -11.834   3.477  1.00  0.00     0.112 C 
BRANCH   2   3
HETATM    3  C   UNL     1      39.789 -13.340   3.585  1.00  0.00     0.218 C 
HETATM    4  N   UNL     1      39.602 -14.009   2.393  1.00  0.00    -0.361 N 
HETATM    5  H   UNL     1      39.659 -13.468   1.538  1.00  0.00     0.162 HD
HETATM    6  O   UNL     1      39.934 -13.924   4.655  1.00  0.00    -0.274 OA
BRANCH   4   7
HETATM    7  C   UNL     1      39.833 -15.438   2.287  1.00  0.00     0.127 C 
BRANCH   7   8
HETATM    8  C   UNL     1      40.980 -15.829   1.332  1.00  0.00     0.006 C 
HETATM    9  C   UNL     1      41.254 -17.337   1.246  1.00  0.00     0.034 C 
HETATM   10  C   UNL     1      41.826 -17.911   2.537  1.00  0.00     0.235 C 
HETATM   11  N   UNL     1      43.110 -17.180   2.875  1.00  0.00    -0.067 N 
HETATM   12  H   UNL     1      43.763 -17.352   2.102  1.00  0.00     0.280 HD
HETATM   13  C   UNL     1      42.912 -15.693   3.008  1.00  0.00     0.235 C 
HETATM   14  C   UNL     1      42.290 -15.125   1.734  1.00  0.00     0.034 C 
BRANCH  11  15
HETATM   15  C   UNL     1      43.783 -17.747   4.115  1.00  0.00     0.273 C 
BRANCH  15  16
HETATM   16  C   UNL     1      44.131 -19.205   3.998  1.00  0.00    -0.032 A 
HETATM   17  C   UNL     1      43.997 -19.878   2.772  1.00  0.00     0.015 A 
HETATM   18  C   UNL     1      44.274 -21.249   2.674  1.00  0.00    -0.061 A 
HETATM   19  C   UNL     1      44.159 -21.966   1.360  1.00  0.00     0.048 C 
HETATM   20  C   UNL     1      44.715 -21.939   3.807  1.00  0.00     0.007 A 
HETATM   21  C   UNL     1      44.862 -21.279   5.025  1.00  0.00     0.001 A 
HETATM   22  C   UNL     1      44.569 -19.920   5.123  1.00  0.00     0.009 A 
ENDBRANCH  15  16
ENDBRANCH  11  15
ENDBRANCH   7   8
ENDBRANCH   4   7
ENDBRANCH   2   3
ENDBRANCH   1   2
BRANCH   1  23
HETATM   23  C   UNL     1      41.201 -10.513   5.107  1.00  0.00     0.222 C 
HETATM   24  N   UNL     1      41.224 -11.374   6.194  1.00  0.00    -0.327 N 
HETATM   25  H   UNL     1      41.147 -12.365   5.991  1.00  0.00     0.169 HD
HETATM   26  O   UNL     1      41.157  -9.289   5.169  1.00  0.00    -0.273 OA
BRANCH  24  27
HETATM   27  C   UNL     1      41.238 -11.008   7.559  1.00  0.00     0.035 A 
HETATM   28  C   UNL     1      42.404 -10.920   8.331  1.00  0.00     0.043 A 
HETATM   29  C   UNL     1      42.380 -10.522   9.690  1.00  0.00    -0.001 A 
HETATM   30  C   UNL     1      41.130 -10.209  10.262  1.00  0.00     0.044 A 
HETATM   31  C   UNL     1      43.531 -10.410  10.507  1.00  0.00    -0.046 A 
HETATM   32  N   UNL     1      41.074  -9.801  11.539  1.00  0.00    -0.346 N 
HETATM   33  C   UNL     1      39.957 -10.316   9.504  1.00  0.00     0.033 A 
HETATM   34  H   UNL     1      40.191  -9.511  11.943  1.00  0.00     0.167 HD
HETATM   35  C   UNL     1      42.131  -9.674  12.349  1.00  0.00     0.083 A 
HETATM   36  C   UNL     1      43.390  -9.981  11.834  1.00  0.00     0.050 A 
HETATM   37  C   UNL     1      40.012 -10.721   8.165  1.00  0.00     0.032 A 
HETATM   38  C   UNL     1      44.911 -10.723   9.986  1.00  0.00     0.049 C 
BRANCH  35  39
HETATM   39  N   UNL     1      41.862  -9.187  13.617  1.00  0.00    -0.269 NA
HETATM   40  C   UNL     1      42.340 -10.000  14.757  1.00  0.00     0.097 C 
HETATM   41  C   UNL     1      42.282  -9.171  16.039  1.00  0.00     0.015 C 
HETATM   42  C   UNL     1      40.878  -8.623  16.281  1.00  0.00     0.002 C 
HETATM   43  C   UNL     1      40.372  -7.867  15.055  1.00  0.00     0.015 C 
HETATM   44  C   UNL     1      40.468  -8.725  13.793  1.00  0.00     0.097 C 
ENDBRANCH  35  39
ENDBRANCH  24  27
ENDBRANCH   1  23
TORSDOF 9
ENDMDL
MODEL 5
REMARK VINA RESULT:      -9.6      2.958      6.798
REMARK  9 active torsions:
REMARK  status: ('A' for Active; 'I' for Inactive)
REMARK    1  A    between atoms: C_4  and  C_5 
REMARK    2  A    between atoms: C_5  and  N_6 
REMARK    3  A    between atoms: C_10  and  C_11 
REMARK    4  A    between atoms: C_11  and  N_12 
REMARK       I    between atoms: N_12  and  C_13 
REMARK    5  A    between atoms: C_13  and  C_14 
REMARK    6  A    between atoms: C_14  and  C_15 
REMARK    7  A    between atoms: C_15  and  C_16 
REMARK       I    between atoms: C_16  and  N_17 
REMARK    8  A    between atoms: N_17  and  C_18 
REMARK    9  A    between atoms: C_24  and  N_25 
ROOT
HETATM    1  C   UNL     1      44.644 -11.374   9.227  1.00  0.00     0.112 C 
ENDROOT
BRANCH   1   2
HETATM    2  C   UNL     1      43.197 -11.475   9.696  1.00  0.00     0.112 C 
BRANCH   2   3
HETATM    3  C   UNL     1      42.317 -10.363   9.176  1.00  0.00     0.218 C 
HETATM    4  N   UNL     1      42.129 -10.353   7.810  1.00  0.00    -0.361 N 
HETATM    5  H   UNL     1      42.459 -11.156   7.285  1.00  0.00     0.162 HD
HETATM    6  O   UNL     1      41.787  -9.543   9.922  1.00  0.00    -0.274 OA
BRANCH   4   7
HETATM    7  C   UNL     1      41.089  -9.547   7.197  1.00  0.00     0.127 C 
BRANCH   7   8
HETATM    8  C   UNL     1      39.808 -10.328   6.834  1.00  0.00     0.006 C 
HETATM    9  C   UNL     1      40.012 -11.838   6.647  1.00  0.00     0.034 C 
HETATM   10  C   UNL     1      40.843 -12.176   5.415  1.00  0.00     0.235 C 
HETATM   11  N   UNL     1      40.164 -11.599   4.189  1.00  0.00    -0.067 N 
HETATM   12  H   UNL     1      39.244 -12.049   4.119  1.00  0.00     0.280 HD
HETATM   13  C   UNL     1      39.959 -10.110   4.287  1.00  0.00     0.235 C 
HETATM   14  C   UNL     1      39.172  -9.766   5.549  1.00  0.00     0.034 C 
BRANCH  11  15
HETATM   15  C   UNL     1      40.896 -11.959   2.906  1.00  0.00     0.273 C 
BRANCH  15  16
HETATM   16  C   UNL     1      40.694 -13.386   2.477  1.00  0.00    -0.032 A 
HETATM   17  C   UNL     1      41.788 -14.182   2.095  1.00  0.00     0.015 A 
HETATM   18  C   UNL     1      41.596 -15.496   1.647  1.00  0.00    -0.061 A 
HETATM   19  C   UNL     1      42.763 -16.359   1.264  1.00  0.00     0.048 C 
HETATM   20  C   UNL     1      40.301 -16.022   1.613  1.00  0.00     0.007 A 
HETATM   21  C   UNL     1      39.211 -15.246   2.000  1.00  0.00     0.001 A 
HETATM   22  C   UNL     1      39.404 -13.934   2.427  1.00  0.00     0.009 A 
ENDBRANCH  15  16
ENDBRANCH  11  15
ENDBRANCH   7   8
ENDBRANCH   4   7
ENDBRANCH   2   3
ENDBRANCH   1   2
BRANCH   1  23
HETATM   23  C   UNL     1      45.039 -12.612   8.436  1.00  0.00     0.222 C 
HETATM   24  N   UNL     1      43.948 -13.287   7.911  1.00  0.00    -0.327 N 
HETATM   25  H   UNL     1      43.030 -12.951   8.182  1.00  0.00     0.169 HD
HETATM   26  O   UNL     1      46.211 -12.953   8.319  1.00  0.00    -0.273 OA
BRANCH  24  27
HETATM   27  C   UNL     1      43.982 -14.460   7.122  1.00  0.00     0.035 A 
HETATM   28  C   UNL     1      44.105 -15.752   7.650  1.00  0.00     0.043 A 
HETATM   29  C   UNL     1      44.108 -16.905   6.828  1.00  0.00    -0.001 A 
HETATM   30  C   UNL     1      43.979 -16.722   5.436  1.00  0.00     0.044 A 
HETATM   31  C   UNL     1      44.221 -18.229   7.315  1.00  0.00    -0.046 A 
HETATM   32  N   UNL     1      43.948 -17.794   4.631  1.00  0.00    -0.346 N 
HETATM   33  C   UNL     1      43.877 -15.432   4.898  1.00  0.00     0.033 A 
HETATM   34  H   UNL     1      43.791 -17.679   3.636  1.00  0.00     0.167 HD
HETATM   35  C   UNL     1      44.046 -19.063   5.042  1.00  0.00     0.083 A 
HETATM   36  C   UNL     1      44.184 -19.298   6.409  1.00  0.00     0.050 A 
HETATM   37  C   UNL     1      43.888 -14.311   5.736  1.00  0.00     0.032 A 
HETATM   38  C   UNL     1      44.362 -18.527   8.787  1.00  0.00     0.049 C 
BRANCH  35  39
HETATM   39  N   UNL     1      43.939 -20.026   4.052  1.00  0.00    -0.269 NA
HETATM   40  C   UNL     1      44.860 -21.181   4.145  1.00  0.00     0.097 C 
HETATM   41  C   UNL     1      44.383 -22.293   3.212  1.00  0.00     0.015 C 
HETATM   42  C   UNL     1      44.244 -21.791   1.778  1.00  0.00     0.002 C 
HETATM   43  C   UNL     1      43.364 -20.545   1.722  1.00  0.00     0.015 C 
HETATM   44  C   UNL     1      43.863 -19.467   2.685  1.00  0.00     0.097 C 
ENDBRANCH  35  39
ENDBRANCH  24  27
ENDBRANCH   1  23
TORSDOF 9
ENDMDL
MODEL 6
REMARK VINA RESULT:      -9.5      2.571      4.141
REMARK  9 active torsions:
REMARK  status: ('A' for Active; 'I' for Inactive)
REMARK    1  A    between atoms: C_4  and  C_5 
REMARK    2  A    between atoms: C_5  and  N_6 
REMARK    3  A    between atoms: C_10  and  C_11 
REMARK    4  A    between atoms: C_11  and  N_12 
REMARK       I    between atoms: N_12  and  C_13 
REMARK    5  A    between atoms: C_13  and  C_14 
REMARK    6  A    between atoms: C_14  and  C_15 
REMARK    7  A    between atoms: C_15  and  C_16 
REMARK       I    between atoms: C_16  and  N_17 
REMARK    8  A    between atoms: N_17  and  C_18 
REMARK    9  A    between atoms: C_24  and  N_25 
ROOT
HETATM    1  C   UNL     1      40.651 -10.480   0.022  1.00  0.00     0.112 C 
ENDROOT
BRANCH   1   2
HETATM    2  C   UNL     1      39.276 -10.645   0.660  1.00  0.00     0.112 C 
BRANCH   2   3
HETATM    3  C   UNL     1      39.252 -10.316   2.134  1.00  0.00     0.218 C 
HETATM    4  N   UNL     1      38.697 -11.284   2.944  1.00  0.00    -0.361 N 
HETATM    5  H   UNL     1      38.489 -12.183   2.524  1.00  0.00     0.162 HD
HETATM    6  O   UNL     1      39.720  -9.270   2.579  1.00  0.00    -0.274 OA
BRANCH   4   7
HETATM    7  C   UNL     1      38.869 -11.251   4.385  1.00  0.00     0.127 C 
BRANCH   7   8
HETATM    8  C   UNL     1      39.850 -12.309   4.933  1.00  0.00     0.006 C 
HETATM    9  C   UNL     1      39.449 -12.911   6.286  1.00  0.00     0.034 C 
HETATM   10  C   UNL     1      39.531 -11.908   7.431  1.00  0.00     0.235 C 
HETATM   11  N   UNL     1      40.945 -11.369   7.513  1.00  0.00    -0.067 N 
HETATM   12  H   UNL     1      41.557 -12.169   7.712  1.00  0.00     0.280 HD
HETATM   13  C   UNL     1      41.399 -10.731   6.227  1.00  0.00     0.235 C 
HETATM   14  C   UNL     1      41.267 -11.720   5.070  1.00  0.00     0.034 C 
BRANCH  11  15
HETATM   15  C   UNL     1      41.128 -10.413   8.682  1.00  0.00     0.273 C 
BRANCH  15  16
HETATM   16  C   UNL     1      42.449 -10.564   9.383  1.00  0.00    -0.032 A 
HETATM   17  C   UNL     1      43.480 -11.332   8.814  1.00  0.00     0.015 A 
HETATM   18  C   UNL     1      44.694 -11.514   9.490  1.00  0.00    -0.061 A 
HETATM   19  C   UNL     1      45.808 -12.310   8.874  1.00  0.00     0.048 C 
HETATM   20  C   UNL     1      44.884 -10.897  10.730  1.00  0.00     0.007 A 
HETATM   21  C   UNL     1      43.873 -10.125  11.299  1.00  0.00     0.001 A 
HETATM   22  C   UNL     1      42.660  -9.961  10.631  1.00  0.00     0.009 A 
ENDBRANCH  15  16
ENDBRANCH  11  15
ENDBRANCH   7   8
ENDBRANCH   4   7
ENDBRANCH   2   3
ENDBRANCH   1   2
BRANCH   1  23
HETATM   23  C   UNL     1      41.532 -11.682   0.329  1.00  0.00     0.222 C 
HETATM   24  N   UNL     1      40.804 -12.807   0.685  1.00  0.00    -0.327 N 
HETATM   25  H   UNL     1      39.803 -12.686   0.795  1.00  0.00     0.169 HD
HETATM   26  O   UNL     1      42.755 -11.612   0.275  1.00  0.00    -0.273 OA
BRANCH  24  27
HETATM   27  C   UNL     1      41.326 -14.079   1.015  1.00  0.00     0.035 A 
HETATM   28  C   UNL     1      41.954 -14.373   2.232  1.00  0.00     0.043 A 
HETATM   29  C   UNL     1      42.440 -15.668   2.537  1.00  0.00    -0.001 A 
HETATM   30  C   UNL     1      42.273 -16.678   1.568  1.00  0.00     0.044 A 
HETATM   31  C   UNL     1      43.072 -16.014   3.755  1.00  0.00    -0.046 A 
HETATM   32  N   UNL     1      42.695 -17.923   1.835  1.00  0.00    -0.346 N 
HETATM   33  C   UNL     1      41.665 -16.388   0.339  1.00  0.00     0.033 A 
HETATM   34  H   UNL     1      42.522 -18.672   1.174  1.00  0.00     0.167 HD
HETATM   35  C   UNL     1      43.293 -18.301   2.970  1.00  0.00     0.083 A 
HETATM   36  C   UNL     1      43.490 -17.337   3.958  1.00  0.00     0.050 A 
HETATM   37  C   UNL     1      41.204 -15.095   0.063  1.00  0.00     0.032 A 
HETATM   38  C   UNL     1      43.296 -15.004   4.852  1.00  0.00     0.049 C 
BRANCH  35  39
HETATM   39  N   UNL     1      43.604 -19.648   3.067  1.00  0.00    -0.269 NA
HETATM   40  C   UNL     1      44.695 -20.013   3.997  1.00  0.00     0.097 C 
HETATM   41  C   UNL     1      44.671 -21.520   4.249  1.00  0.00     0.015 C 
HETATM   42  C   UNL     1      44.755 -22.301   2.941  1.00  0.00     0.002 C 
HETATM   43  C   UNL     1      43.676 -21.840   1.964  1.00  0.00     0.015 C 
HETATM   44  C   UNL     1      43.721 -20.325   1.757  1.00  0.00     0.097 C 
ENDBRANCH  35  39
ENDBRANCH  24  27
ENDBRANCH   1  23
TORSDOF 9
ENDMDL
MODEL 7
REMARK VINA RESULT:      -9.5      5.134      8.706
REMARK  9 active torsions:
REMARK  status: ('A' for Active; 'I' for Inactive)
REMARK    1  A    between atoms: C_4  and  C_5 
REMARK    2  A    between atoms: C_5  and  N_6 
REMARK    3  A    between atoms: C_10  and  C_11 
REMARK    4  A    between atoms: C_11  and  N_12 
REMARK       I    between atoms: N_12  and  C_13 
REMARK    5  A    between atoms: C_13  and  C_14 
REMARK    6  A    between atoms: C_14  and  C_15 
REMARK    7  A    between atoms: C_15  and  C_16 
REMARK       I    between atoms: C_16  and  N_17 
REMARK    8  A    between atoms: N_17  and  C_18 
REMARK    9  A    between atoms: C_24  and  N_25 
ROOT
HETATM    1  C   UNL     1      41.239 -10.490   4.655  1.00  0.00     0.112 C 
ENDROOT
BRANCH   1   2
HETATM    2  C   UNL     1      40.028  -9.944   3.908  1.00  0.00     0.112 C 
BRANCH   2   3
HETATM    3  C   UNL     1      39.821 -10.578   2.553  1.00  0.00     0.218 C 
HETATM    4  N   UNL     1      38.650 -11.292   2.410  1.00  0.00    -0.361 N 
HETATM    5  H   UNL     1      37.962 -11.216   3.151  1.00  0.00     0.162 HD
HETATM    6  O   UNL     1      40.629 -10.443   1.637  1.00  0.00    -0.274 OA
BRANCH   4   7
HETATM    7  C   UNL     1      38.171 -11.701   1.103  1.00  0.00     0.127 C 
BRANCH   7   8
HETATM    8  C   UNL     1      37.798 -13.195   1.000  1.00  0.00     0.006 C 
HETATM    9  C   UNL     1      38.796 -14.150   1.670  1.00  0.00     0.034 C 
HETATM   10  C   UNL     1      40.142 -14.199   0.956  1.00  0.00     0.235 C 
HETATM   11  N   UNL     1      39.921 -14.623  -0.482  1.00  0.00    -0.067 N 
HETATM   12  H   UNL     1      39.509 -15.563  -0.456  1.00  0.00     0.280 HD
HETATM   13  C   UNL     1      38.974 -13.711  -1.217  1.00  0.00     0.235 C 
HETATM   14  C   UNL     1      37.643 -13.619  -0.473  1.00  0.00     0.034 C 
BRANCH  11  15
HETATM   15  C   UNL     1      41.228 -14.769  -1.245  1.00  0.00     0.273 C 
BRANCH  15  16
HETATM   16  C   UNL     1      41.693 -13.495  -1.894  1.00  0.00    -0.032 A 
HETATM   17  C   UNL     1      42.321 -12.491  -1.137  1.00  0.00     0.015 A 
HETATM   18  C   UNL     1      42.709 -11.283  -1.732  1.00  0.00    -0.061 A 
HETATM   19  C   UNL     1      43.406 -10.219  -0.934  1.00  0.00     0.048 C 
HETATM   20  C   UNL     1      42.491 -11.095  -3.100  1.00  0.00     0.007 A 
HETATM   21  C   UNL     1      41.879 -12.087  -3.863  1.00  0.00     0.001 A 
HETATM   22  C   UNL     1      41.479 -13.280  -3.264  1.00  0.00     0.009 A 
ENDBRANCH  15  16
ENDBRANCH  11  15
ENDBRANCH   7   8
ENDBRANCH   4   7
ENDBRANCH   2   3
ENDBRANCH   1   2
BRANCH   1  23
HETATM   23  C   UNL     1      41.245 -12.011   4.628  1.00  0.00     0.222 C 
HETATM   24  N   UNL     1      42.446 -12.538   4.179  1.00  0.00    -0.327 N 
HETATM   25  H   UNL     1      43.133 -11.877   3.837  1.00  0.00     0.169 HD
HETATM   26  O   UNL     1      40.259 -12.664   4.957  1.00  0.00    -0.273 OA
BRANCH  24  27
HETATM   27  C   UNL     1      42.770 -13.909   4.052  1.00  0.00     0.035 A 
HETATM   28  C   UNL     1      42.954 -14.772   5.140  1.00  0.00     0.043 A 
HETATM   29  C   UNL     1      43.251 -16.146   4.971  1.00  0.00    -0.001 A 
HETATM   30  C   UNL     1      43.358 -16.639   3.655  1.00  0.00     0.044 A 
HETATM   31  C   UNL     1      43.436 -17.057   6.038  1.00  0.00    -0.046 A 
HETATM   32  N   UNL     1      43.609 -17.941   3.458  1.00  0.00    -0.346 N 
HETATM   33  C   UNL     1      43.198 -15.778   2.560  1.00  0.00     0.033 A 
HETATM   34  H   UNL     1      43.625 -18.321   2.519  1.00  0.00     0.167 HD
HETATM   35  C   UNL     1      43.788 -18.842   4.431  1.00  0.00     0.083 A 
HETATM   36  C   UNL     1      43.700 -18.404   5.752  1.00  0.00     0.050 A 
HETATM   37  C   UNL     1      42.915 -14.422   2.760  1.00  0.00     0.032 A 
HETATM   38  C   UNL     1      43.340 -16.625   7.480  1.00  0.00     0.049 C 
BRANCH  35  39
HETATM   39  N   UNL     1      43.984 -20.148   4.014  1.00  0.00    -0.269 NA
HETATM   40  C   UNL     1      44.877 -20.984   4.846  1.00  0.00     0.097 C 
HETATM   41  C   UNL     1      44.708 -22.454   4.462  1.00  0.00     0.015 C 
HETATM   42  C   UNL     1      44.955 -22.669   2.972  1.00  0.00     0.002 C 
HETATM   43  C   UNL     1      44.088 -21.729   2.138  1.00  0.00     0.015 C 
HETATM   44  C   UNL     1      44.271 -20.273   2.568  1.00  0.00     0.097 C 
ENDBRANCH  35  39
ENDBRANCH  24  27
ENDBRANCH   1  23
TORSDOF 9
ENDMDL
MODEL 8
REMARK VINA RESULT:      -9.4      3.446      5.292
REMARK  9 active torsions:
REMARK  status: ('A' for Active; 'I' for Inactive)
REMARK    1  A    between atoms: C_4  and  C_5 
REMARK    2  A    between atoms: C_5  and  N_6 
REMARK    3  A    between atoms: C_10  and  C_11 
REMARK    4  A    between atoms: C_11  and  N_12 
REMARK       I    between atoms: N_12  and  C_13 
REMARK    5  A    between atoms: C_13  and  C_14 
REMARK    6  A    between atoms: C_14  and  C_15 
REMARK    7  A    between atoms: C_15  and  C_16 
REMARK       I    between atoms: C_16  and  N_17 
REMARK    8  A    between atoms: N_17  and  C_18 
REMARK    9  A    between atoms: C_24  and  N_25 
ROOT
HETATM    1  C   UNL     1      38.161 -10.668   2.353  1.00  0.00     0.112 C 
ENDROOT
BRANCH   1   2
HETATM    2  C   UNL     1      38.558  -9.359   3.028  1.00  0.00     0.112 C 
BRANCH   2   3
HETATM    3  C   UNL     1      38.290  -9.344   4.515  1.00  0.00     0.218 C 
HETATM    4  N   UNL     1      39.410  -9.423   5.315  1.00  0.00    -0.361 N 
HETATM    5  H   UNL     1      40.314  -9.335   4.865  1.00  0.00     0.162 HD
HETATM    6  O   UNL     1      37.155  -9.242   4.975  1.00  0.00    -0.274 OA
BRANCH   4   7
HETATM    7  C   UNL     1      39.346  -9.122   6.733  1.00  0.00     0.127 C 
BRANCH   7   8
HETATM    8  C   UNL     1      40.363  -9.900   7.595  1.00  0.00     0.006 C 
HETATM    9  C   UNL     1      41.538 -10.502   6.811  1.00  0.00     0.034 C 
HETATM   10  C   UNL     1      41.113 -11.633   5.883  1.00  0.00     0.235 C 
HETATM   11  N   UNL     1      40.440 -12.717   6.701  1.00  0.00    -0.067 N 
HETATM   12  H   UNL     1      41.139 -13.062   7.369  1.00  0.00     0.280 HD
HETATM   13  C   UNL     1      39.255 -12.206   7.477  1.00  0.00     0.235 C 
HETATM   14  C   UNL     1      39.669 -11.036   8.368  1.00  0.00     0.034 C 
BRANCH  11  15
HETATM   15  C   UNL     1      40.053 -13.919   5.855  1.00  0.00     0.273 C 
BRANCH  15  16
HETATM   16  C   UNL     1      40.946 -15.111   6.056  1.00  0.00    -0.032 A 
HETATM   17  C   UNL     1      42.300 -14.944   6.394  1.00  0.00     0.015 A 
HETATM   18  C   UNL     1      43.146 -16.052   6.533  1.00  0.00    -0.061 A 
HETATM   19  C   UNL     1      44.586 -15.881   6.921  1.00  0.00     0.048 C 
HETATM   20  C   UNL     1      42.621 -17.337   6.360  1.00  0.00     0.007 A 
HETATM   21  C   UNL     1      41.278 -17.515   6.035  1.00  0.00     0.001 A 
HETATM   22  C   UNL     1      40.444 -16.409   5.880  1.00  0.00     0.009 A 
ENDBRANCH  15  16
ENDBRANCH  11  15
ENDBRANCH   7   8
ENDBRANCH   4   7
ENDBRANCH   2   3
ENDBRANCH   1   2
BRANCH   1  23
HETATM   23  C   UNL     1      39.312 -11.661   2.391  1.00  0.00     0.222 C 
HETATM   24  N   UNL     1      38.892 -12.978   2.283  1.00  0.00    -0.327 N 
HETATM   25  H   UNL     1      37.891 -13.138   2.290  1.00  0.00     0.169 HD
HETATM   26  O   UNL     1      40.475 -11.293   2.526  1.00  0.00    -0.273 OA
BRANCH  24  27
HETATM   27  C   UNL     1      39.716 -14.127   2.273  1.00  0.00     0.035 A 
HETATM   28  C   UNL     1      41.078 -14.114   2.601  1.00  0.00     0.043 A 
HETATM   29  C   UNL     1      41.864 -15.292   2.605  1.00  0.00    -0.001 A 
HETATM   30  C   UNL     1      41.232 -16.506   2.266  1.00  0.00     0.044 A 
HETATM   31  C   UNL     1      43.239 -15.330   2.938  1.00  0.00    -0.046 A 
HETATM   32  N   UNL     1      41.939 -17.645   2.290  1.00  0.00    -0.346 N 
HETATM   33  C   UNL     1      39.875 -16.525   1.916  1.00  0.00     0.033 A 
HETATM   34  H   UNL     1      41.482 -18.532   2.112  1.00  0.00     0.167 HD
HETATM   35  C   UNL     1      43.238 -17.734   2.600  1.00  0.00     0.083 A 
HETATM   36  C   UNL     1      43.911 -16.560   2.934  1.00  0.00     0.050 A 
HETATM   37  C   UNL     1      39.127 -15.342   1.911  1.00  0.00     0.032 A 
HETATM   38  C   UNL     1      44.002 -14.084   3.313  1.00  0.00     0.049 C 
BRANCH  35  39
HETATM   39  N   UNL     1      43.766 -19.014   2.615  1.00  0.00    -0.269 NA
HETATM   40  C   UNL     1      43.024 -20.048   1.860  1.00  0.00     0.097 C 
HETATM   41  C   UNL     1      43.904 -21.285   1.684  1.00  0.00     0.015 C 
HETATM   42  C   UNL     1      44.398 -21.809   3.029  1.00  0.00     0.002 C 
HETATM   43  C   UNL     1      45.079 -20.699   3.826  1.00  0.00     0.015 C 
HETATM   44  C   UNL     1      44.173 -19.474   3.960  1.00  0.00     0.097 C 
ENDBRANCH  35  39
ENDBRANCH  24  27
ENDBRANCH   1  23
TORSDOF 9
ENDMDL
MODEL 9
REMARK VINA RESULT:      -9.2      5.320     10.521
REMARK  9 active torsions:
REMARK  status: ('A' for Active; 'I' for Inactive)
REMARK    1  A    between atoms: C_4  and  C_5 
REMARK    2  A    between atoms: C_5  and  N_6 
REMARK    3  A    between atoms: C_10  and  C_11 
REMARK    4  A    between atoms: C_11  and  N_12 
REMARK       I    between atoms: N_12  and  C_13 
REMARK    5  A    between atoms: C_13  and  C_14 
REMARK    6  A    between atoms: C_14  and  C_15 
REMARK    7  A    between atoms: C_15  and  C_16 
REMARK       I    between atoms: C_16  and  N_17 
REMARK    8  A    between atoms: N_17  and  C_18 
REMARK    9  A    between atoms: C_24  and  N_25 
ROOT
HETATM    1  C   UNL     1      43.281 -17.156   8.341  1.00  0.00     0.112 C 
ENDROOT
BRANCH   1   2
HETATM    2  C   UNL     1      44.024 -18.434   7.968  1.00  0.00     0.112 C 
BRANCH   2   3
HETATM    3  C   UNL     1      44.671 -18.377   6.604  1.00  0.00     0.218 C 
HETATM    4  N   UNL     1      43.881 -18.809   5.560  1.00  0.00    -0.361 N 
HETATM    5  H   UNL     1      42.902 -18.986   5.755  1.00  0.00     0.162 HD
HETATM    6  O   UNL     1      45.811 -17.950   6.437  1.00  0.00    -0.274 OA
BRANCH   4   7
HETATM    7  C   UNL     1      44.241 -18.541   4.180  1.00  0.00     0.127 C 
BRANCH   7   8
HETATM    8  C   UNL     1      43.258 -19.119   3.141  1.00  0.00     0.006 C 
HETATM    9  C   UNL     1      43.713 -18.976   1.682  1.00  0.00     0.034 C 
HETATM   10  C   UNL     1      43.726 -17.529   1.203  1.00  0.00     0.235 C 
HETATM   11  N   UNL     1      42.337 -16.945   1.362  1.00  0.00    -0.067 N 
HETATM   12  H   UNL     1      41.712 -17.499   0.766  1.00  0.00     0.280 HD
HETATM   13  C   UNL     1      41.834 -17.020   2.779  1.00  0.00     0.235 C 
HETATM   14  C   UNL     1      41.871 -18.464   3.277  1.00  0.00     0.034 C 
BRANCH  11  15
HETATM   15  C   UNL     1      42.250 -15.521   0.835  1.00  0.00     0.273 C 
BRANCH  15  16
HETATM   16  C   UNL     1      40.845 -14.994   0.752  1.00  0.00    -0.032 A 
HETATM   17  C   UNL     1      40.465 -14.124  -0.284  1.00  0.00     0.015 A 
HETATM   18  C   UNL     1      39.169 -13.592  -0.334  1.00  0.00    -0.061 A 
HETATM   19  C   UNL     1      38.750 -12.685  -1.454  1.00  0.00     0.048 C 
HETATM   20  C   UNL     1      38.242 -13.961   0.646  1.00  0.00     0.007 A 
HETATM   21  C   UNL     1      38.605 -14.831   1.672  1.00  0.00     0.001 A 
HETATM   22  C   UNL     1      39.900 -15.344   1.728  1.00  0.00     0.009 A 
ENDBRANCH  15  16
ENDBRANCH  11  15
ENDBRANCH   7   8
ENDBRANCH   4   7
ENDBRANCH   2   3
ENDBRANCH   1   2
BRANCH   1  23
HETATM   23  C   UNL     1      42.606 -16.552   7.119  1.00  0.00     0.222 C 
HETATM   24  N   UNL     1      43.148 -15.330   6.753  1.00  0.00    -0.327 N 
HETATM   25  H   UNL     1      43.846 -14.937   7.375  1.00  0.00     0.169 HD
HETATM   26  O   UNL     1      41.668 -17.111   6.560  1.00  0.00    -0.273 OA
BRANCH  24  27
HETATM   27  C   UNL     1      42.752 -14.525   5.660  1.00  0.00     0.035 A 
HETATM   28  C   UNL     1      41.525 -13.853   5.589  1.00  0.00     0.043 A 
HETATM   29  C   UNL     1      41.176 -13.034   4.489  1.00  0.00    -0.001 A 
HETATM   30  C   UNL     1      42.111 -12.904   3.442  1.00  0.00     0.044 A 
HETATM   31  C   UNL     1      39.953 -12.329   4.378  1.00  0.00    -0.046 A 
HETATM   32  N   UNL     1      41.825 -12.112   2.398  1.00  0.00    -0.346 N 
HETATM   33  C   UNL     1      43.332 -13.590   3.494  1.00  0.00     0.033 A 
HETATM   34  H   UNL     1      42.514 -11.959   1.670  1.00  0.00     0.167 HD
HETATM   35  C   UNL     1      40.688 -11.423   2.248  1.00  0.00     0.083 A 
HETATM   36  C   UNL     1      39.726 -11.524   3.252  1.00  0.00     0.050 A 
HETATM   37  C   UNL     1      43.644 -14.401   4.591  1.00  0.00     0.032 A 
HETATM   38  C   UNL     1      38.891 -12.404   5.445  1.00  0.00     0.049 C 
BRANCH  35  39
HETATM   39  N   UNL     1      40.614 -10.623   1.120  1.00  0.00    -0.269 NA
HETATM   40  C   UNL     1      41.889 -10.331   0.428  1.00  0.00     0.097 C 
HETATM   41  C   UNL     1      41.600  -9.753  -0.956  1.00  0.00     0.015 C 
HETATM   42  C   UNL     1      40.706  -8.519  -0.866  1.00  0.00     0.002 C 
HETATM   43  C   UNL     1      39.441  -8.823  -0.069  1.00  0.00     0.015 C 
HETATM   44  C   UNL     1      39.774  -9.419   1.300  1.00  0.00     0.097 C 
ENDBRANCH  35  39
ENDBRANCH  24  27
ENDBRANCH   1  23
TORSDOF 9
ENDMDL
MODEL 10
REMARK VINA RESULT:      -9.2      5.422      7.623
REMARK  9 active torsions:
REMARK  status: ('A' for Active; 'I' for Inactive)
REMARK    1  A    between atoms: C_4  and  C_5 
REMARK    2  A    between atoms: C_5  and  N_6 
REMARK    3  A    between atoms: C_10  and  C_11 
REMARK    4  A    between atoms: C_11  and  N_12 
REMARK       I    between atoms: N_12  and  C_13 
REMARK    5  A    between atoms: C_13  and  C_14 
REMARK    6  A    between atoms: C_14  and  C_15 
REMARK    7  A    between atoms: C_15  and  C_16 
REMARK       I    between atoms: C_16  and  N_17 
REMARK    8  A    between atoms: N_17  and  C_18 
REMARK    9  A    between atoms: C_24  and  N_25 
ROOT
HETATM    1  C   UNL     1      39.685 -13.550  -2.637  1.00  0.00     0.112 C 
ENDROOT
BRANCH   1   2
HETATM    2  C   UNL     1      40.006 -12.117  -3.047  1.00  0.00     0.112 C 
BRANCH   2   3
HETATM    3  C   UNL     1      39.285 -11.079  -2.220  1.00  0.00     0.218 C 
HETATM    4  N   UNL     1      37.936 -11.304  -2.040  1.00  0.00    -0.361 N 
HETATM    5  H   UNL     1      37.567 -12.200  -2.337  1.00  0.00     0.162 HD
HETATM    6  O   UNL     1      39.867 -10.118  -1.722  1.00  0.00    -0.274 OA
BRANCH   4   7
HETATM    7  C   UNL     1      37.177 -10.576  -1.040  1.00  0.00     0.127 C 
BRANCH   7   8
HETATM    8  C   UNL     1      36.456 -11.471  -0.011  1.00  0.00     0.006 C 
HETATM    9  C   UNL     1      35.772 -10.708   1.132  1.00  0.00     0.034 C 
HETATM   10  C   UNL     1      36.765 -10.033   2.072  1.00  0.00     0.235 C 
HETATM   11  N   UNL     1      37.693 -11.085   2.646  1.00  0.00    -0.067 N 
HETATM   12  H   UNL     1      37.107 -11.741   3.176  1.00  0.00     0.280 HD
HETATM   13  C   UNL     1      38.426 -11.856   1.580  1.00  0.00     0.235 C 
HETATM   14  C   UNL     1      37.433 -12.488   0.607  1.00  0.00     0.034 C 
BRANCH  11  15
HETATM   15  C   UNL     1      38.669 -10.499   3.655  1.00  0.00     0.273 C 
BRANCH  15  16
HETATM   16  C   UNL     1      39.518 -11.532   4.342  1.00  0.00    -0.032 A 
HETATM   17  C   UNL     1      40.773 -11.890   3.822  1.00  0.00     0.015 A 
HETATM   18  C   UNL     1      41.544 -12.889   4.433  1.00  0.00    -0.061 A 
HETATM   19  C   UNL     1      42.898 -13.255   3.898  1.00  0.00     0.048 C 
HETATM   20  C   UNL     1      41.062 -13.510   5.590  1.00  0.00     0.007 A 
HETATM   21  C   UNL     1      39.824 -13.155   6.120  1.00  0.00     0.001 A 
HETATM   22  C   UNL     1      39.053 -12.174   5.499  1.00  0.00     0.009 A 
ENDBRANCH  15  16
ENDBRANCH  11  15
ENDBRANCH   7   8
ENDBRANCH   4   7
ENDBRANCH   2   3
ENDBRANCH   1   2
BRANCH   1  23
HETATM   23  C   UNL     1      40.484 -13.947  -1.404  1.00  0.00     0.222 C 
HETATM   24  N   UNL     1      39.803 -14.833  -0.583  1.00  0.00    -0.327 N 
HETATM   25  H   UNL     1      38.842 -15.038  -0.833  1.00  0.00     0.169 HD
HETATM   26  O   UNL     1      41.601 -13.490  -1.188  1.00  0.00    -0.273 OA
BRANCH  24  27
HETATM   27  C   UNL     1      40.276 -15.397   0.624  1.00  0.00     0.035 A 
HETATM   28  C   UNL     1      41.446 -16.163   0.721  1.00  0.00     0.043 A 
HETATM   29  C   UNL     1      41.902 -16.689   1.954  1.00  0.00    -0.001 A 
HETATM   30  C   UNL     1      41.139 -16.417   3.108  1.00  0.00     0.044 A 
HETATM   31  C   UNL     1      43.080 -17.459   2.104  1.00  0.00    -0.046 A 
HETATM   32  N   UNL     1      41.558 -16.874   4.297  1.00  0.00    -0.346 N 
HETATM   33  C   UNL     1      39.957 -15.669   3.017  1.00  0.00     0.033 A 
HETATM   34  H   UNL     1      41.055 -16.631   5.143  1.00  0.00     0.167 HD
HETATM   35  C   UNL     1      42.664 -17.602   4.492  1.00  0.00     0.083 A 
HETATM   36  C   UNL     1      43.449 -17.906   3.381  1.00  0.00     0.050 A 
HETATM   37  C   UNL     1      39.526 -15.172   1.781  1.00  0.00     0.032 A 
HETATM   38  C   UNL     1      43.961 -17.802   0.929  1.00  0.00     0.049 C 
BRANCH  35  39
HETATM   39  N   UNL     1      42.945 -17.929   5.808  1.00  0.00    -0.269 NA
HETATM   40  C   UNL     1      43.342 -16.816   6.699  1.00  0.00     0.097 C 
HETATM   41  C   UNL     1      43.269 -17.275   8.155  1.00  0.00     0.015 C 
HETATM   42  C   UNL     1      44.121 -18.520   8.386  1.00  0.00     0.002 C 
HETATM   43  C   UNL     1      43.755 -19.620   7.393  1.00  0.00     0.015 C 
HETATM   44  C   UNL     1      43.820 -19.113   5.952  1.00  0.00     0.097 C 
ENDBRANCH  35  39
ENDBRANCH  24  27
ENDBRANCH   1  23
TORSDOF 9
ENDMDL
