MODEL 1
REMARK VINA RESULT:      -9.3      0.000      0.000
REMARK  6 active torsions:
REMARK  status: ('A' for Active; 'I' for Inactive)
REMARK    1  A    between atoms: C_4  and  C_5 
REMARK    2  A    between atoms: C_5  and  N_6 
REMARK    3  A    between atoms: C_10  and  C_11 
REMARK    4  A    between atoms: C_11  and  C_12 
REMARK    5  A    between atoms: N_21  and  C_22 
REMARK    6  A    between atoms: C_22  and  C_23 
ROOT
HETATM    1  C   UNL     1      40.012 -13.732   2.048  1.00  0.00     0.149 C 
HETATM    2  N   UNL     1      41.305 -13.752   1.381  1.00  0.00    -0.220 NA
HETATM    3  C   UNL     1      41.175 -13.455   0.039  1.00  0.00     0.304 C 
HETATM    4  O   UNL     1      42.141 -13.273  -0.680  1.00  0.00    -0.253 OA
HETATM    5  N   UNL     1      39.862 -13.455  -0.297  1.00  0.00    -0.270 N 
HETATM    6  C   UNL     1      39.097 -13.712   0.805  1.00  0.00     0.257 C 
HETATM    7  O   UNL     1      37.892 -13.921   0.823  1.00  0.00    -0.270 OA
HETATM    8  H   UNL     1      42.061 -13.220   1.810  1.00  0.00     0.134 HD
ENDROOT
BRANCH   1   9
HETATM    9  C   UNL     1      39.749 -14.998   2.928  1.00  0.00     0.028 C 
HETATM   10  C   UNL     1      40.564 -15.070   4.233  1.00  0.00     0.035 C 
HETATM   11  C   UNL     1      42.035 -15.383   4.012  1.00  0.00     0.235 C 
HETATM   12  N   UNL     1      42.174 -16.692   3.268  1.00  0.00    -0.067 N 
HETATM   13  H   UNL     1      41.818 -17.420   3.897  1.00  0.00     0.280 HD
HETATM   14  C   UNL     1      41.384 -16.756   1.983  1.00  0.00     0.235 C 
HETATM   15  C   UNL     1      39.933 -16.347   2.199  1.00  0.00     0.035 C 
BRANCH  12  16
HETATM   16  C   UNL     1      43.628 -17.060   2.983  1.00  0.00     0.274 C 
BRANCH  16  17
HETATM   17  C   UNL     1      44.002 -18.475   3.347  1.00  0.00    -0.026 A 
HETATM   18  C   UNL     1      43.936 -19.472   2.352  1.00  0.00     0.016 A 
HETATM   19  C   UNL     1      44.222 -20.810   2.647  1.00  0.00    -0.061 A 
HETATM   20  C   UNL     1      44.182 -21.866   1.581  1.00  0.00     0.048 C 
HETATM   21  C   UNL     1      44.606 -21.150   3.945  1.00  0.00     0.007 A 
HETATM   22  C   UNL     1      44.689 -20.174   4.938  1.00  0.00     0.008 A 
HETATM   23  C   UNL     1      44.388 -18.833   4.658  1.00  0.00    -0.054 A 
HETATM   24  C   UNL     1      44.528 -17.825   5.770  1.00  0.00     0.049 C 
ENDBRANCH  16  17
ENDBRANCH  12  16
ENDBRANCH   1   9
BRANCH   1  25
HETATM   25  C   UNL     1      39.909 -12.443   2.865  1.00  0.00     0.067 A 
HETATM   26  N   UNL     1      41.108 -11.868   3.190  1.00  0.00    -0.263 NA
HETATM   27  C   UNL     1      41.077 -10.730   3.922  1.00  0.00     0.117 A 
HETATM   28  C   UNL     1      39.912 -10.142   4.375  1.00  0.00     0.019 A 
HETATM   29  C   UNL     1      38.703 -10.749   4.059  1.00  0.00     0.003 A 
HETATM   30  C   UNL     1      38.695 -11.917   3.299  1.00  0.00     0.030 A 
ENDBRANCH   1  25
BRANCH   5  31
HETATM   31  C   UNL     1      39.368 -13.236  -1.647  1.00  0.00     0.168 C 
BRANCH  31  32
HETATM   32  C   UNL     1      38.901 -14.518  -2.341  1.00  0.00     0.140 C 
HETATM   33  O   UNL     1      37.617 -14.332  -2.965  1.00  0.00    -0.384 OA
HETATM   34  C   UNL     1      37.569 -15.160  -4.139  1.00  0.00     0.168 C 
HETATM   35  C   UNL     1      38.907 -15.867  -4.251  1.00  0.00     0.029 C 
HETATM   36  C   UNL     1      39.823 -14.964  -3.462  1.00  0.00     0.036 C 
ENDBRANCH  31  32
ENDBRANCH   5  31
TORSDOF 6
ENDMDL
MODEL 2
REMARK VINA RESULT:      -9.0      0.859      1.047
REMARK  6 active torsions:
REMARK  status: ('A' for Active; 'I' for Inactive)
REMARK    1  A    between atoms: C_4  and  C_5 
REMARK    2  A    between atoms: C_5  and  N_6 
REMARK    3  A    between atoms: C_10  and  C_11 
REMARK    4  A    between atoms: C_11  and  C_12 
REMARK    5  A    between atoms: N_21  and  C_22 
REMARK    6  A    between atoms: C_22  and  C_23 
ROOT
HETATM    1  C   UNL     1      40.220 -13.478   1.871  1.00  0.00     0.149 C 
HETATM    2  N   UNL     1      41.609 -13.413   1.442  1.00  0.00    -0.220 NA
HETATM    3  C   UNL     1      41.709 -12.899   0.166  1.00  0.00     0.304 C 
HETATM    4  O   UNL     1      42.783 -12.620  -0.337  1.00  0.00    -0.253 OA
HETATM    5  N   UNL     1      40.474 -12.820  -0.387  1.00  0.00    -0.270 N 
HETATM    6  C   UNL     1      39.533 -13.239   0.510  1.00  0.00     0.257 C 
HETATM    7  O   UNL     1      38.345 -13.425   0.285  1.00  0.00    -0.270 OA
HETATM    8  H   UNL     1      42.273 -12.973   2.076  1.00  0.00     0.134 HD
ENDROOT
BRANCH   1   9
HETATM    9  C   UNL     1      39.820 -14.866   2.473  1.00  0.00     0.028 C 
HETATM   10  C   UNL     1      40.405 -15.169   3.866  1.00  0.00     0.035 C 
HETATM   11  C   UNL     1      41.895 -15.472   3.844  1.00  0.00     0.235 C 
HETATM   12  N   UNL     1      42.166 -16.644   2.927  1.00  0.00    -0.067 N 
HETATM   13  H   UNL     1      41.714 -17.458   3.359  1.00  0.00     0.280 HD
HETATM   14  C   UNL     1      41.603 -16.479   1.536  1.00  0.00     0.235 C 
HETATM   15  C   UNL     1      40.133 -16.080   1.572  1.00  0.00     0.035 C 
BRANCH  12  16
HETATM   16  C   UNL     1      43.649 -16.991   2.832  1.00  0.00     0.274 C 
BRANCH  16  17
HETATM   17  C   UNL     1      43.995 -18.396   3.258  1.00  0.00    -0.026 A 
HETATM   18  C   UNL     1      43.967 -19.424   2.293  1.00  0.00     0.016 A 
HETATM   19  C   UNL     1      44.229 -20.753   2.644  1.00  0.00    -0.061 A 
HETATM   20  C   UNL     1      44.231 -21.843   1.611  1.00  0.00     0.048 C 
HETATM   21  C   UNL     1      44.551 -21.053   3.968  1.00  0.00     0.007 A 
HETATM   22  C   UNL     1      44.597 -20.047   4.932  1.00  0.00     0.008 A 
HETATM   23  C   UNL     1      44.319 -18.714   4.596  1.00  0.00    -0.054 A 
HETATM   24  C   UNL     1      44.415 -17.671   5.680  1.00  0.00     0.049 C 
ENDBRANCH  16  17
ENDBRANCH  12  16
ENDBRANCH   1   9
BRANCH   1  25
HETATM   25  C   UNL     1      39.964 -12.338   2.859  1.00  0.00     0.067 A 
HETATM   26  N   UNL     1      41.089 -11.794   3.417  1.00  0.00    -0.263 NA
HETATM   27  C   UNL     1      40.922 -10.788   4.306  1.00  0.00     0.117 A 
HETATM   28  C   UNL     1      39.687 -10.307   4.695  1.00  0.00     0.019 A 
HETATM   29  C   UNL     1      38.552 -10.884   4.140  1.00  0.00     0.003 A 
HETATM   30  C   UNL     1      38.685 -11.916   3.213  1.00  0.00     0.030 A 
ENDBRANCH   1  25
BRANCH   5  31
HETATM   31  C   UNL     1      40.219 -12.374  -1.747  1.00  0.00     0.168 C 
BRANCH  31  32
HETATM   32  C   UNL     1      40.331 -13.493  -2.786  1.00  0.00     0.140 C 
HETATM   33  O   UNL     1      41.132 -14.582  -2.292  1.00  0.00    -0.384 OA
HETATM   34  C   UNL     1      40.625 -15.801  -2.862  1.00  0.00     0.168 C 
HETATM   35  C   UNL     1      39.433 -15.436  -3.728  1.00  0.00     0.029 C 
HETATM   36  C   UNL     1      38.993 -14.117  -3.142  1.00  0.00     0.036 C 
ENDBRANCH  31  32
ENDBRANCH   5  31
TORSDOF 6
ENDMDL
MODEL 3
REMARK VINA RESULT:      -8.7      1.340      1.730
REMARK  6 active torsions:
REMARK  status: ('A' for Active; 'I' for Inactive)
REMARK    1  A    between atoms: C_4  and  C_5 
REMARK    2  A    between atoms: C_5  and  N_6 
REMARK    3  A    between atoms: C_10  and  C_11 
REMARK    4  A    between atoms: C_11  and  C_12 
REMARK    5  A    between atoms: N_21  and  C_22 
REMARK    6  A    between atoms: C_22  and  C_23 
ROOT
HETATM    1  C   UNL     1      39.880 -13.938   1.611  1.00  0.00     0.149 C 
HETATM    2  N   UNL     1      41.135 -14.049   0.884  1.00  0.00    -0.220 NA
HETATM    3  C   UNL     1      40.933 -13.920  -0.475  1.00  0.00     0.304 C 
HETATM    4  O   UNL     1      41.858 -13.836  -1.263  1.00  0.00    -0.253 OA
HETATM    5  N   UNL     1      39.603 -13.955  -0.738  1.00  0.00    -0.270 N 
HETATM    6  C   UNL     1      38.899 -14.067   0.427  1.00  0.00     0.257 C 
HETATM    7  O   UNL     1      37.697 -14.264   0.535  1.00  0.00    -0.270 OA
HETATM    8  H   UNL     1      41.912 -13.473   1.202  1.00  0.00     0.134 HD
ENDROOT
BRANCH   1   9
HETATM    9  C   UNL     1      39.665 -15.083   2.656  1.00  0.00     0.028 C 
HETATM   10  C   UNL     1      40.513 -14.970   3.936  1.00  0.00     0.035 C 
HETATM   11  C   UNL     1      41.985 -15.284   3.717  1.00  0.00     0.235 C 
HETATM   12  N   UNL     1      42.133 -16.676   3.145  1.00  0.00    -0.067 N 
HETATM   13  H   UNL     1      41.808 -17.322   3.873  1.00  0.00     0.280 HD
HETATM   14  C   UNL     1      41.312 -16.920   1.902  1.00  0.00     0.235 C 
HETATM   15  C   UNL     1      39.859 -16.512   2.103  1.00  0.00     0.035 C 
BRANCH  12  16
HETATM   16  C   UNL     1      43.586 -17.053   2.871  1.00  0.00     0.274 C 
BRANCH  16  17
HETATM   17  C   UNL     1      43.960 -18.456   3.278  1.00  0.00    -0.026 A 
HETATM   18  C   UNL     1      43.955 -19.471   2.299  1.00  0.00     0.016 A 
HETATM   19  C   UNL     1      44.244 -20.799   2.631  1.00  0.00    -0.061 A 
HETATM   20  C   UNL     1      44.269 -21.874   1.583  1.00  0.00     0.048 C 
HETATM   21  C   UNL     1      44.569 -21.111   3.952  1.00  0.00     0.007 A 
HETATM   22  C   UNL     1      44.592 -20.118   4.930  1.00  0.00     0.008 A 
HETATM   23  C   UNL     1      44.287 -18.786   4.612  1.00  0.00    -0.054 A 
HETATM   24  C   UNL     1      44.360 -17.757   5.711  1.00  0.00     0.049 C 
ENDBRANCH  16  17
ENDBRANCH  12  16
ENDBRANCH   1   9
BRANCH   1  25
HETATM   25  C   UNL     1      39.821 -12.557   2.266  1.00  0.00     0.067 A 
HETATM   26  N   UNL     1      38.622 -12.244   2.848  1.00  0.00    -0.263 NA
HETATM   27  C   UNL     1      38.509 -11.030   3.435  1.00  0.00     0.117 A 
HETATM   28  C   UNL     1      39.522 -10.091   3.452  1.00  0.00     0.019 A 
HETATM   29  C   UNL     1      40.726 -10.411   2.836  1.00  0.00     0.003 A 
HETATM   30  C   UNL     1      40.882 -11.655   2.230  1.00  0.00     0.030 A 
ENDBRANCH   1  25
BRANCH   5  31
HETATM   31  C   UNL     1      39.037 -13.902  -2.076  1.00  0.00     0.168 C 
BRANCH  31  32
HETATM   32  C   UNL     1      38.740 -12.479  -2.557  1.00  0.00     0.140 C 
HETATM   33  O   UNL     1      39.873 -11.917  -3.247  1.00  0.00    -0.384 OA
HETATM   34  C   UNL     1      39.378 -11.030  -4.264  1.00  0.00     0.168 C 
HETATM   35  C   UNL     1      37.862 -11.075  -4.208  1.00  0.00     0.029 C 
HETATM   36  C   UNL     1      37.597 -12.408  -3.553  1.00  0.00     0.036 C 
ENDBRANCH  31  32
ENDBRANCH   5  31
TORSDOF 6
ENDMDL
MODEL 4
REMARK VINA RESULT:      -8.6      2.311      7.983
REMARK  6 active torsions:
REMARK  status: ('A' for Active; 'I' for Inactive)
REMARK    1  A    between atoms: C_4  and  C_5 
REMARK    2  A    between atoms: C_5  and  N_6 
REMARK    3  A    between atoms: C_10  and  C_11 
REMARK    4  A    between atoms: C_11  and  C_12 
REMARK    5  A    between atoms: N_21  and  C_22 
REMARK    6  A    between atoms: C_22  and  C_23 
ROOT
HETATM    1  C   UNL     1      42.264 -16.684   3.462  1.00  0.00     0.149 C 
HETATM    2  N   UNL     1      43.049 -15.673   2.771  1.00  0.00    -0.220 NA
HETATM    3  C   UNL     1      43.282 -14.584   3.586  1.00  0.00     0.304 C 
HETATM    4  O   UNL     1      44.040 -13.685   3.265  1.00  0.00    -0.253 OA
HETATM    5  N   UNL     1      42.521 -14.686   4.703  1.00  0.00    -0.270 N 
HETATM    6  C   UNL     1      41.803 -15.848   4.675  1.00  0.00     0.257 C 
HETATM    7  O   UNL     1      40.920 -16.177   5.455  1.00  0.00    -0.270 OA
HETATM    8  H   UNL     1      43.902 -15.981   2.306  1.00  0.00     0.134 HD
ENDROOT
BRANCH   1   9
HETATM    9  C   UNL     1      41.043 -17.198   2.629  1.00  0.00     0.028 C 
HETATM   10  C   UNL     1      41.379 -17.687   1.208  1.00  0.00     0.035 C 
HETATM   11  C   UNL     1      41.715 -16.560   0.243  1.00  0.00     0.235 C 
HETATM   12  N   UNL     1      40.562 -15.584   0.173  1.00  0.00    -0.067 N 
HETATM   13  H   UNL     1      39.778 -16.096  -0.247  1.00  0.00     0.280 HD
HETATM   14  C   UNL     1      40.115 -15.063   1.517  1.00  0.00     0.235 C 
HETATM   15  C   UNL     1      39.874 -16.197   2.504  1.00  0.00     0.035 C 
BRANCH  12  16
HETATM   16  C   UNL     1      40.838 -14.407  -0.758  1.00  0.00     0.274 C 
BRANCH  16  17
HETATM   17  C   UNL     1      39.685 -14.027  -1.652  1.00  0.00    -0.026 A 
HETATM   18  C   UNL     1      38.874 -12.933  -1.286  1.00  0.00     0.016 A 
HETATM   19  C   UNL     1      37.760 -12.570  -2.051  1.00  0.00    -0.061 A 
HETATM   20  C   UNL     1      36.915 -11.386  -1.678  1.00  0.00     0.048 C 
HETATM   21  C   UNL     1      37.472 -13.289  -3.212  1.00  0.00     0.007 A 
HETATM   22  C   UNL     1      38.272 -14.364  -3.596  1.00  0.00     0.008 A 
HETATM   23  C   UNL     1      39.380 -14.749  -2.827  1.00  0.00    -0.054 A 
HETATM   24  C   UNL     1      40.220 -15.901  -3.316  1.00  0.00     0.049 C 
ENDBRANCH  16  17
ENDBRANCH  12  16
ENDBRANCH   1   9
BRANCH   1  25
HETATM   25  C   UNL     1      43.195 -17.828   3.866  1.00  0.00     0.067 A 
HETATM   26  N   UNL     1      43.791 -17.684   5.089  1.00  0.00    -0.263 NA
HETATM   27  C   UNL     1      44.633 -18.662   5.495  1.00  0.00     0.117 A 
HETATM   28  C   UNL     1      44.939 -19.773   4.733  1.00  0.00     0.019 A 
HETATM   29  C   UNL     1      44.346 -19.896   3.482  1.00  0.00     0.003 A 
HETATM   30  C   UNL     1      43.466 -18.913   3.035  1.00  0.00     0.030 A 
ENDBRANCH   1  25
BRANCH   5  31
HETATM   31  C   UNL     1      42.477 -13.680   5.751  1.00  0.00     0.168 C 
BRANCH  31  32
HETATM   32  C   UNL     1      41.378 -12.634   5.546  1.00  0.00     0.140 C 
HETATM   33  O   UNL     1      41.044 -12.499   4.152  1.00  0.00    -0.384 OA
HETATM   34  C   UNL     1      39.647 -12.169   4.059  1.00  0.00     0.168 C 
HETATM   35  C   UNL     1      39.096 -12.129   5.472  1.00  0.00     0.029 C 
HETATM   36  C   UNL     1      40.071 -12.994   6.231  1.00  0.00     0.036 C 
ENDBRANCH  31  32
ENDBRANCH   5  31
TORSDOF 6
ENDMDL
MODEL 5
REMARK VINA RESULT:      -8.5      1.950      3.138
REMARK  6 active torsions:
REMARK  status: ('A' for Active; 'I' for Inactive)
REMARK    1  A    between atoms: C_4  and  C_5 
REMARK    2  A    between atoms: C_5  and  N_6 
REMARK    3  A    between atoms: C_10  and  C_11 
REMARK    4  A    between atoms: C_11  and  C_12 
REMARK    5  A    between atoms: N_21  and  C_22 
REMARK    6  A    between atoms: C_22  and  C_23 
ROOT
HETATM    1  C   UNL     1      40.743 -13.735   0.241  1.00  0.00     0.149 C 
HETATM    2  N   UNL     1      41.384 -14.747  -0.585  1.00  0.00    -0.220 NA
HETATM    3  C   UNL     1      40.622 -15.030  -1.700  1.00  0.00     0.304 C 
HETATM    4  O   UNL     1      41.033 -15.738  -2.602  1.00  0.00    -0.253 OA
HETATM    5  N   UNL     1      39.405 -14.447  -1.575  1.00  0.00    -0.270 N 
HETATM    6  C   UNL     1      39.343 -13.741  -0.407  1.00  0.00     0.257 C 
HETATM    7  O   UNL     1      38.348 -13.217   0.075  1.00  0.00    -0.270 OA
HETATM    8  H   UNL     1      42.362 -14.601  -0.827  1.00  0.00     0.134 HD
ENDROOT
BRANCH   1   9
HETATM    9  C   UNL     1      40.670 -14.125   1.756  1.00  0.00     0.028 C 
HETATM   10  C   UNL     1      42.031 -14.250   2.466  1.00  0.00     0.035 C 
HETATM   11  C   UNL     1      42.815 -15.489   2.061  1.00  0.00     0.235 C 
HETATM   12  N   UNL     1      41.994 -16.728   2.340  1.00  0.00    -0.067 N 
HETATM   13  H   UNL     1      41.886 -16.777   3.360  1.00  0.00     0.280 HD
HETATM   14  C   UNL     1      40.616 -16.704   1.724  1.00  0.00     0.235 C 
HETATM   15  C   UNL     1      39.877 -15.415   2.057  1.00  0.00     0.035 C 
BRANCH  12  16
HETATM   16  C   UNL     1      42.706 -18.014   1.932  1.00  0.00     0.274 C 
BRANCH  16  17
HETATM   17  C   UNL     1      43.477 -18.686   3.041  1.00  0.00    -0.026 A 
HETATM   18  C   UNL     1      43.766 -17.950   4.209  1.00  0.00     0.016 A 
HETATM   19  C   UNL     1      44.522 -18.507   5.247  1.00  0.00    -0.061 A 
HETATM   20  C   UNL     1      44.803 -17.734   6.504  1.00  0.00     0.048 C 
HETATM   21  C   UNL     1      44.969 -19.823   5.128  1.00  0.00     0.007 A 
HETATM   22  C   UNL     1      44.681 -20.569   3.986  1.00  0.00     0.008 A 
HETATM   23  C   UNL     1      43.939 -20.016   2.932  1.00  0.00    -0.054 A 
HETATM   24  C   UNL     1      43.637 -20.887   1.739  1.00  0.00     0.049 C 
ENDBRANCH  16  17
ENDBRANCH  12  16
ENDBRANCH   1   9
BRANCH   1  25
HETATM   25  C   UNL     1      41.473 -12.407   0.034  1.00  0.00     0.067 A 
HETATM   26  N   UNL     1      41.024 -11.374   0.811  1.00  0.00    -0.263 NA
HETATM   27  C   UNL     1      41.628 -10.171   0.662  1.00  0.00     0.117 A 
HETATM   28  C   UNL     1      42.644  -9.931  -0.242  1.00  0.00     0.019 A 
HETATM   29  C   UNL     1      43.073 -10.983  -1.043  1.00  0.00     0.003 A 
HETATM   30  C   UNL     1      42.482 -12.237  -0.911  1.00  0.00     0.030 A 
ENDBRANCH   1  25
BRANCH   5  31
HETATM   31  C   UNL     1      38.332 -14.588  -2.545  1.00  0.00     0.168 C 
BRANCH  31  32
HETATM   32  C   UNL     1      38.151 -13.357  -3.438  1.00  0.00     0.140 C 
HETATM   33  O   UNL     1      37.133 -12.483  -2.917  1.00  0.00    -0.384 OA
HETATM   34  C   UNL     1      37.492 -11.132  -3.254  1.00  0.00     0.168 C 
HETATM   35  C   UNL     1      38.815 -11.185  -3.997  1.00  0.00     0.029 C 
HETATM   36  C   UNL     1      39.399 -12.497  -3.533  1.00  0.00     0.036 C 
ENDBRANCH  31  32
ENDBRANCH   5  31
TORSDOF 6
ENDMDL
MODEL 6
REMARK VINA RESULT:      -8.4      2.571      8.027
REMARK  6 active torsions:
REMARK  status: ('A' for Active; 'I' for Inactive)
REMARK    1  A    between atoms: C_4  and  C_5 
REMARK    2  A    between atoms: C_5  and  N_6 
REMARK    3  A    between atoms: C_10  and  C_11 
REMARK    4  A    between atoms: C_11  and  C_12 
REMARK    5  A    between atoms: N_21  and  C_22 
REMARK    6  A    between atoms: C_22  and  C_23 
ROOT
HETATM    1  C   UNL     1      42.410 -16.921   2.881  1.00  0.00     0.149 C 
HETATM    2  N   UNL     1      43.251 -15.818   2.439  1.00  0.00    -0.220 NA
HETATM    3  C   UNL     1      43.364 -14.857   3.423  1.00  0.00     0.304 C 
HETATM    4  O   UNL     1      44.135 -13.919   3.325  1.00  0.00    -0.253 OA
HETATM    5  N   UNL     1      42.480 -15.122   4.416  1.00  0.00    -0.270 N 
HETATM    6  C   UNL     1      41.794 -16.269   4.137  1.00  0.00     0.257 C 
HETATM    7  O   UNL     1      40.833 -16.710   4.751  1.00  0.00    -0.270 OA
HETATM    8  H   UNL     1      44.158 -16.053   2.039  1.00  0.00     0.134 HD
ENDROOT
BRANCH   1   9
HETATM    9  C   UNL     1      41.306 -17.314   1.844  1.00  0.00     0.028 C 
HETATM   10  C   UNL     1      41.615 -16.935   0.383  1.00  0.00     0.035 C 
HETATM   11  C   UNL     1      41.511 -15.443   0.109  1.00  0.00     0.235 C 
HETATM   12  N   UNL     1      40.125 -14.952   0.467  1.00  0.00    -0.067 N 
HETATM   13  H   UNL     1      39.480 -15.409  -0.187  1.00  0.00     0.280 HD
HETATM   14  C   UNL     1      39.693 -15.300   1.870  1.00  0.00     0.235 C 
HETATM   15  C   UNL     1      39.893 -16.780   2.166  1.00  0.00     0.035 C 
BRANCH  12  16
HETATM   16  C   UNL     1      39.953 -13.452   0.243  1.00  0.00     0.274 C 
BRANCH  16  17
HETATM   17  C   UNL     1      40.730 -12.896  -0.923  1.00  0.00    -0.026 A 
HETATM   18  C   UNL     1      41.783 -11.993  -0.669  1.00  0.00     0.016 A 
HETATM   19  C   UNL     1      42.503 -11.406  -1.716  1.00  0.00    -0.061 A 
HETATM   20  C   UNL     1      43.644 -10.470  -1.444  1.00  0.00     0.048 C 
HETATM   21  C   UNL     1      42.186 -11.750  -3.031  1.00  0.00     0.007 A 
HETATM   22  C   UNL     1      41.157 -12.651  -3.299  1.00  0.00     0.008 A 
HETATM   23  C   UNL     1      40.417 -13.231  -2.259  1.00  0.00    -0.054 A 
HETATM   24  C   UNL     1      39.338 -14.222  -2.618  1.00  0.00     0.049 C 
ENDBRANCH  16  17
ENDBRANCH  12  16
ENDBRANCH   1   9
BRANCH   1  25
HETATM   25  C   UNL     1      43.311 -18.108   3.225  1.00  0.00     0.067 A 
HETATM   26  N   UNL     1      43.792 -18.116   4.507  1.00  0.00    -0.263 NA
HETATM   27  C   UNL     1      44.602 -19.139   4.864  1.00  0.00     0.117 A 
HETATM   28  C   UNL     1      44.986 -20.149   4.003  1.00  0.00     0.019 A 
HETATM   29  C   UNL     1      44.510 -20.116   2.698  1.00  0.00     0.003 A 
HETATM   30  C   UNL     1      43.666 -19.083   2.297  1.00  0.00     0.030 A 
ENDBRANCH   1  25
BRANCH   5  31
HETATM   31  C   UNL     1      42.292 -14.277   5.584  1.00  0.00     0.168 C 
BRANCH  31  32
HETATM   32  C   UNL     1      41.183 -13.235   5.411  1.00  0.00     0.140 C 
HETATM   33  O   UNL     1      39.947 -13.693   5.990  1.00  0.00    -0.384 OA
HETATM   34  C   UNL     1      39.236 -12.545   6.484  1.00  0.00     0.168 C 
HETATM   35  C   UNL     1      40.099 -11.326   6.215  1.00  0.00     0.029 C 
HETATM   36  C   UNL     1      41.482 -11.920   6.108  1.00  0.00     0.036 C 
ENDBRANCH  31  32
ENDBRANCH   5  31
TORSDOF 6
ENDMDL
MODEL 7
REMARK VINA RESULT:      -8.3      2.896      8.530
REMARK  6 active torsions:
REMARK  status: ('A' for Active; 'I' for Inactive)
REMARK    1  A    between atoms: C_4  and  C_5 
REMARK    2  A    between atoms: C_5  and  N_6 
REMARK    3  A    between atoms: C_10  and  C_11 
REMARK    4  A    between atoms: C_11  and  C_12 
REMARK    5  A    between atoms: N_21  and  C_22 
REMARK    6  A    between atoms: C_22  and  C_23 
ROOT
HETATM    1  C   UNL     1      42.068 -16.359   3.581  1.00  0.00     0.149 C 
HETATM    2  N   UNL     1      42.944 -15.470   2.832  1.00  0.00    -0.220 NA
HETATM    3  C   UNL     1      43.350 -14.404   3.609  1.00  0.00     0.304 C 
HETATM    4  O   UNL     1      44.200 -13.616   3.235  1.00  0.00    -0.253 OA
HETATM    5  N   UNL     1      42.633 -14.387   4.760  1.00  0.00    -0.270 N 
HETATM    6  C   UNL     1      41.772 -15.447   4.790  1.00  0.00     0.257 C 
HETATM    7  O   UNL     1      40.890 -15.646   5.614  1.00  0.00    -0.270 OA
HETATM    8  H   UNL     1      43.729 -15.893   2.339  1.00  0.00     0.134 HD
ENDROOT
BRANCH   1   9
HETATM    9  C   UNL     1      40.756 -16.728   2.812  1.00  0.00     0.028 C 
HETATM   10  C   UNL     1      40.961 -17.534   1.516  1.00  0.00     0.035 C 
HETATM   11  C   UNL     1      41.539 -16.711   0.375  1.00  0.00     0.235 C 
HETATM   12  N   UNL     1      40.639 -15.530   0.088  1.00  0.00    -0.067 N 
HETATM   13  H   UNL     1      39.755 -15.920  -0.259  1.00  0.00     0.280 HD
HETATM   14  C   UNL     1      40.333 -14.682   1.298  1.00  0.00     0.235 C 
HETATM   15  C   UNL     1      39.846 -15.530   2.466  1.00  0.00     0.035 C 
BRANCH  12  16
HETATM   16  C   UNL     1      41.171 -14.639  -1.031  1.00  0.00     0.274 C 
BRANCH  16  17
HETATM   17  C   UNL     1      40.109 -13.892  -1.799  1.00  0.00    -0.026 A 
HETATM   18  C   UNL     1      39.157 -14.630  -2.532  1.00  0.00     0.016 A 
HETATM   19  C   UNL     1      38.182 -13.988  -3.305  1.00  0.00    -0.061 A 
HETATM   20  C   UNL     1      37.149 -14.773  -4.059  1.00  0.00     0.048 C 
HETATM   21  C   UNL     1      38.142 -12.593  -3.321  1.00  0.00     0.007 A 
HETATM   22  C   UNL     1      39.067 -11.849  -2.591  1.00  0.00     0.008 A 
HETATM   23  C   UNL     1      40.060 -12.481  -1.827  1.00  0.00    -0.054 A 
HETATM   24  C   UNL     1      41.010 -11.617  -1.038  1.00  0.00     0.049 C 
ENDBRANCH  16  17
ENDBRANCH  12  16
ENDBRANCH   1   9
BRANCH   1  25
HETATM   25  C   UNL     1      42.864 -17.605   3.973  1.00  0.00     0.067 A 
HETATM   26  N   UNL     1      42.649 -18.048   5.250  1.00  0.00    -0.263 NA
HETATM   27  C   UNL     1      43.334 -19.143   5.655  1.00  0.00     0.117 A 
HETATM   28  C   UNL     1      44.248 -19.811   4.864  1.00  0.00     0.019 A 
HETATM   29  C   UNL     1      44.475 -19.335   3.578  1.00  0.00     0.003 A 
HETATM   30  C   UNL     1      43.781 -18.217   3.123  1.00  0.00     0.030 A 
ENDBRANCH   1  25
BRANCH   5  31
HETATM   31  C   UNL     1      42.763 -13.363   5.784  1.00  0.00     0.168 C 
BRANCH  31  32
HETATM   32  C   UNL     1      43.866 -13.658   6.804  1.00  0.00     0.140 C 
HETATM   33  O   UNL     1      45.168 -13.594   6.193  1.00  0.00    -0.384 OA
HETATM   34  C   UNL     1      46.101 -13.125   7.182  1.00  0.00     0.168 C 
HETATM   35  C   UNL     1      45.318 -12.864   8.456  1.00  0.00     0.029 C 
HETATM   36  C   UNL     1      43.915 -12.655   7.942  1.00  0.00     0.036 C 
ENDBRANCH  31  32
ENDBRANCH   5  31
TORSDOF 6
ENDMDL
MODEL 8
REMARK VINA RESULT:      -8.3      1.652      2.340
REMARK  6 active torsions:
REMARK  status: ('A' for Active; 'I' for Inactive)
REMARK    1  A    between atoms: C_4  and  C_5 
REMARK    2  A    between atoms: C_5  and  N_6 
REMARK    3  A    between atoms: C_10  and  C_11 
REMARK    4  A    between atoms: C_11  and  C_12 
REMARK    5  A    between atoms: N_21  and  C_22 
REMARK    6  A    between atoms: C_22  and  C_23 
ROOT
HETATM    1  C   UNL     1      40.243 -12.454   3.062  1.00  0.00     0.149 C 
HETATM    2  N   UNL     1      41.577 -12.447   2.481  1.00  0.00    -0.220 NA
HETATM    3  C   UNL     1      41.547 -12.002   1.175  1.00  0.00     0.304 C 
HETATM    4  O   UNL     1      42.564 -11.777   0.544  1.00  0.00    -0.253 OA
HETATM    5  N   UNL     1      40.260 -11.920   0.757  1.00  0.00    -0.270 N 
HETATM    6  C   UNL     1      39.415 -12.267   1.772  1.00  0.00     0.257 C 
HETATM    7  O   UNL     1      38.206 -12.434   1.689  1.00  0.00    -0.270 OA
HETATM    8  H   UNL     1      42.316 -11.992   3.014  1.00  0.00     0.134 HD
ENDROOT
BRANCH   1   9
HETATM    9  C   UNL     1      39.884 -13.798   3.778  1.00  0.00     0.028 C 
HETATM   10  C   UNL     1      40.705 -14.104   5.045  1.00  0.00     0.035 C 
HETATM   11  C   UNL     1      42.143 -14.503   4.754  1.00  0.00     0.235 C 
HETATM   12  N   UNL     1      42.165 -15.712   3.846  1.00  0.00    -0.067 N 
HETATM   13  H   UNL     1      41.757 -16.484   4.384  1.00  0.00     0.280 HD
HETATM   14  C   UNL     1      41.359 -15.545   2.581  1.00  0.00     0.235 C 
HETATM   15  C   UNL     1      39.949 -15.051   2.878  1.00  0.00     0.035 C 
BRANCH  12  16
HETATM   16  C   UNL     1      43.580 -16.157   3.486  1.00  0.00     0.274 C 
BRANCH  16  17
HETATM   17  C   UNL     1      43.784 -17.651   3.464  1.00  0.00    -0.026 A 
HETATM   18  C   UNL     1      43.897 -18.338   4.690  1.00  0.00     0.016 A 
HETATM   19  C   UNL     1      44.139 -19.716   4.728  1.00  0.00    -0.061 A 
HETATM   20  C   UNL     1      44.227 -20.453   6.033  1.00  0.00     0.048 C 
HETATM   21  C   UNL     1      44.241 -20.419   3.527  1.00  0.00     0.007 A 
HETATM   22  C   UNL     1      44.118 -19.757   2.306  1.00  0.00     0.008 A 
HETATM   23  C   UNL     1      43.894 -18.373   2.255  1.00  0.00    -0.054 A 
HETATM   24  C   UNL     1      43.741 -17.725   0.903  1.00  0.00     0.049 C 
ENDBRANCH  16  17
ENDBRANCH  12  16
ENDBRANCH   1   9
BRANCH   1  25
HETATM   25  C   UNL     1      40.120 -11.259   4.008  1.00  0.00     0.067 A 
HETATM   26  N   UNL     1      41.311 -10.732   4.430  1.00  0.00    -0.263 NA
HETATM   27  C   UNL     1      41.263  -9.678   5.278  1.00  0.00     0.117 A 
HETATM   28  C   UNL     1      40.087  -9.131   5.754  1.00  0.00     0.019 A 
HETATM   29  C   UNL     1      38.886  -9.691   5.337  1.00  0.00     0.003 A 
HETATM   30  C   UNL     1      38.896 -10.771   4.457  1.00  0.00     0.030 A 
ENDBRANCH   1  25
BRANCH   5  31
HETATM   31  C   UNL     1      39.865 -11.539  -0.589  1.00  0.00     0.168 C 
BRANCH  31  32
HETATM   32  C   UNL     1      39.967 -12.683  -1.602  1.00  0.00     0.140 C 
HETATM   33  O   UNL     1      41.164 -12.571  -2.393  1.00  0.00    -0.384 OA
HETATM   34  C   UNL     1      41.605 -13.899  -2.723  1.00  0.00     0.168 C 
HETATM   35  C   UNL     1      40.638 -14.873  -2.074  1.00  0.00     0.029 C 
HETATM   36  C   UNL     1      40.051 -14.053  -0.952  1.00  0.00     0.036 C 
ENDBRANCH  31  32
ENDBRANCH   5  31
TORSDOF 6
ENDMDL
MODEL 9
REMARK VINA RESULT:      -8.2      2.592      5.798
REMARK  6 active torsions:
REMARK  status: ('A' for Active; 'I' for Inactive)
REMARK    1  A    between atoms: C_4  and  C_5 
REMARK    2  A    between atoms: C_5  and  N_6 
REMARK    3  A    between atoms: C_10  and  C_11 
REMARK    4  A    between atoms: C_11  and  C_12 
REMARK    5  A    between atoms: N_21  and  C_22 
REMARK    6  A    between atoms: C_22  and  C_23 
ROOT
HETATM    1  C   UNL     1      40.486 -12.710   2.947  1.00  0.00     0.149 C 
HETATM    2  N   UNL     1      39.885 -13.369   4.096  1.00  0.00    -0.220 NA
HETATM    3  C   UNL     1      39.267 -12.454   4.924  1.00  0.00     0.304 C 
HETATM    4  O   UNL     1      38.576 -12.797   5.867  1.00  0.00    -0.253 OA
HETATM    5  N   UNL     1      39.600 -11.198   4.536  1.00  0.00    -0.270 N 
HETATM    6  C   UNL     1      40.404 -11.248   3.433  1.00  0.00     0.257 C 
HETATM    7  O   UNL     1      40.992 -10.307   2.918  1.00  0.00    -0.270 OA
HETATM    8  H   UNL     1      39.285 -14.172   3.913  1.00  0.00     0.134 HD
ENDROOT
BRANCH   1   9
HETATM    9  C   UNL     1      41.968 -13.141   2.689  1.00  0.00     0.028 C 
HETATM   10  C   UNL     1      42.146 -14.336   1.733  1.00  0.00     0.035 C 
HETATM   11  C   UNL     1      41.739 -15.667   2.345  1.00  0.00     0.235 C 
HETATM   12  N   UNL     1      42.536 -15.917   3.606  1.00  0.00    -0.067 N 
HETATM   13  H   UNL     1      43.514 -16.025   3.311  1.00  0.00     0.280 HD
HETATM   14  C   UNL     1      42.470 -14.792   4.608  1.00  0.00     0.235 C 
HETATM   15  C   UNL     1      42.786 -13.449   3.962  1.00  0.00     0.035 C 
BRANCH  12  16
HETATM   16  C   UNL     1      42.161 -17.227   4.293  1.00  0.00     0.274 C 
BRANCH  16  17
HETATM   17  C   UNL     1      43.192 -18.321   4.170  1.00  0.00    -0.026 A 
HETATM   18  C   UNL     1      43.131 -19.189   3.060  1.00  0.00     0.016 A 
HETATM   19  C   UNL     1      44.030 -20.253   2.923  1.00  0.00    -0.061 A 
HETATM   20  C   UNL     1      43.985 -21.158   1.725  1.00  0.00     0.048 C 
HETATM   21  C   UNL     1      45.020 -20.432   3.890  1.00  0.00     0.007 A 
HETATM   22  C   UNL     1      45.103 -19.574   4.986  1.00  0.00     0.008 A 
HETATM   23  C   UNL     1      44.196 -18.516   5.144  1.00  0.00    -0.054 A 
HETATM   24  C   UNL     1      44.362 -17.608   6.336  1.00  0.00     0.049 C 
ENDBRANCH  16  17
ENDBRANCH  12  16
ENDBRANCH   1   9
BRANCH   1  25
HETATM   25  C   UNL     1      39.603 -12.966   1.724  1.00  0.00     0.067 A 
HETATM   26  N   UNL     1      38.668 -13.953   1.884  1.00  0.00    -0.263 NA
HETATM   27  C   UNL     1      37.865 -14.229   0.831  1.00  0.00     0.117 A 
HETATM   28  C   UNL     1      37.957 -13.591  -0.391  1.00  0.00     0.019 A 
HETATM   29  C   UNL     1      38.926 -12.608  -0.548  1.00  0.00     0.003 A 
HETATM   30  C   UNL     1      39.765 -12.290   0.517  1.00  0.00     0.030 A 
ENDBRANCH   1  25
BRANCH   5  31
HETATM   31  C   UNL     1      39.169  -9.993   5.225  1.00  0.00     0.168 C 
BRANCH  31  32
HETATM   32  C   UNL     1      39.908  -9.747   6.543  1.00  0.00     0.140 C 
HETATM   33  O   UNL     1      39.134 -10.210   7.666  1.00  0.00    -0.384 OA
HETATM   34  C   UNL     1      40.049 -10.664   8.679  1.00  0.00     0.168 C 
HETATM   35  C   UNL     1      41.454 -10.495   8.131  1.00  0.00     0.029 C 
HETATM   36  C   UNL     1      41.227 -10.494   6.639  1.00  0.00     0.036 C 
ENDBRANCH  31  32
ENDBRANCH   5  31
TORSDOF 6
ENDMDL
MODEL 10
REMARK VINA RESULT:      -8.2      3.026      8.715
REMARK  6 active torsions:
REMARK  status: ('A' for Active; 'I' for Inactive)
REMARK    1  A    between atoms: C_4  and  C_5 
REMARK    2  A    between atoms: C_5  and  N_6 
REMARK    3  A    between atoms: C_10  and  C_11 
REMARK    4  A    between atoms: C_11  and  C_12 
REMARK    5  A    between atoms: N_21  and  C_22 
REMARK    6  A    between atoms: C_22  and  C_23 
ROOT
HETATM    1  C   UNL     1      42.071 -17.315   2.907  1.00  0.00     0.149 C 
HETATM    2  N   UNL     1      42.894 -16.168   2.554  1.00  0.00    -0.220 NA
HETATM    3  C   UNL     1      43.220 -15.430   3.674  1.00  0.00     0.304 C 
HETATM    4  O   UNL     1      44.020 -14.512   3.634  1.00  0.00    -0.253 OA
HETATM    5  N   UNL     1      42.492 -15.867   4.730  1.00  0.00    -0.270 N 
HETATM    6  C   UNL     1      41.703 -16.916   4.351  1.00  0.00     0.257 C 
HETATM    7  O   UNL     1      40.828 -17.448   5.020  1.00  0.00    -0.270 OA
HETATM    8  H   UNL     1      43.710 -16.340   1.969  1.00  0.00     0.134 HD
ENDROOT
BRANCH   1   9
HETATM    9  C   UNL     1      40.794 -17.461   2.014  1.00  0.00     0.028 C 
HETATM   10  C   UNL     1      41.049 -17.427   0.495  1.00  0.00     0.035 C 
HETATM   11  C   UNL     1      41.405 -16.045  -0.029  1.00  0.00     0.235 C 
HETATM   12  N   UNL     1      40.300 -15.068   0.310  1.00  0.00    -0.067 N 
HETATM   13  H   UNL     1      39.475 -15.372  -0.219  1.00  0.00     0.280 HD
HETATM   14  C   UNL     1      39.933 -15.040   1.774  1.00  0.00     0.235 C 
HETATM   15  C   UNL     1      39.674 -16.441   2.312  1.00  0.00     0.035 C 
BRANCH  12  16
HETATM   16  C   UNL     1      40.600 -13.648  -0.162  1.00  0.00     0.274 C 
BRANCH  16  17
HETATM   17  C   UNL     1      39.769 -13.186  -1.333  1.00  0.00    -0.026 A 
HETATM   18  C   UNL     1      38.931 -14.117  -1.980  1.00  0.00     0.016 A 
HETATM   19  C   UNL     1      38.178 -13.755  -3.103  1.00  0.00    -0.061 A 
HETATM   20  C   UNL     1      37.261 -14.737  -3.773  1.00  0.00     0.048 C 
HETATM   21  C   UNL     1      38.243 -12.440  -3.567  1.00  0.00     0.007 A 
HETATM   22  C   UNL     1      39.057 -11.504  -2.930  1.00  0.00     0.008 A 
HETATM   23  C   UNL     1      39.829 -11.859  -1.815  1.00  0.00    -0.054 A 
HETATM   24  C   UNL     1      40.663 -10.791  -1.156  1.00  0.00     0.049 C 
ENDBRANCH  16  17
ENDBRANCH  12  16
ENDBRANCH   1   9
BRANCH   1  25
HETATM   25  C   UNL     1      42.943 -18.571   2.855  1.00  0.00     0.067 A 
HETATM   26  N   UNL     1      43.720 -18.781   3.962  1.00  0.00    -0.263 NA
HETATM   27  C   UNL     1      44.519 -19.872   3.967  1.00  0.00     0.117 A 
HETATM   28  C   UNL     1      44.610 -20.760   2.913  1.00  0.00     0.019 A 
HETATM   29  C   UNL     1      43.836 -20.522   1.784  1.00  0.00     0.003 A 
HETATM   30  C   UNL     1      42.993 -19.413   1.747  1.00  0.00     0.030 A 
ENDBRANCH   1  25
BRANCH   5  31
HETATM   31  C   UNL     1      42.543 -15.273   6.056  1.00  0.00     0.168 C 
BRANCH  31  32
HETATM   32  C   UNL     1      43.355 -16.094   7.061  1.00  0.00     0.140 C 
HETATM   33  O   UNL     1      42.587 -17.202   7.567  1.00  0.00    -0.384 OA
HETATM   34  C   UNL     1      43.493 -18.284   7.839  1.00  0.00     0.168 C 
HETATM   35  C   UNL     1      44.885 -17.819   7.451  1.00  0.00     0.029 C 
HETATM   36  C   UNL     1      44.600 -16.721   6.457  1.00  0.00     0.036 C 
ENDBRANCH  31  32
ENDBRANCH   5  31
TORSDOF 6
ENDMDL
