MODEL 1
REMARK VINA RESULT:      -9.5      0.000      0.000
REMARK  7 active torsions:
REMARK  status: ('A' for Active; 'I' for Inactive)
REMARK    1  A    between atoms: C_9  and  C_10 
REMARK       I    between atoms: C_10  and  N_11 
REMARK    2  A    between atoms: N_11  and  C_12 
REMARK    3  A    between atoms: C_12  and  C_13 
REMARK    4  A    between atoms: C_12  and  C_22 
REMARK       I    between atoms: C_13  and  N_14 
REMARK    5  A    between atoms: N_14  and  C_15 
REMARK    6  A    between atoms: C_15  and  C_16 
REMARK    7  A    between atoms: C_22  and  C_23 
ROOT
HETATM    1  C   UNL     1      44.038 -14.626   6.505  1.00  0.00     0.180 C 
ENDROOT
BRANCH   1   2
HETATM    2  N   UNL     1      43.874 -13.649   7.614  1.00  0.00    -0.346 N 
HETATM    3  C   UNL     1      44.953 -12.986   8.148  1.00  0.00     0.249 C 
HETATM    4  O   UNL     1      46.067 -12.929   7.630  1.00  0.00    -0.271 OA
HETATM    5  H   UNL     1      43.125 -13.905   8.250  1.00  0.00     0.163 HD
BRANCH   3   6
HETATM    6  C   UNL     1      44.711 -12.204   9.444  1.00  0.00     0.281 C 
HETATM    7  N   UNL     1      44.255 -13.186  10.506  1.00  0.00    -0.058 N 
HETATM    8  C   UNL     1      44.050 -12.565  11.829  1.00  0.00     0.272 C 
HETATM    9  H   UNL     1      43.379 -13.614  10.165  1.00  0.00     0.278 HD
HETATM   10  H   UNL     1      44.917 -13.971  10.550  1.00  0.00     0.278 HD
HETATM   11  C   UNL     1      43.194 -11.336  11.752  1.00  0.00    -0.026 A 
HETATM   12  C   UNL     1      43.019 -10.642  10.537  1.00  0.00    -0.048 A 
HETATM   13  C   UNL     1      42.590 -10.849  12.921  1.00  0.00     0.009 A 
HETATM   14  C   UNL     1      42.210  -9.497  10.511  1.00  0.00     0.008 A 
HETATM   15  C   UNL     1      43.623 -11.144   9.243  1.00  0.00     0.082 C 
HETATM   16  C   UNL     1      41.604  -9.032  11.677  1.00  0.00     0.001 A 
HETATM   17  C   UNL     1      41.797  -9.704  12.881  1.00  0.00     0.001 A 
ENDBRANCH   3   6
ENDBRANCH   1   2
BRANCH   1  18
HETATM   18  C   UNL     1      43.557 -13.899   5.226  1.00  0.00     0.241 C 
HETATM   19  N   UNL     1      42.217 -13.646   5.128  1.00  0.00    -0.353 N 
HETATM   20  H   UNL     1      41.591 -13.775   5.918  1.00  0.00     0.162 HD
HETATM   21  O   UNL     1      44.346 -13.646   4.309  1.00  0.00    -0.271 OA
BRANCH  19  22
HETATM   22  C   UNL     1      41.669 -12.961   3.977  1.00  0.00     0.187 C 
BRANCH  22  23
HETATM   23  C   UNL     1      40.978 -13.929   3.092  1.00  0.00     0.070 A 
HETATM   24  O   UNL     1      41.546 -14.169   1.874  1.00  0.00    -0.325 OA
HETATM   25  C   UNL     1      40.766 -15.083   1.242  1.00  0.00     0.142 A 
HETATM   26  C   UNL     1      39.708 -15.445   2.040  1.00  0.00     0.027 A 
HETATM   27  C   UNL     1      39.841 -14.699   3.236  1.00  0.00     0.036 A 
ENDBRANCH  22  23
ENDBRANCH  19  22
ENDBRANCH   1  18
BRANCH   1  28
HETATM   28  C   UNL     1      43.351 -15.977   6.768  1.00  0.00     0.075 C 
BRANCH  28  29
HETATM   29  C   UNL     1      43.956 -17.146   6.048  1.00  0.00    -0.028 A 
HETATM   30  C   UNL     1      43.560 -17.653   4.766  1.00  0.00    -0.002 A 
HETATM   31  C   UNL     1      44.310 -18.803   4.521  1.00  0.00     0.042 A 
HETATM   32  C   UNL     1      42.613 -17.255   3.799  1.00  0.00     0.014 A 
HETATM   33  C   UNL     1      44.157 -19.579   3.366  1.00  0.00     0.030 A 
HETATM   34  N   UNL     1      45.143 -18.982   5.599  1.00  0.00    -0.365 N 
HETATM   35  C   UNL     1      43.208 -19.166   2.427  1.00  0.00     0.002 A 
HETATM   36  C   UNL     1      42.447 -18.019   2.637  1.00  0.00     0.001 A 
HETATM   37  H   UNL     1      45.791 -19.753   5.697  1.00  0.00     0.165 HD
HETATM   38  C   UNL     1      44.931 -17.998   6.528  1.00  0.00     0.096 A 
ENDBRANCH  28  29
ENDBRANCH   1  28
TORSDOF 7
ENDMDL
MODEL 2
REMARK VINA RESULT:      -9.3      1.932      8.007
REMARK  7 active torsions:
REMARK  status: ('A' for Active; 'I' for Inactive)
REMARK    1  A    between atoms: C_9  and  C_10 
REMARK       I    between atoms: C_10  and  N_11 
REMARK    2  A    between atoms: N_11  and  C_12 
REMARK    3  A    between atoms: C_12  and  C_13 
REMARK    4  A    between atoms: C_12  and  C_22 
REMARK       I    between atoms: C_13  and  N_14 
REMARK    5  A    between atoms: N_14  and  C_15 
REMARK    6  A    between atoms: C_15  and  C_16 
REMARK    7  A    between atoms: C_22  and  C_23 
ROOT
HETATM    1  C   UNL     1      42.317 -15.027   5.966  1.00  0.00     0.180 C 
ENDROOT
BRANCH   1   2
HETATM    2  N   UNL     1      42.015 -15.028   4.511  1.00  0.00    -0.346 N 
HETATM    3  C   UNL     1      40.726 -14.919   4.048  1.00  0.00     0.249 C 
HETATM    4  O   UNL     1      39.764 -14.566   4.728  1.00  0.00    -0.271 OA
HETATM    5  H   UNL     1      42.649 -15.620   3.983  1.00  0.00     0.163 HD
BRANCH   3   6
HETATM    6  C   UNL     1      40.503 -15.188   2.554  1.00  0.00     0.281 C 
HETATM    7  N   UNL     1      41.728 -14.705   1.803  1.00  0.00    -0.058 N 
HETATM    8  C   UNL     1      41.667 -14.968   0.352  1.00  0.00     0.272 C 
HETATM    9  H   UNL     1      41.814 -13.692   1.986  1.00  0.00     0.278 HD
HETATM   10  H   UNL     1      42.571 -15.109   2.230  1.00  0.00     0.278 HD
HETATM   11  C   UNL     1      40.377 -14.502  -0.255  1.00  0.00    -0.026 A 
HETATM   12  C   UNL     1      39.233 -14.280   0.540  1.00  0.00    -0.048 A 
HETATM   13  C   UNL     1      40.301 -14.322  -1.644  1.00  0.00     0.009 A 
HETATM   14  C   UNL     1      38.048 -13.845  -0.070  1.00  0.00     0.008 A 
HETATM   15  C   UNL     1      39.272 -14.431   2.045  1.00  0.00     0.082 C 
HETATM   16  C   UNL     1      37.991 -13.656  -1.450  1.00  0.00     0.001 A 
HETATM   17  C   UNL     1      39.113 -13.897  -2.237  1.00  0.00     0.001 A 
ENDBRANCH   3   6
ENDBRANCH   1   2
BRANCH   1  18
HETATM   18  C   UNL     1      43.642 -14.244   6.123  1.00  0.00     0.241 C 
HETATM   19  N   UNL     1      44.063 -13.995   7.400  1.00  0.00    -0.353 N 
HETATM   20  H   UNL     1      43.624 -14.439   8.202  1.00  0.00     0.162 HD
HETATM   21  O   UNL     1      44.233 -13.796   5.134  1.00  0.00    -0.271 OA
BRANCH  19  22
HETATM   22  C   UNL     1      45.296 -13.281   7.654  1.00  0.00     0.187 C 
BRANCH  22  23
HETATM   23  C   UNL     1      45.191 -12.524   8.925  1.00  0.00     0.070 A 
HETATM   24  O   UNL     1      44.494 -13.113   9.940  1.00  0.00    -0.325 OA
HETATM   25  C   UNL     1      44.533 -12.263  10.998  1.00  0.00     0.142 A 
HETATM   26  C   UNL     1      45.257 -11.138  10.683  1.00  0.00     0.027 A 
HETATM   27  C   UNL     1      45.682 -11.303   9.343  1.00  0.00     0.036 A 
ENDBRANCH  22  23
ENDBRANCH  19  22
ENDBRANCH   1  18
BRANCH   1  28
HETATM   28  C   UNL     1      42.327 -16.431   6.595  1.00  0.00     0.075 C 
BRANCH  28  29
HETATM   29  C   UNL     1      43.433 -17.328   6.124  1.00  0.00    -0.028 A 
HETATM   30  C   UNL     1      43.448 -18.100   4.915  1.00  0.00    -0.002 A 
HETATM   31  C   UNL     1      44.614 -18.865   4.922  1.00  0.00     0.042 A 
HETATM   32  C   UNL     1      42.563 -18.239   3.826  1.00  0.00     0.014 A 
HETATM   33  C   UNL     1      44.938 -19.766   3.900  1.00  0.00     0.030 A 
HETATM   34  N   UNL     1      45.294 -18.560   6.076  1.00  0.00    -0.365 N 
HETATM   35  C   UNL     1      44.042 -19.889   2.835  1.00  0.00     0.002 A 
HETATM   36  C   UNL     1      42.872 -19.135   2.794  1.00  0.00     0.001 A 
HETATM   37  H   UNL     1      46.172 -18.983   6.349  1.00  0.00     0.165 HD
HETATM   38  C   UNL     1      44.588 -17.646   6.813  1.00  0.00     0.096 A 
ENDBRANCH  28  29
ENDBRANCH   1  28
TORSDOF 7
ENDMDL
MODEL 3
REMARK VINA RESULT:      -9.2      1.798      7.766
REMARK  7 active torsions:
REMARK  status: ('A' for Active; 'I' for Inactive)
REMARK    1  A    between atoms: C_9  and  C_10 
REMARK       I    between atoms: C_10  and  N_11 
REMARK    2  A    between atoms: N_11  and  C_12 
REMARK    3  A    between atoms: C_12  and  C_13 
REMARK    4  A    between atoms: C_12  and  C_22 
REMARK       I    between atoms: C_13  and  N_14 
REMARK    5  A    between atoms: N_14  and  C_15 
REMARK    6  A    between atoms: C_15  and  C_16 
REMARK    7  A    between atoms: C_22  and  C_23 
ROOT
HETATM    1  C   UNL     1      42.846 -15.106   6.091  1.00  0.00     0.180 C 
ENDROOT
BRANCH   1   2
HETATM    2  N   UNL     1      43.065 -14.784   4.658  1.00  0.00    -0.346 N 
HETATM    3  C   UNL     1      42.716 -13.561   4.137  1.00  0.00     0.249 C 
HETATM    4  O   UNL     1      42.445 -12.566   4.807  1.00  0.00    -0.271 OA
HETATM    5  H   UNL     1      42.951 -15.594   4.055  1.00  0.00     0.163 HD
BRANCH   3   6
HETATM    6  C   UNL     1      42.746 -13.425   2.610  1.00  0.00     0.281 C 
HETATM    7  N   UNL     1      41.944 -12.194   2.233  1.00  0.00    -0.058 N 
HETATM    8  C   UNL     1      41.950 -11.912   0.784  1.00  0.00     0.272 C 
HETATM    9  H   UNL     1      40.981 -12.346   2.571  1.00  0.00     0.278 HD
HETATM   10  H   UNL     1      42.278 -11.391   2.781  1.00  0.00     0.278 HD
HETATM   11  C   UNL     1      41.597 -13.121  -0.029  1.00  0.00    -0.026 A 
HETATM   12  C   UNL     1      41.708 -14.421   0.506  1.00  0.00    -0.048 A 
HETATM   13  C   UNL     1      41.186 -12.953  -1.361  1.00  0.00     0.009 A 
HETATM   14  C   UNL     1      41.368 -15.523  -0.291  1.00  0.00     0.008 A 
HETATM   15  C   UNL     1      42.117 -14.654   1.944  1.00  0.00     0.082 C 
HETATM   16  C   UNL     1      40.946 -15.341  -1.608  1.00  0.00     0.001 A 
HETATM   17  C   UNL     1      40.859 -14.059  -2.143  1.00  0.00     0.001 A 
ENDBRANCH   3   6
ENDBRANCH   1   2
BRANCH   1  18
HETATM   18  C   UNL     1      44.124 -14.643   6.830  1.00  0.00     0.241 C 
HETATM   19  N   UNL     1      44.056 -13.449   7.491  1.00  0.00    -0.353 N 
HETATM   20  H   UNL     1      43.172 -12.967   7.632  1.00  0.00     0.162 HD
HETATM   21  O   UNL     1      45.174 -15.292   6.745  1.00  0.00    -0.271 OA
BRANCH  19  22
HETATM   22  C   UNL     1      45.194 -12.934   8.223  1.00  0.00     0.187 C 
BRANCH  22  23
HETATM   23  C   UNL     1      44.735 -12.239   9.450  1.00  0.00     0.070 A 
HETATM   24  O   UNL     1      44.373 -13.024  10.507  1.00  0.00    -0.325 OA
HETATM   25  C   UNL     1      44.003 -12.193  11.514  1.00  0.00     0.142 A 
HETATM   26  C   UNL     1      44.132 -10.881  11.126  1.00  0.00     0.027 A 
HETATM   27  C   UNL     1      44.604 -10.908   9.791  1.00  0.00     0.036 A 
ENDBRANCH  22  23
ENDBRANCH  19  22
ENDBRANCH   1  18
BRANCH   1  28
HETATM   28  C   UNL     1      42.459 -16.574   6.342  1.00  0.00     0.075 C 
BRANCH  28  29
HETATM   29  C   UNL     1      43.352 -17.584   5.684  1.00  0.00    -0.028 A 
HETATM   30  C   UNL     1      43.215 -18.103   4.353  1.00  0.00    -0.002 A 
HETATM   31  C   UNL     1      44.187 -19.089   4.186  1.00  0.00     0.042 A 
HETATM   32  C   UNL     1      42.336 -17.843   3.281  1.00  0.00     0.014 A 
HETATM   33  C   UNL     1      44.322 -19.832   3.007  1.00  0.00     0.030 A 
HETATM   34  N   UNL     1      44.901 -19.157   5.358  1.00  0.00    -0.365 N 
HETATM   35  C   UNL     1      43.435 -19.558   1.963  1.00  0.00     0.002 A 
HETATM   36  C   UNL     1      42.457 -18.576   2.094  1.00  0.00     0.001 A 
HETATM   37  H   UNL     1      45.663 -19.803   5.524  1.00  0.00     0.165 HD
HETATM   38  C   UNL     1      44.401 -18.266   6.270  1.00  0.00     0.096 A 
ENDBRANCH  28  29
ENDBRANCH   1  28
TORSDOF 7
ENDMDL
MODEL 4
REMARK VINA RESULT:      -9.1      4.015      8.342
REMARK  7 active torsions:
REMARK  status: ('A' for Active; 'I' for Inactive)
REMARK    1  A    between atoms: C_9  and  C_10 
REMARK       I    between atoms: C_10  and  N_11 
REMARK    2  A    between atoms: N_11  and  C_12 
REMARK    3  A    between atoms: C_12  and  C_13 
REMARK    4  A    between atoms: C_12  and  C_22 
REMARK       I    between atoms: C_13  and  N_14 
REMARK    5  A    between atoms: N_14  and  C_15 
REMARK    6  A    between atoms: C_15  and  C_16 
REMARK    7  A    between atoms: C_22  and  C_23 
ROOT
HETATM    1  C   UNL     1      41.885 -16.691   3.579  1.00  0.00     0.180 C 
ENDROOT
BRANCH   1   2
HETATM    2  N   UNL     1      41.371 -15.869   2.453  1.00  0.00    -0.346 N 
HETATM    3  C   UNL     1      41.139 -16.418   1.215  1.00  0.00     0.249 C 
HETATM    4  O   UNL     1      41.081 -17.624   0.982  1.00  0.00    -0.271 OA
HETATM    5  H   UNL     1      41.716 -14.914   2.480  1.00  0.00     0.163 HD
BRANCH   3   6
HETATM    6  C   UNL     1      40.859 -15.440   0.067  1.00  0.00     0.281 C 
HETATM    7  N   UNL     1      41.136 -16.160  -1.239  1.00  0.00    -0.058 N 
HETATM    8  C   UNL     1      40.840 -15.343  -2.432  1.00  0.00     0.272 C 
HETATM    9  H   UNL     1      42.130 -16.438  -1.226  1.00  0.00     0.278 HD
HETATM   10  H   UNL     1      40.627 -17.052  -1.251  1.00  0.00     0.278 HD
HETATM   11  C   UNL     1      41.470 -13.984  -2.359  1.00  0.00    -0.026 A 
HETATM   12  C   UNL     1      41.880 -13.433  -1.127  1.00  0.00    -0.048 A 
HETATM   13  C   UNL     1      41.617 -13.234  -3.536  1.00  0.00     0.009 A 
HETATM   14  C   UNL     1      42.464 -12.159  -1.106  1.00  0.00     0.008 A 
HETATM   15  C   UNL     1      41.772 -14.213   0.165  1.00  0.00     0.082 C 
HETATM   16  C   UNL     1      42.618 -11.431  -2.285  1.00  0.00     0.001 A 
HETATM   17  C   UNL     1      42.191 -11.964  -3.497  1.00  0.00     0.001 A 
ENDBRANCH   3   6
ENDBRANCH   1   2
BRANCH   1  18
HETATM   18  C   UNL     1      41.226 -16.118   4.857  1.00  0.00     0.241 C 
HETATM   19  N   UNL     1      40.321 -15.109   4.684  1.00  0.00    -0.353 N 
HETATM   20  H   UNL     1      39.971 -14.858   3.763  1.00  0.00     0.162 HD
HETATM   21  O   UNL     1      41.578 -16.504   5.978  1.00  0.00    -0.271 OA
BRANCH  19  22
HETATM   22  C   UNL     1      39.640 -14.513   5.814  1.00  0.00     0.187 C 
BRANCH  22  23
HETATM   23  C   UNL     1      40.042 -13.093   5.957  1.00  0.00     0.070 A 
HETATM   24  O   UNL     1      39.055 -12.197   6.255  1.00  0.00    -0.325 OA
HETATM   25  C   UNL     1      39.639 -10.976   6.351  1.00  0.00     0.142 A 
HETATM   26  C   UNL     1      40.992 -11.072   6.129  1.00  0.00     0.027 A 
HETATM   27  C   UNL     1      41.255 -12.440   5.873  1.00  0.00     0.036 A 
ENDBRANCH  22  23
ENDBRANCH  19  22
ENDBRANCH   1  18
BRANCH   1  28
HETATM   28  C   UNL     1      43.420 -16.773   3.634  1.00  0.00     0.075 C 
BRANCH  28  29
HETATM   29  C   UNL     1      43.968 -18.077   4.134  1.00  0.00    -0.028 A 
HETATM   30  C   UNL     1      44.019 -19.313   3.408  1.00  0.00    -0.002 A 
HETATM   31  C   UNL     1      44.505 -20.289   4.278  1.00  0.00     0.042 A 
HETATM   32  C   UNL     1      43.671 -19.700   2.097  1.00  0.00     0.014 A 
HETATM   33  C   UNL     1      44.655 -21.631   3.908  1.00  0.00     0.030 A 
HETATM   34  N   UNL     1      44.759 -19.672   5.479  1.00  0.00    -0.365 N 
HETATM   35  C   UNL     1      44.299 -21.988   2.605  1.00  0.00     0.002 A 
HETATM   36  C   UNL     1      43.816 -21.038   1.709  1.00  0.00     0.001 A 
HETATM   37  H   UNL     1      45.106 -20.149   6.302  1.00  0.00     0.165 HD
HETATM   38  C   UNL     1      44.429 -18.345   5.409  1.00  0.00     0.096 A 
ENDBRANCH  28  29
ENDBRANCH   1  28
TORSDOF 7
ENDMDL
MODEL 5
REMARK VINA RESULT:      -9.1      1.932      7.746
REMARK  7 active torsions:
REMARK  status: ('A' for Active; 'I' for Inactive)
REMARK    1  A    between atoms: C_9  and  C_10 
REMARK       I    between atoms: C_10  and  N_11 
REMARK    2  A    between atoms: N_11  and  C_12 
REMARK    3  A    between atoms: C_12  and  C_13 
REMARK    4  A    between atoms: C_12  and  C_22 
REMARK       I    between atoms: C_13  and  N_14 
REMARK    5  A    between atoms: N_14  and  C_15 
REMARK    6  A    between atoms: C_15  and  C_16 
REMARK    7  A    between atoms: C_22  and  C_23 
ROOT
HETATM    1  C   UNL     1      41.537 -12.456   5.230  1.00  0.00     0.180 C 
ENDROOT
BRANCH   1   2
HETATM    2  N   UNL     1      41.812 -13.884   5.535  1.00  0.00    -0.346 N 
HETATM    3  C   UNL     1      43.055 -14.433   5.335  1.00  0.00     0.249 C 
HETATM    4  O   UNL     1      44.084 -13.786   5.142  1.00  0.00    -0.271 OA
HETATM    5  H   UNL     1      41.008 -14.481   5.361  1.00  0.00     0.163 HD
BRANCH   3   6
HETATM    6  C   UNL     1      43.163 -15.959   5.437  1.00  0.00     0.281 C 
HETATM    7  N   UNL     1      44.403 -16.289   6.245  1.00  0.00    -0.058 N 
HETATM    8  C   UNL     1      44.586 -17.735   6.474  1.00  0.00     0.272 C 
HETATM    9  H   UNL     1      45.210 -15.896   5.734  1.00  0.00     0.278 HD
HETATM   10  H   UNL     1      44.384 -15.761   7.127  1.00  0.00     0.278 HD
HETATM   11  C   UNL     1      44.477 -18.528   5.205  1.00  0.00    -0.026 A 
HETATM   12  C   UNL     1      43.835 -18.000   4.066  1.00  0.00    -0.048 A 
HETATM   13  C   UNL     1      44.992 -19.833   5.168  1.00  0.00     0.009 A 
HETATM   14  C   UNL     1      43.757 -18.776   2.901  1.00  0.00     0.008 A 
HETATM   15  C   UNL     1      43.292 -16.588   4.045  1.00  0.00     0.082 C 
HETATM   16  C   UNL     1      44.285 -20.066   2.873  1.00  0.00     0.001 A 
HETATM   17  C   UNL     1      44.898 -20.595   4.005  1.00  0.00     0.001 A 
ENDBRANCH   3   6
ENDBRANCH   1   2
BRANCH   1  18
HETATM   18  C   UNL     1      41.071 -11.820   6.561  1.00  0.00     0.241 C 
HETATM   19  N   UNL     1      42.047 -11.331   7.385  1.00  0.00    -0.353 N 
HETATM   20  H   UNL     1      43.010 -11.238   7.074  1.00  0.00     0.162 HD
HETATM   21  O   UNL     1      39.879 -11.838   6.888  1.00  0.00    -0.271 OA
BRANCH  19  22
HETATM   22  C   UNL     1      41.714 -10.705   8.647  1.00  0.00     0.187 C 
BRANCH  22  23
HETATM   23  C   UNL     1      42.889 -10.734   9.552  1.00  0.00     0.070 A 
HETATM   24  O   UNL     1      44.115 -10.887   8.970  1.00  0.00    -0.325 OA
HETATM   25  C   UNL     1      45.035 -10.874   9.968  1.00  0.00     0.142 A 
HETATM   26  C   UNL     1      44.421 -10.702  11.185  1.00  0.00     0.027 A 
HETATM   27  C   UNL     1      43.033 -10.613  10.919  1.00  0.00     0.036 A 
ENDBRANCH  22  23
ENDBRANCH  19  22
ENDBRANCH   1  18
BRANCH   1  28
HETATM   28  C   UNL     1      40.569 -12.254   4.052  1.00  0.00     0.075 C 
BRANCH  28  29
HETATM   29  C   UNL     1      41.040 -12.810   2.741  1.00  0.00    -0.028 A 
HETATM   30  C   UNL     1      40.850 -14.150   2.266  1.00  0.00    -0.002 A 
HETATM   31  C   UNL     1      41.534 -14.267   1.056  1.00  0.00     0.042 A 
HETATM   32  C   UNL     1      40.179 -15.285   2.766  1.00  0.00     0.014 A 
HETATM   33  C   UNL     1      41.587 -15.460   0.326  1.00  0.00     0.030 A 
HETATM   34  N   UNL     1      42.103 -13.045   0.792  1.00  0.00    -0.365 N 
HETATM   35  C   UNL     1      40.919 -16.571   0.846  1.00  0.00     0.002 A 
HETATM   36  C   UNL     1      40.220 -16.487   2.048  1.00  0.00     0.001 A 
HETATM   37  H   UNL     1      42.675 -12.846  -0.019  1.00  0.00     0.165 HD
HETATM   38  C   UNL     1      41.824 -12.164   1.803  1.00  0.00     0.096 A 
ENDBRANCH  28  29
ENDBRANCH   1  28
TORSDOF 7
ENDMDL
MODEL 6
REMARK VINA RESULT:      -9.0      2.085      7.640
REMARK  7 active torsions:
REMARK  status: ('A' for Active; 'I' for Inactive)
REMARK    1  A    between atoms: C_9  and  C_10 
REMARK       I    between atoms: C_10  and  N_11 
REMARK    2  A    between atoms: N_11  and  C_12 
REMARK    3  A    between atoms: C_12  and  C_13 
REMARK    4  A    between atoms: C_12  and  C_22 
REMARK       I    between atoms: C_13  and  N_14 
REMARK    5  A    between atoms: N_14  and  C_15 
REMARK    6  A    between atoms: C_15  and  C_16 
REMARK    7  A    between atoms: C_22  and  C_23 
ROOT
HETATM    1  C   UNL     1      43.659 -15.127   6.324  1.00  0.00     0.180 C 
ENDROOT
BRANCH   1   2
HETATM    2  N   UNL     1      42.763 -14.459   5.344  1.00  0.00    -0.346 N 
HETATM    3  C   UNL     1      41.489 -14.917   5.110  1.00  0.00     0.249 C 
HETATM    4  O   UNL     1      40.889 -15.716   5.827  1.00  0.00    -0.271 OA
HETATM    5  H   UNL     1      43.271 -14.076   4.552  1.00  0.00     0.163 HD
BRANCH   3   6
HETATM    6  C   UNL     1      40.750 -14.321   3.906  1.00  0.00     0.281 C 
HETATM    7  N   UNL     1      39.943 -15.429   3.256  1.00  0.00    -0.058 N 
HETATM    8  C   UNL     1      39.127 -14.968   2.116  1.00  0.00     0.272 C 
HETATM    9  H   UNL     1      40.614 -16.153   2.955  1.00  0.00     0.278 HD
HETATM   10  H   UNL     1      39.372 -15.898   3.970  1.00  0.00     0.278 HD
HETATM   11  C   UNL     1      39.927 -14.163   1.136  1.00  0.00    -0.026 A 
HETATM   12  C   UNL     1      41.148 -13.562   1.506  1.00  0.00    -0.048 A 
HETATM   13  C   UNL     1      39.429 -13.975  -0.163  1.00  0.00     0.009 A 
HETATM   14  C   UNL     1      41.863 -12.818   0.557  1.00  0.00     0.008 A 
HETATM   15  C   UNL     1      41.743 -13.759   2.883  1.00  0.00     0.082 C 
HETATM   16  C   UNL     1      41.363 -12.651  -0.734  1.00  0.00     0.001 A 
HETATM   17  C   UNL     1      40.147 -13.225  -1.093  1.00  0.00     0.001 A 
ENDBRANCH   3   6
ENDBRANCH   1   2
BRANCH   1  18
HETATM   18  C   UNL     1      44.625 -14.030   6.831  1.00  0.00     0.241 C 
HETATM   19  N   UNL     1      44.371 -13.508   8.069  1.00  0.00    -0.353 N 
HETATM   20  H   UNL     1      43.688 -13.928   8.694  1.00  0.00     0.162 HD
HETATM   21  O   UNL     1      45.527 -13.597   6.105  1.00  0.00    -0.271 OA
BRANCH  19  22
HETATM   22  C   UNL     1      45.223 -12.487   8.639  1.00  0.00     0.187 C 
BRANCH  22  23
HETATM   23  C   UNL     1      44.622 -11.964   9.889  1.00  0.00     0.070 A 
HETATM   24  O   UNL     1      44.344 -12.874  10.870  1.00  0.00    -0.325 OA
HETATM   25  C   UNL     1      43.818 -12.186  11.915  1.00  0.00     0.142 A 
HETATM   26  C   UNL     1      43.762 -10.843  11.627  1.00  0.00     0.027 A 
HETATM   27  C   UNL     1      44.279 -10.698  10.317  1.00  0.00     0.036 A 
ENDBRANCH  22  23
ENDBRANCH  19  22
ENDBRANCH   1  18
BRANCH   1  28
HETATM   28  C   UNL     1      44.352 -16.383   5.769  1.00  0.00     0.075 C 
BRANCH  28  29
HETATM   29  C   UNL     1      44.105 -17.640   6.549  1.00  0.00    -0.028 A 
HETATM   30  C   UNL     1      44.309 -18.983   6.088  1.00  0.00    -0.002 A 
HETATM   31  C   UNL     1      43.858 -19.843   7.089  1.00  0.00     0.042 A 
HETATM   32  C   UNL     1      44.814 -19.549   4.898  1.00  0.00     0.014 A 
HETATM   33  C   UNL     1      43.878 -21.237   6.960  1.00  0.00     0.030 A 
HETATM   34  N   UNL     1      43.414 -19.060   8.127  1.00  0.00    -0.365 N 
HETATM   35  C   UNL     1      44.378 -21.771   5.769  1.00  0.00     0.002 A 
HETATM   36  C   UNL     1      44.843 -20.941   4.752  1.00  0.00     0.001 A 
HETATM   37  H   UNL     1      43.015 -19.422   8.984  1.00  0.00     0.165 HD
HETATM   38  C   UNL     1      43.546 -17.734   7.809  1.00  0.00     0.096 A 
ENDBRANCH  28  29
ENDBRANCH   1  28
TORSDOF 7
ENDMDL
MODEL 7
REMARK VINA RESULT:      -9.0      4.276      8.317
REMARK  7 active torsions:
REMARK  status: ('A' for Active; 'I' for Inactive)
REMARK    1  A    between atoms: C_9  and  C_10 
REMARK       I    between atoms: C_10  and  N_11 
REMARK    2  A    between atoms: N_11  and  C_12 
REMARK    3  A    between atoms: C_12  and  C_13 
REMARK    4  A    between atoms: C_12  and  C_22 
REMARK       I    between atoms: C_13  and  N_14 
REMARK    5  A    between atoms: N_14  and  C_15 
REMARK    6  A    between atoms: C_15  and  C_16 
REMARK    7  A    between atoms: C_22  and  C_23 
ROOT
HETATM    1  C   UNL     1      41.177 -15.121   1.973  1.00  0.00     0.180 C 
ENDROOT
BRANCH   1   2
HETATM    2  N   UNL     1      42.236 -16.159   2.075  1.00  0.00    -0.346 N 
HETATM    3  C   UNL     1      41.983 -17.472   1.762  1.00  0.00     0.249 C 
HETATM    4  O   UNL     1      40.992 -17.869   1.150  1.00  0.00    -0.271 OA
HETATM    5  H   UNL     1      42.883 -15.980   2.838  1.00  0.00     0.163 HD
BRANCH   3   6
HETATM    6  C   UNL     1      43.060 -18.495   2.146  1.00  0.00     0.281 C 
HETATM    7  N   UNL     1      42.688 -19.824   1.518  1.00  0.00    -0.058 N 
HETATM    8  C   UNL     1      43.686 -20.885   1.758  1.00  0.00     0.272 C 
HETATM    9  H   UNL     1      41.770 -20.094   1.904  1.00  0.00     0.278 HD
HETATM   10  H   UNL     1      42.508 -19.689   0.515  1.00  0.00     0.278 HD
HETATM   11  C   UNL     1      44.057 -20.996   3.207  1.00  0.00    -0.026 A 
HETATM   12  C   UNL     1      43.827 -19.933   4.105  1.00  0.00    -0.048 A 
HETATM   13  C   UNL     1      44.680 -22.167   3.666  1.00  0.00     0.009 A 
HETATM   14  C   UNL     1      44.189 -20.081   5.451  1.00  0.00     0.008 A 
HETATM   15  C   UNL     1      43.131 -18.663   3.667  1.00  0.00     0.082 C 
HETATM   16  C   UNL     1      44.794 -21.256   5.896  1.00  0.00     0.001 A 
HETATM   17  C   UNL     1      45.043 -22.295   5.005  1.00  0.00     0.001 A 
ENDBRANCH   3   6
ENDBRANCH   1   2
BRANCH   1  18
HETATM   18  C   UNL     1      41.400 -14.421   0.611  1.00  0.00     0.241 C 
HETATM   19  N   UNL     1      41.007 -15.105  -0.506  1.00  0.00    -0.353 N 
HETATM   20  H   UNL     1      40.448 -15.952  -0.442  1.00  0.00     0.162 HD
HETATM   21  O   UNL     1      41.987 -13.334   0.546  1.00  0.00    -0.271 OA
BRANCH  19  22
HETATM   22  C   UNL     1      41.161 -14.533  -1.826  1.00  0.00     0.187 C 
BRANCH  22  23
HETATM   23  C   UNL     1      39.996 -14.888  -2.672  1.00  0.00     0.070 A 
HETATM   24  O   UNL     1      40.190 -15.852  -3.619  1.00  0.00    -0.325 OA
HETATM   25  C   UNL     1      39.007 -16.025  -4.261  1.00  0.00     0.142 A 
HETATM   26  C   UNL     1      38.048 -15.195  -3.733  1.00  0.00     0.027 A 
HETATM   27  C   UNL     1      38.685 -14.457  -2.706  1.00  0.00     0.036 A 
ENDBRANCH  22  23
ENDBRANCH  19  22
ENDBRANCH   1  18
BRANCH   1  28
HETATM   28  C   UNL     1      41.129 -14.168   3.180  1.00  0.00     0.075 C 
BRANCH  28  29
HETATM   29  C   UNL     1      42.246 -14.339   4.167  1.00  0.00    -0.028 A 
HETATM   30  C   UNL     1      42.304 -15.303   5.228  1.00  0.00    -0.002 A 
HETATM   31  C   UNL     1      43.461 -15.046   5.963  1.00  0.00     0.042 A 
HETATM   32  C   UNL     1      41.465 -16.356   5.649  1.00  0.00     0.014 A 
HETATM   33  C   UNL     1      43.818 -15.782   7.099  1.00  0.00     0.030 A 
HETATM   34  N   UNL     1      44.094 -13.982   5.366  1.00  0.00    -0.365 N 
HETATM   35  C   UNL     1      42.967 -16.816   7.497  1.00  0.00     0.002 A 
HETATM   36  C   UNL     1      41.808 -17.103   6.782  1.00  0.00     0.001 A 
HETATM   37  H   UNL     1      44.955 -13.570   5.702  1.00  0.00     0.165 HD
HETATM   38  C   UNL     1      43.367 -13.542   4.292  1.00  0.00     0.096 A 
ENDBRANCH  28  29
ENDBRANCH   1  28
TORSDOF 7
ENDMDL
MODEL 8
REMARK VINA RESULT:      -8.9      2.205      4.223
REMARK  7 active torsions:
REMARK  status: ('A' for Active; 'I' for Inactive)
REMARK    1  A    between atoms: C_9  and  C_10 
REMARK       I    between atoms: C_10  and  N_11 
REMARK    2  A    between atoms: N_11  and  C_12 
REMARK    3  A    between atoms: C_12  and  C_13 
REMARK    4  A    between atoms: C_12  and  C_22 
REMARK       I    between atoms: C_13  and  N_14 
REMARK    5  A    between atoms: N_14  and  C_15 
REMARK    6  A    between atoms: C_15  and  C_16 
REMARK    7  A    between atoms: C_22  and  C_23 
ROOT
HETATM    1  C   UNL     1      41.567 -13.381   5.379  1.00  0.00     0.180 C 
ENDROOT
BRANCH   1   2
HETATM    2  N   UNL     1      42.031 -12.705   6.618  1.00  0.00    -0.346 N 
HETATM    3  C   UNL     1      41.608 -11.439   6.944  1.00  0.00     0.249 C 
HETATM    4  O   UNL     1      40.656 -10.862   6.421  1.00  0.00    -0.271 OA
HETATM    5  H   UNL     1      42.986 -12.952   6.861  1.00  0.00     0.163 HD
BRANCH   3   6
HETATM    6  C   UNL     1      42.340 -10.740   8.097  1.00  0.00     0.281 C 
HETATM    7  N   UNL     1      43.400 -11.689   8.622  1.00  0.00    -0.058 N 
HETATM    8  C   UNL     1      44.225 -11.107   9.699  1.00  0.00     0.272 C 
HETATM    9  H   UNL     1      42.910 -12.535   8.955  1.00  0.00     0.278 HD
HETATM   10  H   UNL     1      43.974 -12.025   7.839  1.00  0.00     0.278 HD
HETATM   11  C   UNL     1      43.392 -10.492  10.782  1.00  0.00    -0.026 A 
HETATM   12  C   UNL     1      42.049 -10.125  10.553  1.00  0.00    -0.048 A 
HETATM   13  C   UNL     1      43.973 -10.242  12.035  1.00  0.00     0.009 A 
HETATM   14  C   UNL     1      41.307  -9.552  11.595  1.00  0.00     0.008 A 
HETATM   15  C   UNL     1      41.367 -10.401   9.231  1.00  0.00     0.082 C 
HETATM   16  C   UNL     1      41.893  -9.323  12.839  1.00  0.00     0.001 A 
HETATM   17  C   UNL     1      43.224  -9.664  13.058  1.00  0.00     0.001 A 
ENDBRANCH   3   6
ENDBRANCH   1   2
BRANCH   1  18
HETATM   18  C   UNL     1      41.266 -14.845   5.782  1.00  0.00     0.241 C 
HETATM   19  N   UNL     1      42.244 -15.508   6.470  1.00  0.00    -0.353 N 
HETATM   20  H   UNL     1      43.056 -15.022   6.844  1.00  0.00     0.162 HD
HETATM   21  O   UNL     1      40.224 -15.401   5.417  1.00  0.00    -0.271 OA
BRANCH  19  22
HETATM   22  C   UNL     1      42.057 -16.876   6.904  1.00  0.00     0.187 C 
BRANCH  22  23
HETATM   23  C   UNL     1      43.186 -17.715   6.437  1.00  0.00     0.070 A 
HETATM   24  O   UNL     1      44.446 -17.267   6.714  1.00  0.00    -0.325 OA
HETATM   25  C   UNL     1      45.315 -18.182   6.214  1.00  0.00     0.142 A 
HETATM   26  C   UNL     1      44.633 -19.221   5.628  1.00  0.00     0.027 A 
HETATM   27  C   UNL     1      43.256 -18.921   5.769  1.00  0.00     0.036 A 
ENDBRANCH  22  23
ENDBRANCH  19  22
ENDBRANCH   1  18
BRANCH   1  28
HETATM   28  C   UNL     1      42.536 -13.231   4.195  1.00  0.00     0.075 C 
BRANCH  28  29
HETATM   29  C   UNL     1      42.149 -13.990   2.960  1.00  0.00    -0.028 A 
HETATM   30  C   UNL     1      42.668 -15.262   2.545  1.00  0.00    -0.002 A 
HETATM   31  C   UNL     1      42.117 -15.551   1.296  1.00  0.00     0.042 A 
HETATM   32  C   UNL     1      43.576 -16.185   3.104  1.00  0.00     0.014 A 
HETATM   33  C   UNL     1      42.433 -16.709   0.576  1.00  0.00     0.030 A 
HETATM   34  N   UNL     1      41.283 -14.509   0.970  1.00  0.00    -0.365 N 
HETATM   35  C   UNL     1      43.339 -17.604   1.150  1.00  0.00     0.002 A 
HETATM   36  C   UNL     1      43.902 -17.350   2.398  1.00  0.00     0.001 A 
HETATM   37  H   UNL     1      40.761 -14.447   0.104  1.00  0.00     0.165 HD
HETATM   38  C   UNL     1      41.303 -13.560   1.956  1.00  0.00     0.096 A 
ENDBRANCH  28  29
ENDBRANCH   1  28
TORSDOF 7
ENDMDL
MODEL 9
REMARK VINA RESULT:      -8.4      3.950      8.357
REMARK  7 active torsions:
REMARK  status: ('A' for Active; 'I' for Inactive)
REMARK    1  A    between atoms: C_9  and  C_10 
REMARK       I    between atoms: C_10  and  N_11 
REMARK    2  A    between atoms: N_11  and  C_12 
REMARK    3  A    between atoms: C_12  and  C_13 
REMARK    4  A    between atoms: C_12  and  C_22 
REMARK       I    between atoms: C_13  and  N_14 
REMARK    5  A    between atoms: N_14  and  C_15 
REMARK    6  A    between atoms: C_15  and  C_16 
REMARK    7  A    between atoms: C_22  and  C_23 
ROOT
HETATM    1  C   UNL     1      42.216 -16.696   3.525  1.00  0.00     0.180 C 
ENDROOT
BRANCH   1   2
HETATM    2  N   UNL     1      41.725 -15.825   2.426  1.00  0.00    -0.346 N 
HETATM    3  C   UNL     1      41.057 -16.346   1.344  1.00  0.00     0.249 C 
HETATM    4  O   UNL     1      40.588 -17.482   1.290  1.00  0.00    -0.271 OA
HETATM    5  H   UNL     1      42.336 -15.031   2.256  1.00  0.00     0.163 HD
BRANCH   3   6
HETATM    6  C   UNL     1      40.823 -15.405   0.156  1.00  0.00     0.281 C 
HETATM    7  N   UNL     1      41.164 -16.160  -1.114  1.00  0.00    -0.058 N 
HETATM    8  C   UNL     1      40.917 -15.380  -2.343  1.00  0.00     0.272 C 
HETATM    9  H   UNL     1      42.158 -16.429  -1.048  1.00  0.00     0.278 HD
HETATM   10  H   UNL     1      40.662 -17.056  -1.122  1.00  0.00     0.278 HD
HETATM   11  C   UNL     1      41.533 -14.015  -2.282  1.00  0.00    -0.026 A 
HETATM   12  C   UNL     1      41.884 -13.425  -1.049  1.00  0.00    -0.048 A 
HETATM   13  C   UNL     1      41.728 -13.298  -3.472  1.00  0.00     0.009 A 
HETATM   14  C   UNL     1      42.457 -12.146  -1.039  1.00  0.00     0.008 A 
HETATM   15  C   UNL     1      41.722 -14.168   0.259  1.00  0.00     0.082 C 
HETATM   16  C   UNL     1      42.659 -11.451  -2.231  1.00  0.00     0.001 A 
HETATM   17  C   UNL     1      42.292 -12.023  -3.445  1.00  0.00     0.001 A 
ENDBRANCH   3   6
ENDBRANCH   1   2
BRANCH   1  18
HETATM   18  C   UNL     1      42.032 -15.880   4.827  1.00  0.00     0.241 C 
HETATM   19  N   UNL     1      42.181 -14.524   4.732  1.00  0.00    -0.353 N 
HETATM   20  H   UNL     1      42.244 -14.057   3.831  1.00  0.00     0.162 HD
HETATM   21  O   UNL     1      41.846 -16.449   5.909  1.00  0.00    -0.271 OA
BRANCH  19  22
HETATM   22  C   UNL     1      42.017 -13.671   5.889  1.00  0.00     0.187 C 
BRANCH  22  23
HETATM   23  C   UNL     1      40.961 -12.663   5.630  1.00  0.00     0.070 A 
HETATM   24  O   UNL     1      39.932 -13.039   4.814  1.00  0.00    -0.325 OA
HETATM   25  C   UNL     1      39.086 -11.982   4.724  1.00  0.00     0.142 A 
HETATM   26  C   UNL     1      39.547 -10.932   5.481  1.00  0.00     0.027 A 
HETATM   27  C   UNL     1      40.761 -11.369   6.066  1.00  0.00     0.036 A 
ENDBRANCH  22  23
ENDBRANCH  19  22
ENDBRANCH   1  18
BRANCH   1  28
HETATM   28  C   UNL     1      43.643 -17.226   3.300  1.00  0.00     0.075 C 
BRANCH  28  29
HETATM   29  C   UNL     1      43.725 -18.663   2.877  1.00  0.00    -0.028 A 
HETATM   30  C   UNL     1      44.075 -19.777   3.711  1.00  0.00    -0.002 A 
HETATM   31  C   UNL     1      44.130 -20.908   2.896  1.00  0.00     0.042 A 
HETATM   32  C   UNL     1      44.376 -19.926   5.081  1.00  0.00     0.014 A 
HETATM   33  C   UNL     1      44.477 -22.175   3.377  1.00  0.00     0.030 A 
HETATM   34  N   UNL     1      43.810 -20.506   1.621  1.00  0.00    -0.365 N 
HETATM   35  C   UNL     1      44.776 -22.294   4.737  1.00  0.00     0.002 A 
HETATM   36  C   UNL     1      44.723 -21.187   5.580  1.00  0.00     0.001 A 
HETATM   37  H   UNL     1      43.788 -21.122   0.818  1.00  0.00     0.165 HD
HETATM   38  C   UNL     1      43.575 -19.157   1.596  1.00  0.00     0.096 A 
ENDBRANCH  28  29
ENDBRANCH   1  28
TORSDOF 7
ENDMDL
MODEL 10
REMARK VINA RESULT:      -8.2      4.152      8.073
REMARK  7 active torsions:
REMARK  status: ('A' for Active; 'I' for Inactive)
REMARK    1  A    between atoms: C_9  and  C_10 
REMARK       I    between atoms: C_10  and  N_11 
REMARK    2  A    between atoms: N_11  and  C_12 
REMARK    3  A    between atoms: C_12  and  C_13 
REMARK    4  A    between atoms: C_12  and  C_22 
REMARK       I    between atoms: C_13  and  N_14 
REMARK    5  A    between atoms: N_14  and  C_15 
REMARK    6  A    between atoms: C_15  and  C_16 
REMARK    7  A    between atoms: C_22  and  C_23 
ROOT
HETATM    1  C   UNL     1      41.855 -16.766   4.095  1.00  0.00     0.180 C 
ENDROOT
BRANCH   1   2
HETATM    2  N   UNL     1      41.244 -16.705   2.742  1.00  0.00    -0.346 N 
HETATM    3  C   UNL     1      41.584 -15.720   1.846  1.00  0.00     0.249 C 
HETATM    4  O   UNL     1      42.561 -14.981   1.955  1.00  0.00    -0.271 OA
HETATM    5  H   UNL     1      40.280 -17.024   2.736  1.00  0.00     0.163 HD
BRANCH   3   6
HETATM    6  C   UNL     1      40.715 -15.598   0.589  1.00  0.00     0.281 C 
HETATM    7  N   UNL     1      41.637 -15.418  -0.602  1.00  0.00    -0.058 N 
HETATM    8  C   UNL     1      40.922 -15.355  -1.892  1.00  0.00     0.272 C 
HETATM    9  H   UNL     1      42.174 -14.552  -0.440  1.00  0.00     0.278 HD
HETATM   10  H   UNL     1      42.349 -16.159  -0.596  1.00  0.00     0.278 HD
HETATM   11  C   UNL     1      39.790 -14.371  -1.864  1.00  0.00    -0.026 A 
HETATM   12  C   UNL     1      39.228 -13.937  -0.646  1.00  0.00    -0.048 A 
HETATM   13  C   UNL     1      39.258 -13.905  -3.077  1.00  0.00     0.009 A 
HETATM   14  C   UNL     1      38.171 -13.017  -0.667  1.00  0.00     0.008 A 
HETATM   15  C   UNL     1      39.784 -14.385   0.688  1.00  0.00     0.082 C 
HETATM   16  C   UNL     1      37.662 -12.551  -1.879  1.00  0.00     0.001 A 
HETATM   17  C   UNL     1      38.201 -12.997  -3.082  1.00  0.00     0.001 A 
ENDBRANCH   3   6
ENDBRANCH   1   2
BRANCH   1  18
HETATM   18  C   UNL     1      41.276 -15.562   4.876  1.00  0.00     0.241 C 
HETATM   19  N   UNL     1      42.008 -14.407   4.860  1.00  0.00    -0.353 N 
HETATM   20  H   UNL     1      42.802 -14.288   4.237  1.00  0.00     0.162 HD
HETATM   21  O   UNL     1      40.246 -15.681   5.549  1.00  0.00    -0.271 OA
BRANCH  19  22
HETATM   22  C   UNL     1      41.547 -13.221   5.549  1.00  0.00     0.187 C 
BRANCH  22  23
HETATM   23  C   UNL     1      40.600 -12.471   4.690  1.00  0.00     0.070 A 
HETATM   24  O   UNL     1      39.421 -12.083   5.260  1.00  0.00    -0.325 OA
HETATM   25  C   UNL     1      38.721 -11.410   4.312  1.00  0.00     0.142 A 
HETATM   26  C   UNL     1      39.437 -11.348   3.140  1.00  0.00     0.027 A 
HETATM   27  C   UNL     1      40.651 -12.035   3.382  1.00  0.00     0.036 A 
ENDBRANCH  22  23
ENDBRANCH  19  22
ENDBRANCH   1  18
BRANCH   1  28
HETATM   28  C   UNL     1      43.392 -16.834   4.074  1.00  0.00     0.075 C 
BRANCH  28  29
HETATM   29  C   UNL     1      43.971 -18.173   4.424  1.00  0.00    -0.028 A 
HETATM   30  C   UNL     1      44.003 -19.334   3.581  1.00  0.00    -0.002 A 
HETATM   31  C   UNL     1      44.533 -20.382   4.333  1.00  0.00     0.042 A 
HETATM   32  C   UNL     1      43.607 -19.597   2.253  1.00  0.00     0.014 A 
HETATM   33  C   UNL     1      44.680 -21.680   3.829  1.00  0.00     0.030 A 
HETATM   34  N   UNL     1      44.830 -19.880   5.577  1.00  0.00    -0.365 N 
HETATM   35  C   UNL     1      44.274 -21.915   2.513  1.00  0.00     0.002 A 
HETATM   36  C   UNL     1      43.748 -20.889   1.733  1.00  0.00     0.001 A 
HETATM   37  H   UNL     1      45.215 -20.429   6.336  1.00  0.00     0.165 HD
HETATM   38  C   UNL     1      44.486 -18.557   5.648  1.00  0.00     0.096 A 
ENDBRANCH  28  29
ENDBRANCH   1  28
TORSDOF 7
ENDMDL
