MODEL 1
REMARK VINA RESULT:     -10.3      0.000      0.000
REMARK  8 active torsions:
REMARK  status: ('A' for Active; 'I' for Inactive)
REMARK    1  A    between atoms: C_2  and  O_3 
REMARK    2  A    between atoms: C_2  and  C_14 
REMARK    3  A    between atoms: O_3  and  C_4 
REMARK       I    between atoms: C_14  and  N_15 
REMARK    4  A    between atoms: N_15  and  N_16 
REMARK       I    between atoms: N_16  and  C_17 
REMARK    5  A    between atoms: C_17  and  C_18 
REMARK    6  A    between atoms: C_18  and  C_19 
REMARK    7  A    between atoms: C_19  and  C_20 
REMARK    8  A    between atoms: C_20  and  C_21 
ROOT
HETATM    1  N   UNL     1      44.346 -14.162   8.055  1.00  0.00    -0.267 N 
HETATM    2  C   UNL     1      45.354 -13.270   7.734  1.00  0.00     0.236 C 
HETATM    3  O   UNL     1      45.950 -13.296   6.661  1.00  0.00    -0.272 OA
HETATM    4  H   UNL     1      43.667 -13.923   8.777  1.00  0.00     0.190 HD
ENDROOT
BRANCH   1   5
HETATM    5  N   UNL     1      43.826 -14.939   6.999  1.00  0.00    -0.265 N 
HETATM    6  C   UNL     1      43.350 -16.199   7.330  1.00  0.00     0.265 C 
HETATM    7  O   UNL     1      43.596 -16.726   8.414  1.00  0.00    -0.269 OA
HETATM    8  H   UNL     1      43.312 -14.417   6.284  1.00  0.00     0.190 HD
BRANCH   6   9
HETATM    9  C   UNL     1      42.603 -16.895   6.182  1.00  0.00     0.218 C 
HETATM   10  C   UNL     1      41.248 -16.233   5.961  1.00  0.00     0.050 C 
BRANCH   9  11
HETATM   11  O   UNL     1      43.398 -16.776   4.998  1.00  0.00    -0.337 OA
BRANCH  11  12
HETATM   12  C   UNL     1      43.582 -17.886   4.222  1.00  0.00     0.070 A 
HETATM   13  C   UNL     1      44.025 -19.016   4.917  1.00  0.00     0.049 A 
HETATM   14  C   UNL     1      44.260 -20.233   4.257  1.00  0.00    -0.023 A 
HETATM   15  C   UNL     1      44.054 -20.311   2.862  1.00  0.00    -0.026 A 
HETATM   16  C   UNL     1      44.695 -21.374   4.950  1.00  0.00     0.012 A 
HETATM   17  C   UNL     1      43.623 -19.169   2.171  1.00  0.00     0.015 A 
HETATM   18  C   UNL     1      44.289 -21.526   2.197  1.00  0.00     0.012 A 
HETATM   19  C   UNL     1      43.391 -17.965   2.845  1.00  0.00     0.037 A 
HETATM   20  C   UNL     1      44.721 -22.651   2.901  1.00  0.00     0.001 A 
HETATM   21  C   UNL     1      44.924 -22.574   4.276  1.00  0.00     0.001 A 
ENDBRANCH  11  12
ENDBRANCH   9  11
ENDBRANCH   6   9
ENDBRANCH   1   5
BRANCH   2  22
HETATM   22  C   UNL     1      45.676 -12.313   8.865  1.00  0.00     0.105 C 
BRANCH  22  23
HETATM   23  C   UNL     1      44.415 -11.737   9.506  1.00  0.00     0.014 C 
BRANCH  23  24
HETATM   24  C   UNL     1      44.740 -11.026  10.820  1.00  0.00     0.039 C 
BRANCH  24  25
HETATM   25  C   UNL     1      43.496 -10.499  11.497  1.00  0.00    -0.056 A 
HETATM   26  C   UNL     1      42.245 -10.626  10.871  1.00  0.00     0.039 A 
HETATM   27  C   UNL     1      41.153 -10.140  11.553  1.00  0.00     0.063 A 
HETATM   28  C   UNL     1      41.262  -9.549  12.809  1.00  0.00     0.063 A 
HETATM   29  N   UNL     1      39.811 -10.125  11.189  1.00  0.00    -0.306 N 
HETATM   30  N   UNL     1      39.989  -9.170  13.218  1.00  0.00    -0.307 N 
HETATM   31  C   UNL     1      42.467  -9.414  13.453  1.00  0.00     0.032 A 
HETATM   32  C   UNL     1      39.072  -9.524  12.218  1.00  0.00     0.325 A 
HETATM   33  H   UNL     1      39.731  -8.720  14.081  1.00  0.00     0.170 HD
HETATM   34  O   UNL     1      37.868  -9.344  12.239  1.00  0.00    -0.247 OA
HETATM   35  C   UNL     1      43.596  -9.901  12.782  1.00  0.00     0.009 A 
HETATM   36  H   UNL     1      39.404 -10.483  10.341  1.00  0.00     0.170 HD
ENDBRANCH  24  25
ENDBRANCH  23  24
ENDBRANCH  22  23
ENDBRANCH   2  22
TORSDOF 8
ENDMDL
MODEL 2
REMARK VINA RESULT:     -10.2      0.822      1.449
REMARK  8 active torsions:
REMARK  status: ('A' for Active; 'I' for Inactive)
REMARK    1  A    between atoms: C_2  and  O_3 
REMARK    2  A    between atoms: C_2  and  C_14 
REMARK    3  A    between atoms: O_3  and  C_4 
REMARK       I    between atoms: C_14  and  N_15 
REMARK    4  A    between atoms: N_15  and  N_16 
REMARK       I    between atoms: N_16  and  C_17 
REMARK    5  A    between atoms: C_17  and  C_18 
REMARK    6  A    between atoms: C_18  and  C_19 
REMARK    7  A    between atoms: C_19  and  C_20 
REMARK    8  A    between atoms: C_20  and  C_21 
ROOT
HETATM    1  N   UNL     1      44.331 -13.590   7.921  1.00  0.00    -0.267 N 
HETATM    2  C   UNL     1      45.555 -13.019   7.622  1.00  0.00     0.236 C 
HETATM    3  O   UNL     1      46.191 -13.301   6.610  1.00  0.00    -0.272 OA
HETATM    4  H   UNL     1      43.692 -13.117   8.560  1.00  0.00     0.190 HD
ENDROOT
BRANCH   1   5
HETATM    5  N   UNL     1      43.695 -14.308   6.887  1.00  0.00    -0.265 N 
HETATM    6  C   UNL     1      43.349 -15.623   7.165  1.00  0.00     0.265 C 
HETATM    7  O   UNL     1      43.794 -16.222   8.143  1.00  0.00    -0.269 OA
HETATM    8  H   UNL     1      43.045 -13.765   6.312  1.00  0.00     0.190 HD
BRANCH   6   9
HETATM    9  C   UNL     1      42.470 -16.269   6.083  1.00  0.00     0.218 C 
HETATM   10  C   UNL     1      41.331 -15.330   5.704  1.00  0.00     0.050 C 
BRANCH   9  11
HETATM   11  O   UNL     1      43.290 -16.522   4.937  1.00  0.00    -0.337 OA
BRANCH  11  12
HETATM   12  C   UNL     1      43.730 -17.797   4.719  1.00  0.00     0.070 A 
HETATM   13  C   UNL     1      43.340 -18.346   3.493  1.00  0.00     0.049 A 
HETATM   14  C   UNL     1      43.713 -19.649   3.125  1.00  0.00    -0.023 A 
HETATM   15  C   UNL     1      44.490 -20.420   4.016  1.00  0.00    -0.026 A 
HETATM   16  C   UNL     1      43.333 -20.202   1.891  1.00  0.00     0.012 A 
HETATM   17  C   UNL     1      44.865 -19.867   5.249  1.00  0.00     0.015 A 
HETATM   18  C   UNL     1      44.865 -21.724   3.652  1.00  0.00     0.012 A 
HETATM   19  C   UNL     1      44.486 -18.567   5.599  1.00  0.00     0.037 A 
HETATM   20  C   UNL     1      44.479 -22.259   2.421  1.00  0.00     0.001 A 
HETATM   21  C   UNL     1      43.714 -21.498   1.542  1.00  0.00     0.001 A 
ENDBRANCH  11  12
ENDBRANCH   9  11
ENDBRANCH   6   9
ENDBRANCH   1   5
BRANCH   2  22
HETATM   22  C   UNL     1      46.042 -12.070   8.698  1.00  0.00     0.105 C 
BRANCH  22  23
HETATM   23  C   UNL     1      45.246 -12.213   9.993  1.00  0.00     0.014 C 
BRANCH  23  24
HETATM   24  C   UNL     1      45.291 -10.924  10.814  1.00  0.00     0.039 C 
BRANCH  24  25
HETATM   25  C   UNL     1      43.909 -10.465  11.218  1.00  0.00    -0.056 A 
HETATM   26  C   UNL     1      42.837 -10.580  10.317  1.00  0.00     0.039 A 
HETATM   27  C   UNL     1      41.603 -10.159  10.758  1.00  0.00     0.063 A 
HETATM   28  C   UNL     1      41.405  -9.643  12.037  1.00  0.00     0.063 A 
HETATM   29  N   UNL     1      40.379 -10.150  10.100  1.00  0.00    -0.306 N 
HETATM   30  N   UNL     1      40.060  -9.317  12.165  1.00  0.00    -0.307 N 
HETATM   31  C   UNL     1      42.428  -9.522  12.944  1.00  0.00     0.032 A 
HETATM   32  C   UNL     1      39.406  -9.628  10.964  1.00  0.00     0.325 A 
HETATM   33  H   UNL     1      39.599  -8.925  12.969  1.00  0.00     0.170 HD
HETATM   34  O   UNL     1      38.223  -9.475  10.721  1.00  0.00    -0.247 OA
HETATM   35  C   UNL     1      43.695  -9.944  12.522  1.00  0.00     0.009 A 
HETATM   36  H   UNL     1      40.186 -10.464   9.163  1.00  0.00     0.170 HD
ENDBRANCH  24  25
ENDBRANCH  23  24
ENDBRANCH  22  23
ENDBRANCH   2  22
TORSDOF 8
ENDMDL
MODEL 3
REMARK VINA RESULT:      -9.8      1.264      1.576
REMARK  8 active torsions:
REMARK  status: ('A' for Active; 'I' for Inactive)
REMARK    1  A    between atoms: C_2  and  O_3 
REMARK    2  A    between atoms: C_2  and  C_14 
REMARK    3  A    between atoms: O_3  and  C_4 
REMARK       I    between atoms: C_14  and  N_15 
REMARK    4  A    between atoms: N_15  and  N_16 
REMARK       I    between atoms: N_16  and  C_17 
REMARK    5  A    between atoms: C_17  and  C_18 
REMARK    6  A    between atoms: C_18  and  C_19 
REMARK    7  A    between atoms: C_19  and  C_20 
REMARK    8  A    between atoms: C_20  and  C_21 
ROOT
HETATM    1  N   UNL     1      43.699 -13.051   6.893  1.00  0.00    -0.267 N 
HETATM    2  C   UNL     1      44.480 -13.513   7.938  1.00  0.00     0.236 C 
HETATM    3  O   UNL     1      44.356 -14.638   8.415  1.00  0.00    -0.272 OA
HETATM    4  H   UNL     1      44.028 -12.277   6.316  1.00  0.00     0.190 HD
ENDROOT
BRANCH   1   5
HETATM    5  N   UNL     1      42.934 -14.011   6.199  1.00  0.00    -0.265 N 
HETATM    6  C   UNL     1      43.340 -14.316   4.908  1.00  0.00     0.265 C 
HETATM    7  O   UNL     1      44.149 -13.617   4.296  1.00  0.00    -0.269 OA
HETATM    8  H   UNL     1      42.574 -14.781   6.770  1.00  0.00     0.190 HD
BRANCH   6   9
HETATM    9  C   UNL     1      42.603 -15.518   4.299  1.00  0.00     0.218 C 
HETATM   10  C   UNL     1      41.169 -15.133   3.953  1.00  0.00     0.050 C 
BRANCH   9  11
HETATM   11  O   UNL     1      43.298 -15.910   3.111  1.00  0.00    -0.337 OA
BRANCH  11  12
HETATM   12  C   UNL     1      43.530 -17.240   2.900  1.00  0.00     0.070 A 
HETATM   13  C   UNL     1      43.921 -17.951   4.040  1.00  0.00     0.049 A 
HETATM   14  C   UNL     1      44.197 -19.327   3.983  1.00  0.00    -0.023 A 
HETATM   15  C   UNL     1      44.084 -20.001   2.747  1.00  0.00    -0.026 A 
HETATM   16  C   UNL     1      44.580 -20.048   5.125  1.00  0.00     0.012 A 
HETATM   17  C   UNL     1      43.705 -19.278   1.607  1.00  0.00     0.015 A 
HETATM   18  C   UNL     1      44.360 -21.377   2.685  1.00  0.00     0.012 A 
HETATM   19  C   UNL     1      43.432 -17.907   1.682  1.00  0.00     0.037 A 
HETATM   20  C   UNL     1      44.740 -22.079   3.830  1.00  0.00     0.001 A 
HETATM   21  C   UNL     1      44.849 -21.415   5.049  1.00  0.00     0.001 A 
ENDBRANCH  11  12
ENDBRANCH   9  11
ENDBRANCH   6   9
ENDBRANCH   1   5
BRANCH   2  22
HETATM   22  C   UNL     1      45.446 -12.468   8.459  1.00  0.00     0.105 C 
BRANCH  22  23
HETATM   23  C   UNL     1      44.734 -11.373   9.251  1.00  0.00     0.014 C 
BRANCH  23  24
HETATM   24  C   UNL     1      44.654 -11.730  10.736  1.00  0.00     0.039 C 
BRANCH  24  25
HETATM   25  C   UNL     1      43.487 -11.051  11.415  1.00  0.00    -0.056 A 
HETATM   26  C   UNL     1      42.194 -11.166  10.877  1.00  0.00     0.039 A 
HETATM   27  C   UNL     1      41.176 -10.538  11.557  1.00  0.00     0.063 A 
HETATM   28  C   UNL     1      41.397  -9.819  12.730  1.00  0.00     0.063 A 
HETATM   29  N   UNL     1      39.818 -10.477  11.268  1.00  0.00    -0.306 N 
HETATM   30  N   UNL     1      40.175  -9.316  13.162  1.00  0.00    -0.307 N 
HETATM   31  C   UNL     1      42.645  -9.691  13.286  1.00  0.00     0.032 A 
HETATM   32  C   UNL     1      39.179  -9.718  12.260  1.00  0.00     0.325 A 
HETATM   33  H   UNL     1      39.998  -8.757  13.980  1.00  0.00     0.170 HD
HETATM   34  O   UNL     1      37.991  -9.460  12.327  1.00  0.00    -0.247 OA
HETATM   35  C   UNL     1      43.700 -10.322  12.615  1.00  0.00     0.009 A 
HETATM   36  H   UNL     1      39.339 -10.899  10.491  1.00  0.00     0.170 HD
ENDBRANCH  24  25
ENDBRANCH  23  24
ENDBRANCH  22  23
ENDBRANCH   2  22
TORSDOF 8
ENDMDL
MODEL 4
REMARK VINA RESULT:      -9.6      2.785     11.612
REMARK  8 active torsions:
REMARK  status: ('A' for Active; 'I' for Inactive)
REMARK    1  A    between atoms: C_2  and  O_3 
REMARK    2  A    between atoms: C_2  and  C_14 
REMARK    3  A    between atoms: O_3  and  C_4 
REMARK       I    between atoms: C_14  and  N_15 
REMARK    4  A    between atoms: N_15  and  N_16 
REMARK       I    between atoms: N_16  and  C_17 
REMARK    5  A    between atoms: C_17  and  C_18 
REMARK    6  A    between atoms: C_18  and  C_19 
REMARK    7  A    between atoms: C_19  and  C_20 
REMARK    8  A    between atoms: C_20  and  C_21 
ROOT
HETATM    1  N   UNL     1      42.960 -13.650   6.148  1.00  0.00    -0.267 N 
HETATM    2  C   UNL     1      42.404 -13.041   5.036  1.00  0.00     0.236 C 
HETATM    3  O   UNL     1      41.948 -11.901   5.059  1.00  0.00    -0.272 OA
HETATM    4  H   UNL     1      43.607 -14.429   6.029  1.00  0.00     0.190 HD
ENDROOT
BRANCH   1   5
HETATM    5  N   UNL     1      43.242 -12.820   7.252  1.00  0.00    -0.265 N 
HETATM    6  C   UNL     1      44.407 -13.093   7.955  1.00  0.00     0.265 C 
HETATM    7  O   UNL     1      45.028 -14.145   7.803  1.00  0.00    -0.269 OA
HETATM    8  H   UNL     1      42.985 -11.835   7.137  1.00  0.00     0.190 HD
BRANCH   6   9
HETATM    9  C   UNL     1      44.761 -12.023   8.998  1.00  0.00     0.218 C 
HETATM   10  C   UNL     1      46.200 -11.561   8.808  1.00  0.00     0.050 C 
BRANCH   9  11
HETATM   11  O   UNL     1      43.870 -10.918   8.820  1.00  0.00    -0.337 OA
BRANCH  11  12
HETATM   12  C   UNL     1      43.015 -10.598   9.838  1.00  0.00     0.070 A 
HETATM   13  C   UNL     1      43.643 -10.280  11.047  1.00  0.00     0.049 A 
HETATM   14  C   UNL     1      42.899  -9.931  12.186  1.00  0.00    -0.023 A 
HETATM   15  C   UNL     1      41.489  -9.912  12.108  1.00  0.00    -0.026 A 
HETATM   16  C   UNL     1      43.524  -9.601  13.400  1.00  0.00     0.012 A 
HETATM   17  C   UNL     1      40.868 -10.246  10.896  1.00  0.00     0.015 A 
HETATM   18  C   UNL     1      40.741  -9.564  13.246  1.00  0.00     0.012 A 
HETATM   19  C   UNL     1      41.625 -10.589   9.771  1.00  0.00     0.037 A 
HETATM   20  C   UNL     1      41.378  -9.238  14.444  1.00  0.00     0.001 A 
HETATM   21  C   UNL     1      42.768  -9.256  14.521  1.00  0.00     0.001 A 
ENDBRANCH  11  12
ENDBRANCH   9  11
ENDBRANCH   6   9
ENDBRANCH   1   5
BRANCH   2  22
HETATM   22  C   UNL     1      42.366 -13.949   3.823  1.00  0.00     0.105 C 
BRANCH  22  23
HETATM   23  C   UNL     1      41.626 -15.254   4.107  1.00  0.00     0.014 C 
BRANCH  23  24
HETATM   24  C   UNL     1      41.649 -16.177   2.888  1.00  0.00     0.039 C 
BRANCH  24  25
HETATM   25  C   UNL     1      42.487 -17.411   3.132  1.00  0.00    -0.056 A 
HETATM   26  C   UNL     1      42.466 -18.472   2.211  1.00  0.00     0.039 A 
HETATM   27  C   UNL     1      43.267 -19.556   2.489  1.00  0.00     0.063 A 
HETATM   28  C   UNL     1      44.072 -19.616   3.624  1.00  0.00     0.063 A 
HETATM   29  N   UNL     1      43.449 -20.734   1.773  1.00  0.00    -0.306 N 
HETATM   30  N   UNL     1      44.749 -20.830   3.606  1.00  0.00    -0.307 N 
HETATM   31  C   UNL     1      44.122 -18.596   4.541  1.00  0.00     0.032 A 
HETATM   32  C   UNL     1      44.371 -21.539   2.457  1.00  0.00     0.325 A 
HETATM   33  H   UNL     1      45.408 -21.173   4.285  1.00  0.00     0.170 HD
HETATM   34  O   UNL     1      44.767 -22.639   2.119  1.00  0.00    -0.247 OA
HETATM   35  C   UNL     1      43.318 -17.479   4.283  1.00  0.00     0.009 A 
HETATM   36  H   UNL     1      43.013 -20.995   0.904  1.00  0.00     0.170 HD
ENDBRANCH  24  25
ENDBRANCH  23  24
ENDBRANCH  22  23
ENDBRANCH   2  22
TORSDOF 8
ENDMDL
MODEL 5
REMARK VINA RESULT:      -9.5      1.867      2.307
REMARK  8 active torsions:
REMARK  status: ('A' for Active; 'I' for Inactive)
REMARK    1  A    between atoms: C_2  and  O_3 
REMARK    2  A    between atoms: C_2  and  C_14 
REMARK    3  A    between atoms: O_3  and  C_4 
REMARK       I    between atoms: C_14  and  N_15 
REMARK    4  A    between atoms: N_15  and  N_16 
REMARK       I    between atoms: N_16  and  C_17 
REMARK    5  A    between atoms: C_17  and  C_18 
REMARK    6  A    between atoms: C_18  and  C_19 
REMARK    7  A    between atoms: C_19  and  C_20 
REMARK    8  A    between atoms: C_20  and  C_21 
ROOT
HETATM    1  N   UNL     1      44.153 -14.022   7.714  1.00  0.00    -0.267 N 
HETATM    2  C   UNL     1      45.319 -13.303   7.516  1.00  0.00     0.236 C 
HETATM    3  O   UNL     1      46.065 -13.494   6.559  1.00  0.00    -0.272 OA
HETATM    4  H   UNL     1      43.412 -13.636   8.299  1.00  0.00     0.190 HD
ENDROOT
BRANCH   1   5
HETATM    5  N   UNL     1      43.695 -14.800   6.631  1.00  0.00    -0.265 N 
HETATM    6  C   UNL     1      42.815 -14.186   5.752  1.00  0.00     0.265 C 
HETATM    7  O   UNL     1      42.254 -13.125   6.025  1.00  0.00    -0.269 OA
HETATM    8  H   UNL     1      44.384 -15.443   6.231  1.00  0.00     0.190 HD
BRANCH   6   9
HETATM    9  C   UNL     1      42.534 -15.012   4.488  1.00  0.00     0.218 C 
HETATM   10  C   UNL     1      42.286 -14.087   3.302  1.00  0.00     0.050 C 
BRANCH   9  11
HETATM   11  O   UNL     1      43.677 -15.833   4.230  1.00  0.00    -0.337 OA
BRANCH  11  12
HETATM   12  C   UNL     1      43.499 -17.004   3.548  1.00  0.00     0.070 A 
HETATM   13  C   UNL     1      44.188 -18.098   4.081  1.00  0.00     0.049 A 
HETATM   14  C   UNL     1      44.106 -19.370   3.490  1.00  0.00    -0.023 A 
HETATM   15  C   UNL     1      43.319 -19.541   2.330  1.00  0.00    -0.026 A 
HETATM   16  C   UNL     1      44.787 -20.475   4.025  1.00  0.00     0.012 A 
HETATM   17  C   UNL     1      42.643 -18.435   1.795  1.00  0.00     0.015 A 
HETATM   18  C   UNL     1      43.235 -20.811   1.735  1.00  0.00     0.012 A 
HETATM   19  C   UNL     1      42.734 -17.175   2.397  1.00  0.00     0.037 A 
HETATM   20  C   UNL     1      43.918 -21.899   2.281  1.00  0.00     0.001 A 
HETATM   21  C   UNL     1      44.693 -21.731   3.425  1.00  0.00     0.001 A 
ENDBRANCH  11  12
ENDBRANCH   9  11
ENDBRANCH   6   9
ENDBRANCH   1   5
BRANCH   2  22
HETATM   22  C   UNL     1      45.599 -12.314   8.629  1.00  0.00     0.105 C 
BRANCH  22  23
HETATM   23  C   UNL     1      44.417 -12.179   9.587  1.00  0.00     0.014 C 
BRANCH  23  24
HETATM   24  C   UNL     1      44.027 -10.713   9.779  1.00  0.00     0.039 C 
BRANCH  24  25
HETATM   25  C   UNL     1      43.228 -10.503  11.044  1.00  0.00    -0.056 A 
HETATM   26  C   UNL     1      43.771  -9.761  12.106  1.00  0.00     0.039 A 
HETATM   27  C   UNL     1      42.981  -9.596  13.221  1.00  0.00     0.063 A 
HETATM   28  C   UNL     1      41.698 -10.129  13.310  1.00  0.00     0.063 A 
HETATM   29  N   UNL     1      43.247  -8.922  14.407  1.00  0.00    -0.306 N 
HETATM   30  N   UNL     1      41.174  -9.783  14.550  1.00  0.00    -0.307 N 
HETATM   31  C   UNL     1      41.133 -10.854  12.290  1.00  0.00     0.032 A 
HETATM   32  C   UNL     1      42.129  -9.029  15.247  1.00  0.00     0.325 A 
HETATM   33  H   UNL     1      40.266 -10.015  14.918  1.00  0.00     0.170 HD
HETATM   34  O   UNL     1      42.010  -8.559  16.364  1.00  0.00    -0.247 OA
HETATM   35  C   UNL     1      41.914 -11.037  11.142  1.00  0.00     0.009 A 
HETATM   36  H   UNL     1      44.087  -8.425  14.653  1.00  0.00     0.170 HD
ENDBRANCH  24  25
ENDBRANCH  23  24
ENDBRANCH  22  23
ENDBRANCH   2  22
TORSDOF 8
ENDMDL
MODEL 6
REMARK VINA RESULT:      -9.4      2.727      4.133
REMARK  8 active torsions:
REMARK  status: ('A' for Active; 'I' for Inactive)
REMARK    1  A    between atoms: C_2  and  O_3 
REMARK    2  A    between atoms: C_2  and  C_14 
REMARK    3  A    between atoms: O_3  and  C_4 
REMARK       I    between atoms: C_14  and  N_15 
REMARK    4  A    between atoms: N_15  and  N_16 
REMARK       I    between atoms: N_16  and  C_17 
REMARK    5  A    between atoms: C_17  and  C_18 
REMARK    6  A    between atoms: C_18  and  C_19 
REMARK    7  A    between atoms: C_19  and  C_20 
REMARK    8  A    between atoms: C_20  and  C_21 
ROOT
HETATM    1  N   UNL     1      40.140 -13.537   6.698  1.00  0.00    -0.267 N 
HETATM    2  C   UNL     1      39.280 -12.463   6.555  1.00  0.00     0.236 C 
HETATM    3  O   UNL     1      38.705 -12.207   5.500  1.00  0.00    -0.272 OA
HETATM    4  H   UNL     1      40.333 -13.913   7.627  1.00  0.00     0.190 HD
ENDROOT
BRANCH   1   5
HETATM    5  N   UNL     1      40.130 -14.502   5.669  1.00  0.00    -0.265 N 
HETATM    6  C   UNL     1      41.325 -14.705   4.995  1.00  0.00     0.265 C 
HETATM    7  O   UNL     1      42.271 -13.923   5.092  1.00  0.00    -0.269 OA
HETATM    8  H   UNL     1      39.546 -15.324   5.846  1.00  0.00     0.190 HD
BRANCH   6   9
HETATM    9  C   UNL     1      41.298 -15.914   4.047  1.00  0.00     0.218 C 
HETATM   10  C   UNL     1      40.376 -15.634   2.867  1.00  0.00     0.050 C 
BRANCH   9  11
HETATM   11  O   UNL     1      42.630 -16.139   3.577  1.00  0.00    -0.337 OA
BRANCH  11  12
HETATM   12  C   UNL     1      43.201 -17.363   3.794  1.00  0.00     0.070 A 
HETATM   13  C   UNL     1      43.025 -18.279   2.753  1.00  0.00     0.049 A 
HETATM   14  C   UNL     1      43.552 -19.579   2.828  1.00  0.00    -0.023 A 
HETATM   15  C   UNL     1      44.264 -19.968   3.984  1.00  0.00    -0.026 A 
HETATM   16  C   UNL     1      43.388 -20.502   1.782  1.00  0.00     0.012 A 
HETATM   17  C   UNL     1      44.422 -19.047   5.030  1.00  0.00     0.015 A 
HETATM   18  C   UNL     1      44.791 -21.267   4.065  1.00  0.00     0.012 A 
HETATM   19  C   UNL     1      43.893 -17.755   4.937  1.00  0.00     0.037 A 
HETATM   20  C   UNL     1      44.620 -22.171   3.015  1.00  0.00     0.001 A 
HETATM   21  C   UNL     1      43.919 -21.788   1.875  1.00  0.00     0.001 A 
ENDBRANCH  11  12
ENDBRANCH   9  11
ENDBRANCH   6   9
ENDBRANCH   1   5
BRANCH   2  22
HETATM   22  C   UNL     1      39.178 -11.618   7.808  1.00  0.00     0.105 C 
BRANCH  22  23
HETATM   23  C   UNL     1      39.577 -10.166   7.555  1.00  0.00     0.014 C 
BRANCH  23  24
HETATM   24  C   UNL     1      39.853  -9.432   8.868  1.00  0.00     0.039 C 
BRANCH  24  25
HETATM   25  C   UNL     1      40.837 -10.182   9.735  1.00  0.00    -0.056 A 
HETATM   26  C   UNL     1      42.087 -10.562   9.218  1.00  0.00     0.039 A 
HETATM   27  C   UNL     1      42.940 -11.227  10.069  1.00  0.00     0.063 A 
HETATM   28  C   UNL     1      42.599 -11.516  11.389  1.00  0.00     0.063 A 
HETATM   29  N   UNL     1      44.220 -11.718   9.841  1.00  0.00    -0.306 N 
HETATM   30  N   UNL     1      43.669 -12.185  11.971  1.00  0.00    -0.307 N 
HETATM   31  C   UNL     1      41.390 -11.155  11.929  1.00  0.00     0.032 A 
HETATM   32  C   UNL     1      44.689 -12.319  11.018  1.00  0.00     0.325 A 
HETATM   33  H   UNL     1      43.736 -12.527  12.916  1.00  0.00     0.170 HD
HETATM   34  O   UNL     1      45.770 -12.853  11.182  1.00  0.00    -0.247 OA
HETATM   35  C   UNL     1      40.502 -10.476  11.085  1.00  0.00     0.009 A 
HETATM   36  H   UNL     1      44.752 -11.665   8.989  1.00  0.00     0.170 HD
ENDBRANCH  24  25
ENDBRANCH  23  24
ENDBRANCH  22  23
ENDBRANCH   2  22
TORSDOF 8
ENDMDL
MODEL 7
REMARK VINA RESULT:      -9.4      2.945      4.344
REMARK  8 active torsions:
REMARK  status: ('A' for Active; 'I' for Inactive)
REMARK    1  A    between atoms: C_2  and  O_3 
REMARK    2  A    between atoms: C_2  and  C_14 
REMARK    3  A    between atoms: O_3  and  C_4 
REMARK       I    between atoms: C_14  and  N_15 
REMARK    4  A    between atoms: N_15  and  N_16 
REMARK       I    between atoms: N_16  and  C_17 
REMARK    5  A    between atoms: C_17  and  C_18 
REMARK    6  A    between atoms: C_18  and  C_19 
REMARK    7  A    between atoms: C_19  and  C_20 
REMARK    8  A    between atoms: C_20  and  C_21 
ROOT
HETATM    1  N   UNL     1      39.623 -14.577   4.072  1.00  0.00    -0.267 N 
HETATM    2  C   UNL     1      40.015 -14.213   5.348  1.00  0.00     0.236 C 
HETATM    3  O   UNL     1      40.826 -14.860   6.006  1.00  0.00    -0.272 OA
HETATM    4  H   UNL     1      39.227 -13.877   3.444  1.00  0.00     0.190 HD
ENDROOT
BRANCH   1   5
HETATM    5  N   UNL     1      40.391 -15.569   3.430  1.00  0.00    -0.265 N 
HETATM    6  C   UNL     1      40.273 -15.651   2.050  1.00  0.00     0.265 C 
HETATM    7  O   UNL     1      39.368 -15.085   1.438  1.00  0.00    -0.269 OA
HETATM    8  H   UNL     1      41.319 -15.732   3.831  1.00  0.00     0.190 HD
BRANCH   6   9
HETATM    9  C   UNL     1      41.295 -16.597   1.401  1.00  0.00     0.218 C 
HETATM   10  C   UNL     1      41.425 -16.287  -0.086  1.00  0.00     0.050 C 
BRANCH   9  11
HETATM   11  O   UNL     1      42.556 -16.399   2.048  1.00  0.00    -0.337 OA
BRANCH  11  12
HETATM   12  C   UNL     1      43.123 -17.454   2.707  1.00  0.00     0.070 A 
HETATM   13  C   UNL     1      43.140 -18.651   1.984  1.00  0.00     0.049 A 
HETATM   14  C   UNL     1      43.688 -19.824   2.527  1.00  0.00    -0.023 A 
HETATM   15  C   UNL     1      44.224 -19.793   3.833  1.00  0.00    -0.026 A 
HETATM   16  C   UNL     1      43.718 -21.027   1.803  1.00  0.00     0.012 A 
HETATM   17  C   UNL     1      44.190 -18.592   4.556  1.00  0.00     0.015 A 
HETATM   18  C   UNL     1      44.774 -20.964   4.381  1.00  0.00     0.012 A 
HETATM   19  C   UNL     1      43.641 -17.432   3.999  1.00  0.00     0.037 A 
HETATM   20  C   UNL     1      44.795 -22.151   3.647  1.00  0.00     0.001 A 
HETATM   21  C   UNL     1      44.268 -22.182   2.359  1.00  0.00     0.001 A 
ENDBRANCH  11  12
ENDBRANCH   9  11
ENDBRANCH   6   9
ENDBRANCH   1   5
BRANCH   2  22
HETATM   22  C   UNL     1      39.295 -12.981   5.859  1.00  0.00     0.105 C 
BRANCH  22  23
HETATM   23  C   UNL     1      40.085 -11.702   5.590  1.00  0.00     0.014 C 
BRANCH  23  24
HETATM   24  C   UNL     1      39.631 -10.569   6.511  1.00  0.00     0.039 C 
BRANCH  24  25
HETATM   25  C   UNL     1      40.299 -10.642   7.864  1.00  0.00    -0.056 A 
HETATM   26  C   UNL     1      39.537 -10.918   9.013  1.00  0.00     0.039 A 
HETATM   27  C   UNL     1      40.214 -10.987  10.209  1.00  0.00     0.063 A 
HETATM   28  C   UNL     1      41.591 -10.799  10.298  1.00  0.00     0.063 A 
HETATM   29  N   UNL     1      39.733 -11.238  11.489  1.00  0.00    -0.306 N 
HETATM   30  N   UNL     1      41.958 -10.934  11.632  1.00  0.00    -0.307 N 
HETATM   31  C   UNL     1      42.367 -10.534   9.197  1.00  0.00     0.032 A 
HETATM   32  C   UNL     1      40.810 -11.209  12.388  1.00  0.00     0.325 A 
HETATM   33  H   UNL     1      42.882 -10.857  12.024  1.00  0.00     0.170 HD
HETATM   34  O   UNL     1      40.758 -11.388  13.591  1.00  0.00    -0.247 OA
HETATM   35  C   UNL     1      41.704 -10.459   7.965  1.00  0.00     0.009 A 
HETATM   36  H   UNL     1      38.782 -11.420  11.761  1.00  0.00     0.170 HD
ENDBRANCH  24  25
ENDBRANCH  23  24
ENDBRANCH  22  23
ENDBRANCH   2  22
TORSDOF 8
ENDMDL
MODEL 8
REMARK VINA RESULT:      -9.3      2.649      3.589
REMARK  8 active torsions:
REMARK  status: ('A' for Active; 'I' for Inactive)
REMARK    1  A    between atoms: C_2  and  O_3 
REMARK    2  A    between atoms: C_2  and  C_14 
REMARK    3  A    between atoms: O_3  and  C_4 
REMARK       I    between atoms: C_14  and  N_15 
REMARK    4  A    between atoms: N_15  and  N_16 
REMARK       I    between atoms: N_16  and  C_17 
REMARK    5  A    between atoms: C_17  and  C_18 
REMARK    6  A    between atoms: C_18  and  C_19 
REMARK    7  A    between atoms: C_19  and  C_20 
REMARK    8  A    between atoms: C_20  and  C_21 
ROOT
HETATM    1  N   UNL     1      39.899 -13.493   6.934  1.00  0.00    -0.267 N 
HETATM    2  C   UNL     1      39.324 -12.235   6.883  1.00  0.00     0.236 C 
HETATM    3  O   UNL     1      38.987 -11.699   5.831  1.00  0.00    -0.272 OA
HETATM    4  H   UNL     1      39.861 -14.034   7.797  1.00  0.00     0.190 HD
ENDROOT
BRANCH   1   5
HETATM    5  N   UNL     1      39.838 -14.267   5.757  1.00  0.00    -0.265 N 
HETATM    6  C   UNL     1      41.045 -14.549   5.134  1.00  0.00     0.265 C 
HETATM    7  O   UNL     1      42.083 -13.955   5.423  1.00  0.00    -0.269 OA
HETATM    8  H   UNL     1      39.126 -15.003   5.754  1.00  0.00     0.190 HD
BRANCH   6   9
HETATM    9  C   UNL     1      40.925 -15.572   3.995  1.00  0.00     0.218 C 
HETATM   10  C   UNL     1      39.971 -15.055   2.925  1.00  0.00     0.050 C 
BRANCH   9  11
HETATM   11  O   UNL     1      42.226 -15.765   3.431  1.00  0.00    -0.337 OA
BRANCH  11  12
HETATM   12  C   UNL     1      42.875 -16.942   3.676  1.00  0.00     0.070 A 
HETATM   13  C   UNL     1      42.733 -17.905   2.672  1.00  0.00     0.049 A 
HETATM   14  C   UNL     1      43.340 -19.167   2.779  1.00  0.00    -0.023 A 
HETATM   15  C   UNL     1      44.102 -19.469   3.930  1.00  0.00    -0.026 A 
HETATM   16  C   UNL     1      43.210 -20.135   1.770  1.00  0.00     0.012 A 
HETATM   17  C   UNL     1      44.227 -18.502   4.938  1.00  0.00     0.015 A 
HETATM   18  C   UNL     1      44.711 -20.730   4.042  1.00  0.00     0.012 A 
HETATM   19  C   UNL     1      43.617 -17.249   4.814  1.00  0.00     0.037 A 
HETATM   20  C   UNL     1      44.571 -21.680   3.029  1.00  0.00     0.001 A 
HETATM   21  C   UNL     1      43.821 -21.383   1.895  1.00  0.00     0.001 A 
ENDBRANCH  11  12
ENDBRANCH   9  11
ENDBRANCH   6   9
ENDBRANCH   1   5
BRANCH   2  22
HETATM   22  C   UNL     1      39.216 -11.580   8.246  1.00  0.00     0.105 C 
BRANCH  22  23
HETATM   23  C   UNL     1      39.695 -10.130   8.225  1.00  0.00     0.014 C 
BRANCH  23  24
HETATM   24  C   UNL     1      41.215 -10.049   8.364  1.00  0.00     0.039 C 
BRANCH  24  25
HETATM   25  C   UNL     1      41.660 -10.230   9.796  1.00  0.00    -0.056 A 
HETATM   26  C   UNL     1      40.870  -9.734  10.848  1.00  0.00     0.039 A 
HETATM   27  C   UNL     1      41.327  -9.950  12.128  1.00  0.00     0.063 A 
HETATM   28  C   UNL     1      42.515 -10.629  12.390  1.00  0.00     0.063 A 
HETATM   29  N   UNL     1      40.768  -9.581  13.346  1.00  0.00    -0.306 N 
HETATM   30  N   UNL     1      42.686 -10.678  13.768  1.00  0.00    -0.307 N 
HETATM   31  C   UNL     1      43.308 -11.132  11.388  1.00  0.00     0.032 A 
HETATM   32  C   UNL     1      41.604 -10.028  14.379  1.00  0.00     0.325 A 
HETATM   33  H   UNL     1      43.445 -11.102  14.277  1.00  0.00     0.170 HD
HETATM   34  O   UNL     1      41.426  -9.881  15.575  1.00  0.00    -0.247 OA
HETATM   35  C   UNL     1      42.866 -10.928  10.075  1.00  0.00     0.009 A 
HETATM   36  H   UNL     1      39.908  -9.081  13.497  1.00  0.00     0.170 HD
ENDBRANCH  24  25
ENDBRANCH  23  24
ENDBRANCH  22  23
ENDBRANCH   2  22
TORSDOF 8
ENDMDL
MODEL 9
REMARK VINA RESULT:      -9.3      4.638      8.635
REMARK  8 active torsions:
REMARK  status: ('A' for Active; 'I' for Inactive)
REMARK    1  A    between atoms: C_2  and  O_3 
REMARK    2  A    between atoms: C_2  and  C_14 
REMARK    3  A    between atoms: O_3  and  C_4 
REMARK       I    between atoms: C_14  and  N_15 
REMARK    4  A    between atoms: N_15  and  N_16 
REMARK       I    between atoms: N_16  and  C_17 
REMARK    5  A    between atoms: C_17  and  C_18 
REMARK    6  A    between atoms: C_18  and  C_19 
REMARK    7  A    between atoms: C_19  and  C_20 
REMARK    8  A    between atoms: C_20  and  C_21 
ROOT
HETATM    1  N   UNL     1      41.309 -12.430   5.324  1.00  0.00    -0.267 N 
HETATM    2  C   UNL     1      39.943 -12.647   5.298  1.00  0.00     0.236 C 
HETATM    3  O   UNL     1      39.435 -13.728   5.584  1.00  0.00    -0.272 OA
HETATM    4  H   UNL     1      41.671 -11.480   5.409  1.00  0.00     0.190 HD
ENDROOT
BRANCH   1   5
HETATM    5  N   UNL     1      42.097 -13.412   5.959  1.00  0.00    -0.265 N 
HETATM    6  C   UNL     1      43.311 -13.718   5.361  1.00  0.00     0.265 C 
HETATM    7  O   UNL     1      43.582 -13.362   4.215  1.00  0.00    -0.269 OA
HETATM    8  H   UNL     1      42.068 -13.403   6.982  1.00  0.00     0.190 HD
BRANCH   6   9
HETATM    9  C   UNL     1      44.206 -14.626   6.218  1.00  0.00     0.218 C 
HETATM   10  C   UNL     1      44.577 -13.921   7.517  1.00  0.00     0.050 C 
BRANCH   9  11
HETATM   11  O   UNL     1      43.477 -15.823   6.508  1.00  0.00    -0.337 OA
BRANCH  11  12
HETATM   12  C   UNL     1      43.862 -16.985   5.899  1.00  0.00     0.070 A 
HETATM   13  C   UNL     1      43.234 -17.237   4.676  1.00  0.00     0.049 A 
HETATM   14  C   UNL     1      43.524 -18.392   3.931  1.00  0.00    -0.023 A 
HETATM   15  C   UNL     1      44.462 -19.319   4.436  1.00  0.00    -0.026 A 
HETATM   16  C   UNL     1      42.905 -18.647   2.697  1.00  0.00     0.012 A 
HETATM   17  C   UNL     1      45.076 -19.065   5.671  1.00  0.00     0.015 A 
HETATM   18  C   UNL     1      44.755 -20.476   3.695  1.00  0.00     0.012 A 
HETATM   19  C   UNL     1      44.777 -17.908   6.398  1.00  0.00     0.037 A 
HETATM   20  C   UNL     1      44.130 -20.714   2.469  1.00  0.00     0.001 A 
HETATM   21  C   UNL     1      43.206 -19.800   1.971  1.00  0.00     0.001 A 
ENDBRANCH  11  12
ENDBRANCH   9  11
ENDBRANCH   6   9
ENDBRANCH   1   5
BRANCH   2  22
HETATM   22  C   UNL     1      39.162 -11.437   4.824  1.00  0.00     0.105 C 
BRANCH  22  23
HETATM   23  C   UNL     1      39.330 -11.198   3.325  1.00  0.00     0.014 C 
BRANCH  23  24
HETATM   24  C   UNL     1      38.601 -12.267   2.511  1.00  0.00     0.039 C 
BRANCH  24  25
HETATM   25  C   UNL     1      39.514 -12.931   1.507  1.00  0.00    -0.056 A 
HETATM   26  C   UNL     1      38.980 -13.524   0.351  1.00  0.00     0.039 A 
HETATM   27  C   UNL     1      39.872 -14.094  -0.528  1.00  0.00     0.063 A 
HETATM   28  C   UNL     1      41.246 -14.092  -0.301  1.00  0.00     0.063 A 
HETATM   29  N   UNL     1      39.639 -14.744  -1.735  1.00  0.00    -0.306 N 
HETATM   30  N   UNL     1      41.859 -14.740  -1.367  1.00  0.00    -0.307 N 
HETATM   31  C   UNL     1      41.803 -13.517   0.814  1.00  0.00     0.032 A 
HETATM   32  C   UNL     1      40.869 -15.153  -2.271  1.00  0.00     0.325 A 
HETATM   33  H   UNL     1      42.844 -14.900  -1.502  1.00  0.00     0.170 HD
HETATM   34  O   UNL     1      41.045 -15.749  -3.318  1.00  0.00    -0.247 OA
HETATM   35  C   UNL     1      40.918 -12.927   1.726  1.00  0.00     0.009 A 
HETATM   36  H   UNL     1      38.752 -14.907  -2.181  1.00  0.00     0.170 HD
ENDBRANCH  24  25
ENDBRANCH  23  24
ENDBRANCH  22  23
ENDBRANCH   2  22
TORSDOF 8
ENDMDL
MODEL 10
REMARK VINA RESULT:      -9.3      2.874      4.074
REMARK  8 active torsions:
REMARK  status: ('A' for Active; 'I' for Inactive)
REMARK    1  A    between atoms: C_2  and  O_3 
REMARK    2  A    between atoms: C_2  and  C_14 
REMARK    3  A    between atoms: O_3  and  C_4 
REMARK       I    between atoms: C_14  and  N_15 
REMARK    4  A    between atoms: N_15  and  N_16 
REMARK       I    between atoms: N_16  and  C_17 
REMARK    5  A    between atoms: C_17  and  C_18 
REMARK    6  A    between atoms: C_18  and  C_19 
REMARK    7  A    between atoms: C_19  and  C_20 
REMARK    8  A    between atoms: C_20  and  C_21 
ROOT
HETATM    1  N   UNL     1      41.288 -12.260   5.657  1.00  0.00    -0.267 N 
HETATM    2  C   UNL     1      39.986 -12.563   5.301  1.00  0.00     0.236 C 
HETATM    3  O   UNL     1      39.586 -13.715   5.159  1.00  0.00    -0.272 OA
HETATM    4  H   UNL     1      41.502 -11.357   6.080  1.00  0.00     0.190 HD
ENDROOT
BRANCH   1   5
HETATM    5  N   UNL     1      42.083 -13.326   6.127  1.00  0.00    -0.265 N 
HETATM    6  C   UNL     1      43.196 -13.654   5.366  1.00  0.00     0.265 C 
HETATM    7  O   UNL     1      43.350 -13.233   4.219  1.00  0.00    -0.269 OA
HETATM    8  H   UNL     1      42.177 -13.387   7.144  1.00  0.00     0.190 HD
BRANCH   6   9
HETATM    9  C   UNL     1      44.129 -14.667   6.047  1.00  0.00     0.218 C 
HETATM   10  C   UNL     1      44.660 -14.094   7.355  1.00  0.00     0.050 C 
BRANCH   9  11
HETATM   11  O   UNL     1      43.377 -15.856   6.309  1.00  0.00    -0.337 OA
BRANCH  11  12
HETATM   12  C   UNL     1      43.794 -17.029   5.745  1.00  0.00     0.070 A 
HETATM   13  C   UNL     1      43.206 -17.322   4.510  1.00  0.00     0.049 A 
HETATM   14  C   UNL     1      43.531 -18.493   3.806  1.00  0.00    -0.023 A 
HETATM   15  C   UNL     1      44.463 -19.395   4.364  1.00  0.00    -0.026 A 
HETATM   16  C   UNL     1      42.953 -18.788   2.561  1.00  0.00     0.012 A 
HETATM   17  C   UNL     1      45.037 -19.101   5.609  1.00  0.00     0.015 A 
HETATM   18  C   UNL     1      44.791 -20.568   3.664  1.00  0.00     0.012 A 
HETATM   19  C   UNL     1      44.703 -17.928   6.296  1.00  0.00     0.037 A 
HETATM   20  C   UNL     1      44.207 -20.846   2.426  1.00  0.00     0.001 A 
HETATM   21  C   UNL     1      43.289 -19.956   1.876  1.00  0.00     0.001 A 
ENDBRANCH  11  12
ENDBRANCH   9  11
ENDBRANCH   6   9
ENDBRANCH   1   5
BRANCH   2  22
HETATM   22  C   UNL     1      39.141 -11.330   5.049  1.00  0.00     0.105 C 
BRANCH  22  23
HETATM   23  C   UNL     1      39.908 -10.041   5.333  1.00  0.00     0.014 C 
BRANCH  23  24
HETATM   24  C   UNL     1      39.360  -9.335   6.574  1.00  0.00     0.039 C 
BRANCH  24  25
HETATM   25  C   UNL     1      40.041  -9.807   7.837  1.00  0.00    -0.056 A 
HETATM   26  C   UNL     1      39.275 -10.189   8.951  1.00  0.00     0.039 A 
HETATM   27  C   UNL     1      39.961 -10.625  10.061  1.00  0.00     0.063 A 
HETATM   28  C   UNL     1      41.352 -10.697  10.097  1.00  0.00     0.063 A 
HETATM   29  N   UNL     1      39.479 -11.059  11.291  1.00  0.00    -0.306 N 
HETATM   30  N   UNL     1      41.725 -11.174  11.348  1.00  0.00    -0.307 N 
HETATM   31  C   UNL     1      42.131 -10.338   9.026  1.00  0.00     0.032 A 
HETATM   32  C   UNL     1      40.568 -11.405  12.105  1.00  0.00     0.325 A 
HETATM   33  H   UNL     1      42.659 -11.341  11.686  1.00  0.00     0.170 HD
HETATM   34  O   UNL     1      40.518 -11.826  13.246  1.00  0.00    -0.247 OA
HETATM   35  C   UNL     1      41.459  -9.891   7.881  1.00  0.00     0.009 A 
HETATM   36  H   UNL     1      38.518 -11.131  11.580  1.00  0.00     0.170 HD
ENDBRANCH  24  25
ENDBRANCH  23  24
ENDBRANCH  22  23
ENDBRANCH   2  22
TORSDOF 8
ENDMDL
