MODEL 1
REMARK VINA RESULT:      -7.6      0.000      0.000
REMARK  6 active torsions:
REMARK  status: ('A' for Active; 'I' for Inactive)
REMARK    1  A    between atoms: C_2  and  O_3 
REMARK    2  A    between atoms: O_3  and  C_4 
REMARK    3  A    between atoms: C_4  and  C_5 
REMARK    4  A    between atoms: C_6  and  O_7 
REMARK    5  A    between atoms: C_12  and  O_13 
REMARK    6  A    between atoms: C_17  and  C_18 
ROOT
HETATM    1  C   UNL     1      42.251 -15.346   2.853  1.00  0.00     0.133 C 
HETATM    2  C   UNL     1      40.730 -14.979   2.823  1.00  0.00     0.073 C 
HETATM    3  C   UNL     1      39.915 -16.058   2.088  1.00  0.00     0.047 C 
HETATM    4  C   UNL     1      40.128 -14.741   4.235  1.00  0.00     0.097 C 
HETATM    5  C   UNL     1      40.597 -15.793   5.163  1.00  0.00     0.042 A 
HETATM    6  C   UNL     1      41.750 -16.542   5.048  1.00  0.00     0.030 A 
HETATM    7  C   UNL     1      41.722 -17.343   6.202  1.00  0.00     0.190 A 
HETATM    8  N   UNL     1      40.651 -17.151   6.961  1.00  0.00    -0.149 NA
HETATM    9  N   UNL     1      39.975 -16.188   6.310  1.00  0.00    -0.279 N 
HETATM   10  H   UNL     1      39.107 -15.850   6.715  1.00  0.00     0.189 HD
HETATM   11  C   UNL     1      42.732 -16.358   3.940  1.00  0.00     0.074 C 
ENDROOT
BRANCH  11  12
HETATM   12  C   UNL     1      43.101 -17.722   3.369  1.00  0.00    -0.048 A 
HETATM   13  C   UNL     1      42.472 -18.308   2.259  1.00  0.00     0.009 A 
HETATM   14  C   UNL     1      42.873 -19.562   1.785  1.00  0.00     0.024 A 
HETATM   15  C   UNL     1      43.913 -20.242   2.411  1.00  0.00     0.034 A 
HETATM   16 CL   UNL     1      44.402 -21.785   1.830  1.00  0.00    -0.084 Cl
HETATM   17  C   UNL     1      44.559 -19.680   3.506  1.00  0.00     0.024 A 
HETATM   18  C   UNL     1      44.158 -18.427   3.978  1.00  0.00     0.009 A 
ENDBRANCH  11  12
BRANCH   1  19
HETATM   19  C   UNL     1      43.090 -14.085   2.948  1.00  0.00     0.267 C 
HETATM   20  O   UNL     1      43.026 -13.188   2.115  1.00  0.00    -0.265 OA
BRANCH  19  21
HETATM   21  O   UNL     1      43.895 -14.077   4.041  1.00  0.00    -0.321 OA
BRANCH  21  22
HETATM   22  C   UNL     1      43.405 -13.352   5.180  1.00  0.00     0.174 C 
HETATM   23  C   UNL     1      43.994 -13.936   6.449  1.00  0.00     0.034 C 
ENDBRANCH  21  22
ENDBRANCH  19  21
ENDBRANCH   1  19
BRANCH   2  24
HETATM   24  O   UNL     1      40.520 -13.774   2.065  1.00  0.00    -0.389 OA
HETATM   25  H   UNL     1      40.548 -13.990   1.114  1.00  0.00     0.210 HD
ENDBRANCH   2  24
BRANCH   7  26
HETATM   26  O   UNL     1      42.594 -18.260   6.628  1.00  0.00    -0.343 OA
HETATM   27  H   UNL     1      42.248 -19.148   6.448  1.00  0.00     0.219 HD
ENDBRANCH   7  26
TORSDOF 6
ENDMDL
MODEL 2
REMARK VINA RESULT:      -7.4      2.945      4.599
REMARK  6 active torsions:
REMARK  status: ('A' for Active; 'I' for Inactive)
REMARK    1  A    between atoms: C_2  and  O_3 
REMARK    2  A    between atoms: O_3  and  C_4 
REMARK    3  A    between atoms: C_4  and  C_5 
REMARK    4  A    between atoms: C_6  and  O_7 
REMARK    5  A    between atoms: C_12  and  O_13 
REMARK    6  A    between atoms: C_17  and  C_18 
ROOT
HETATM    1  C   UNL     1      41.001 -15.201   0.457  1.00  0.00     0.133 C 
HETATM    2  C   UNL     1      39.638 -14.616   0.956  1.00  0.00     0.073 C 
HETATM    3  C   UNL     1      38.977 -15.550   1.985  1.00  0.00     0.047 C 
HETATM    4  C   UNL     1      39.766 -13.188   1.554  1.00  0.00     0.097 C 
HETATM    5  C   UNL     1      40.946 -13.121   2.443  1.00  0.00     0.042 A 
HETATM    6  C   UNL     1      42.068 -13.923   2.389  1.00  0.00     0.030 A 
HETATM    7  C   UNL     1      42.875 -13.407   3.415  1.00  0.00     0.190 A 
HETATM    8  N   UNL     1      42.320 -12.401   4.078  1.00  0.00    -0.149 NA
HETATM    9  N   UNL     1      41.137 -12.234   3.461  1.00  0.00    -0.279 N 
HETATM   10  H   UNL     1      40.524 -11.493   3.785  1.00  0.00     0.189 HD
HETATM   11  C   UNL     1      42.256 -14.988   1.362  1.00  0.00     0.074 C 
ENDROOT
BRANCH  11  12
HETATM   12  C   UNL     1      42.724 -16.266   2.048  1.00  0.00    -0.048 A 
HETATM   13  C   UNL     1      42.190 -16.756   3.250  1.00  0.00     0.009 A 
HETATM   14  C   UNL     1      42.664 -17.945   3.816  1.00  0.00     0.024 A 
HETATM   15  C   UNL     1      43.675 -18.661   3.183  1.00  0.00     0.034 A 
HETATM   16 CL   UNL     1      44.262 -20.119   3.882  1.00  0.00    -0.084 Cl
HETATM   17  C   UNL     1      44.215 -18.203   1.987  1.00  0.00     0.024 A 
HETATM   18  C   UNL     1      43.739 -17.016   1.422  1.00  0.00     0.009 A 
ENDBRANCH  11  12
BRANCH   1  19
HETATM   19  C   UNL     1      41.308 -14.693  -0.939  1.00  0.00     0.267 C 
HETATM   20  O   UNL     1      41.869 -13.622  -1.141  1.00  0.00    -0.265 OA
BRANCH  19  21
HETATM   21  O   UNL     1      40.896 -15.552  -1.907  1.00  0.00    -0.321 OA
BRANCH  21  22
HETATM   22  C   UNL     1      40.507 -14.957  -3.155  1.00  0.00     0.174 C 
HETATM   23  C   UNL     1      39.425 -15.795  -3.806  1.00  0.00     0.034 C 
ENDBRANCH  21  22
ENDBRANCH  19  21
ENDBRANCH   1  19
BRANCH   2  24
HETATM   24  O   UNL     1      38.699 -14.536  -0.131  1.00  0.00    -0.389 OA
HETATM   25  H   UNL     1      38.706 -13.629  -0.489  1.00  0.00     0.210 HD
ENDBRANCH   2  24
BRANCH   7  26
HETATM   26  O   UNL     1      44.090 -13.785   3.821  1.00  0.00    -0.343 OA
HETATM   27  H   UNL     1      44.580 -14.165   3.076  1.00  0.00     0.219 HD
ENDBRANCH   7  26
TORSDOF 6
ENDMDL
MODEL 3
REMARK VINA RESULT:      -7.3      2.841      4.169
REMARK  6 active torsions:
REMARK  status: ('A' for Active; 'I' for Inactive)
REMARK    1  A    between atoms: C_2  and  O_3 
REMARK    2  A    between atoms: O_3  and  C_4 
REMARK    3  A    between atoms: C_4  and  C_5 
REMARK    4  A    between atoms: C_6  and  O_7 
REMARK    5  A    between atoms: C_12  and  O_13 
REMARK    6  A    between atoms: C_17  and  C_18 
ROOT
HETATM    1  C   UNL     1      40.898 -15.133   0.378  1.00  0.00     0.133 C 
HETATM    2  C   UNL     1      39.555 -14.542   0.921  1.00  0.00     0.073 C 
HETATM    3  C   UNL     1      38.919 -15.477   1.965  1.00  0.00     0.047 C 
HETATM    4  C   UNL     1      39.709 -13.118   1.521  1.00  0.00     0.097 C 
HETATM    5  C   UNL     1      40.917 -13.062   2.374  1.00  0.00     0.042 A 
HETATM    6  C   UNL     1      42.031 -13.871   2.281  1.00  0.00     0.030 A 
HETATM    7  C   UNL     1      42.873 -13.364   3.285  1.00  0.00     0.190 A 
HETATM    8  N   UNL     1      42.344 -12.357   3.969  1.00  0.00    -0.149 NA
HETATM    9  N   UNL     1      41.144 -12.180   3.389  1.00  0.00    -0.279 N 
HETATM   10  H   UNL     1      40.545 -11.437   3.735  1.00  0.00     0.189 HD
HETATM   11  C   UNL     1      42.181 -14.932   1.245  1.00  0.00     0.074 C 
ENDROOT
BRANCH  11  12
HETATM   12  C   UNL     1      42.662 -16.216   1.911  1.00  0.00    -0.048 A 
HETATM   13  C   UNL     1      42.184 -16.692   3.143  1.00  0.00     0.009 A 
HETATM   14  C   UNL     1      42.667 -17.886   3.688  1.00  0.00     0.024 A 
HETATM   15  C   UNL     1      43.629 -18.623   3.005  1.00  0.00     0.034 A 
HETATM   16 CL   UNL     1      44.225 -20.090   3.679  1.00  0.00    -0.084 Cl
HETATM   17  C   UNL     1      44.113 -18.180   1.780  1.00  0.00     0.024 A 
HETATM   18  C   UNL     1      43.628 -16.987   1.236  1.00  0.00     0.009 A 
ENDBRANCH  11  12
BRANCH   1  19
HETATM   19  C   UNL     1      41.165 -14.621  -1.025  1.00  0.00     0.267 C 
HETATM   20  O   UNL     1      40.561 -15.042  -2.005  1.00  0.00    -0.265 OA
BRANCH  19  21
HETATM   21  O   UNL     1      42.128 -13.664  -1.054  1.00  0.00    -0.321 OA
BRANCH  21  22
HETATM   22  C   UNL     1      41.710 -12.362  -1.494  1.00  0.00     0.174 C 
HETATM   23  C   UNL     1      42.608 -11.304  -0.885  1.00  0.00     0.034 C 
ENDBRANCH  21  22
ENDBRANCH  19  21
ENDBRANCH   1  19
BRANCH   2  24
HETATM   24  O   UNL     1      38.584 -14.452  -0.137  1.00  0.00    -0.389 OA
HETATM   25  H   UNL     1      38.523 -13.524  -0.433  1.00  0.00     0.210 HD
ENDBRANCH   2  24
BRANCH   7  26
HETATM   26  O   UNL     1      44.097 -13.751   3.652  1.00  0.00    -0.343 OA
HETATM   27  H   UNL     1      44.104 -14.707   3.811  1.00  0.00     0.219 HD
ENDBRANCH   7  26
TORSDOF 6
ENDMDL
MODEL 4
REMARK VINA RESULT:      -7.2      3.134      4.923
REMARK  6 active torsions:
REMARK  status: ('A' for Active; 'I' for Inactive)
REMARK    1  A    between atoms: C_2  and  O_3 
REMARK    2  A    between atoms: O_3  and  C_4 
REMARK    3  A    between atoms: C_4  and  C_5 
REMARK    4  A    between atoms: C_6  and  O_7 
REMARK    5  A    between atoms: C_12  and  O_13 
REMARK    6  A    between atoms: C_17  and  C_18 
ROOT
HETATM    1  C   UNL     1      42.628 -15.808   5.149  1.00  0.00     0.133 C 
HETATM    2  C   UNL     1      42.365 -17.135   5.934  1.00  0.00     0.073 C 
HETATM    3  C   UNL     1      40.940 -17.659   5.675  1.00  0.00     0.047 C 
HETATM    4  C   UNL     1      43.397 -18.252   5.618  1.00  0.00     0.097 C 
HETATM    5  C   UNL     1      43.635 -18.314   4.160  1.00  0.00     0.042 A 
HETATM    6  C   UNL     1      43.459 -17.292   3.249  1.00  0.00     0.030 A 
HETATM    7  C   UNL     1      43.866 -17.875   2.038  1.00  0.00     0.190 A 
HETATM    8  N   UNL     1      44.236 -19.145   2.153  1.00  0.00    -0.149 NA
HETATM    9  N   UNL     1      44.095 -19.394   3.466  1.00  0.00    -0.279 N 
HETATM   10  H   UNL     1      44.339 -20.318   3.811  1.00  0.00     0.189 HD
HETATM   11  C   UNL     1      43.015 -15.923   3.640  1.00  0.00     0.074 C 
ENDROOT
BRANCH  11  12
HETATM   12  C   UNL     1      41.903 -15.473   2.700  1.00  0.00    -0.048 A 
HETATM   13  C   UNL     1      40.613 -16.026   2.682  1.00  0.00     0.009 A 
HETATM   14  C   UNL     1      39.640 -15.552   1.796  1.00  0.00     0.024 A 
HETATM   15  C   UNL     1      39.943 -14.514   0.921  1.00  0.00     0.034 A 
HETATM   16 CL   UNL     1      38.747 -13.935  -0.172  1.00  0.00    -0.084 Cl
HETATM   17  C   UNL     1      41.209 -13.941   0.925  1.00  0.00     0.024 A 
HETATM   18  C   UNL     1      42.180 -14.415   1.812  1.00  0.00     0.009 A 
ENDBRANCH  11  12
BRANCH   1  19
HETATM   19  C   UNL     1      43.678 -14.977   5.864  1.00  0.00     0.267 C 
HETATM   20  O   UNL     1      44.565 -15.481   6.543  1.00  0.00    -0.265 OA
BRANCH  19  21
HETATM   21  O   UNL     1      43.514 -13.645   5.659  1.00  0.00    -0.321 OA
BRANCH  21  22
HETATM   22  C   UNL     1      42.185 -13.135   5.852  1.00  0.00     0.174 C 
HETATM   23  C   UNL     1      41.827 -12.199   4.715  1.00  0.00     0.034 C 
ENDBRANCH  21  22
ENDBRANCH  19  21
ENDBRANCH   1  19
BRANCH   2  24
HETATM   24  O   UNL     1      42.420 -16.897   7.353  1.00  0.00    -0.389 OA
HETATM   25  H   UNL     1      43.119 -17.457   7.740  1.00  0.00     0.210 HD
ENDBRANCH   2  24
BRANCH   7  26
HETATM   26  O   UNL     1      43.920 -17.351   0.812  1.00  0.00    -0.343 OA
HETATM   27  H   UNL     1      43.023 -17.179   0.489  1.00  0.00     0.219 HD
ENDBRANCH   7  26
TORSDOF 6
ENDMDL
MODEL 5
REMARK VINA RESULT:      -7.2      3.202      4.991
REMARK  6 active torsions:
REMARK  status: ('A' for Active; 'I' for Inactive)
REMARK    1  A    between atoms: C_2  and  O_3 
REMARK    2  A    between atoms: O_3  and  C_4 
REMARK    3  A    between atoms: C_4  and  C_5 
REMARK    4  A    between atoms: C_6  and  O_7 
REMARK    5  A    between atoms: C_12  and  O_13 
REMARK    6  A    between atoms: C_17  and  C_18 
ROOT
HETATM    1  C   UNL     1      42.397 -17.667   2.336  1.00  0.00     0.133 C 
HETATM    2  C   UNL     1      41.065 -17.167   1.684  1.00  0.00     0.073 C 
HETATM    3  C   UNL     1      39.946 -17.046   2.733  1.00  0.00     0.047 C 
HETATM    4  C   UNL     1      41.220 -15.820   0.927  1.00  0.00     0.097 C 
HETATM    5  C   UNL     1      42.021 -14.879   1.741  1.00  0.00     0.042 A 
HETATM    6  C   UNL     1      42.942 -15.206   2.715  1.00  0.00     0.030 A 
HETATM    7  C   UNL     1      43.426 -13.953   3.124  1.00  0.00     0.190 A 
HETATM    8  N   UNL     1      42.856 -12.929   2.502  1.00  0.00    -0.149 NA
HETATM    9  N   UNL     1      42.001 -13.518   1.649  1.00  0.00    -0.279 N 
HETATM   10  H   UNL     1      41.448 -12.928   1.035  1.00  0.00     0.189 HD
HETATM   11  C   UNL     1      43.286 -16.613   3.068  1.00  0.00     0.074 C 
ENDROOT
BRANCH  11  12
HETATM   12  C   UNL     1      43.270 -16.765   4.585  1.00  0.00    -0.048 A 
HETATM   13  C   UNL     1      42.274 -16.235   5.419  1.00  0.00     0.009 A 
HETATM   14  C   UNL     1      42.321 -16.425   6.805  1.00  0.00     0.024 A 
HETATM   15  C   UNL     1      43.362 -17.152   7.372  1.00  0.00     0.034 A 
HETATM   16 CL   UNL     1      43.422 -17.381   9.076  1.00  0.00    -0.084 Cl
HETATM   17  C   UNL     1      44.356 -17.696   6.567  1.00  0.00     0.024 A 
HETATM   18  C   UNL     1      44.307 -17.507   5.183  1.00  0.00     0.009 A 
ENDBRANCH  11  12
BRANCH   1  19
HETATM   19  C   UNL     1      43.242 -18.395   1.306  1.00  0.00     0.267 C 
HETATM   20  O   UNL     1      43.871 -17.804   0.436  1.00  0.00    -0.265 OA
BRANCH  19  21
HETATM   21  O   UNL     1      43.215 -19.742   1.470  1.00  0.00    -0.321 OA
BRANCH  21  22
HETATM   22  C   UNL     1      44.119 -20.277   2.450  1.00  0.00     0.174 C 
HETATM   23  C   UNL     1      44.356 -21.749   2.178  1.00  0.00     0.034 C 
ENDBRANCH  21  22
ENDBRANCH  19  21
ENDBRANCH   1  19
BRANCH   2  24
HETATM   24  O   UNL     1      40.580 -18.132   0.733  1.00  0.00    -0.389 OA
HETATM   25  H   UNL     1      41.311 -18.729   0.486  1.00  0.00     0.210 HD
ENDBRANCH   2  24
BRANCH   7  26
HETATM   26  O   UNL     1      44.348 -13.649   4.041  1.00  0.00    -0.343 OA
HETATM   27  H   UNL     1      44.998 -13.038   3.662  1.00  0.00     0.219 HD
ENDBRANCH   7  26
TORSDOF 6
ENDMDL
MODEL 6
REMARK VINA RESULT:      -7.1      1.824      2.936
REMARK  6 active torsions:
REMARK  status: ('A' for Active; 'I' for Inactive)
REMARK    1  A    between atoms: C_2  and  O_3 
REMARK    2  A    between atoms: O_3  and  C_4 
REMARK    3  A    between atoms: C_4  and  C_5 
REMARK    4  A    between atoms: C_6  and  O_7 
REMARK    5  A    between atoms: C_12  and  O_13 
REMARK    6  A    between atoms: C_17  and  C_18 
ROOT
HETATM    1  C   UNL     1      42.227 -16.272   3.884  1.00  0.00     0.133 C 
HETATM    2  C   UNL     1      41.052 -16.197   4.914  1.00  0.00     0.073 C 
HETATM    3  C   UNL     1      40.330 -17.551   5.031  1.00  0.00     0.047 C 
HETATM    4  C   UNL     1      41.500 -15.721   6.323  1.00  0.00     0.097 C 
HETATM    5  C   UNL     1      42.752 -16.408   6.709  1.00  0.00     0.042 A 
HETATM    6  C   UNL     1      43.694 -16.948   5.857  1.00  0.00     0.030 A 
HETATM    7  C   UNL     1      44.678 -17.426   6.737  1.00  0.00     0.190 A 
HETATM    8  N   UNL     1      44.386 -17.241   8.019  1.00  0.00    -0.149 NA
HETATM    9  N   UNL     1      43.202 -16.606   7.981  1.00  0.00    -0.279 N 
HETATM   10  H   UNL     1      42.771 -16.335   8.860  1.00  0.00     0.189 HD
HETATM   11  C   UNL     1      43.581 -16.879   4.371  1.00  0.00     0.074 C 
ENDROOT
BRANCH  11  12
HETATM   12  C   UNL     1      43.867 -18.256   3.785  1.00  0.00    -0.048 A 
HETATM   13  C   UNL     1      44.357 -19.343   4.527  1.00  0.00     0.009 A 
HETATM   14  C   UNL     1      44.585 -20.583   3.920  1.00  0.00     0.024 A 
HETATM   15  C   UNL     1      44.319 -20.754   2.566  1.00  0.00     0.034 A 
HETATM   16 CL   UNL     1      44.605 -22.277   1.820  1.00  0.00    -0.084 Cl
HETATM   17  C   UNL     1      43.824 -19.697   1.810  1.00  0.00     0.024 A 
HETATM   18  C   UNL     1      43.595 -18.460   2.418  1.00  0.00     0.009 A 
ENDBRANCH  11  12
BRANCH   1  19
HETATM   19  C   UNL     1      42.488 -14.901   3.288  1.00  0.00     0.267 C 
HETATM   20  O   UNL     1      43.295 -14.116   3.773  1.00  0.00    -0.265 OA
BRANCH  19  21
HETATM   21  O   UNL     1      41.738 -14.665   2.181  1.00  0.00    -0.321 OA
BRANCH  21  22
HETATM   22  C   UNL     1      42.186 -15.291   0.969  1.00  0.00     0.174 C 
HETATM   23  C   UNL     1      41.179 -16.334   0.529  1.00  0.00     0.034 C 
ENDBRANCH  21  22
ENDBRANCH  19  21
ENDBRANCH   1  19
BRANCH   2  24
HETATM   24  O   UNL     1      40.044 -15.277   4.458  1.00  0.00    -0.389 OA
HETATM   25  H   UNL     1      39.969 -14.546   5.100  1.00  0.00     0.210 HD
ENDBRANCH   2  24
BRANCH   7  26
HETATM   26  O   UNL     1      45.835 -18.041   6.476  1.00  0.00    -0.343 OA
HETATM   27  H   UNL     1      46.150 -17.785   5.597  1.00  0.00     0.219 HD
ENDBRANCH   7  26
TORSDOF 6
ENDMDL
MODEL 7
REMARK VINA RESULT:      -7.0      2.657      4.007
REMARK  6 active torsions:
REMARK  status: ('A' for Active; 'I' for Inactive)
REMARK    1  A    between atoms: C_2  and  O_3 
REMARK    2  A    between atoms: O_3  and  C_4 
REMARK    3  A    between atoms: C_4  and  C_5 
REMARK    4  A    between atoms: C_6  and  O_7 
REMARK    5  A    between atoms: C_12  and  O_13 
REMARK    6  A    between atoms: C_17  and  C_18 
ROOT
HETATM    1  C   UNL     1      41.776 -15.057   4.146  1.00  0.00     0.133 C 
HETATM    2  C   UNL     1      42.565 -13.720   3.952  1.00  0.00     0.073 C 
HETATM    3  C   UNL     1      44.074 -13.983   3.799  1.00  0.00     0.047 C 
HETATM    4  C   UNL     1      42.058 -12.877   2.750  1.00  0.00     0.097 C 
HETATM    5  C   UNL     1      41.832 -13.756   1.582  1.00  0.00     0.042 A 
HETATM    6  C   UNL     1      41.566 -15.110   1.606  1.00  0.00     0.030 A 
HETATM    7  C   UNL     1      41.399 -15.423   0.247  1.00  0.00     0.190 A 
HETATM    8  N   UNL     1      41.570 -14.388  -0.566  1.00  0.00    -0.149 NA
HETATM    9  N   UNL     1      41.827 -13.370   0.274  1.00  0.00    -0.279 N 
HETATM   10  H   UNL     1      41.980 -12.447  -0.120  1.00  0.00     0.189 HD
HETATM   11  C   UNL     1      41.435 -15.890   2.871  1.00  0.00     0.074 C 
ENDROOT
BRANCH  11  12
HETATM   12  C   UNL     1      42.254 -17.170   2.754  1.00  0.00    -0.048 A 
HETATM   13  C   UNL     1      41.976 -18.203   1.844  1.00  0.00     0.009 A 
HETATM   14  C   UNL     1      42.781 -19.346   1.787  1.00  0.00     0.024 A 
HETATM   15  C   UNL     1      43.877 -19.468   2.635  1.00  0.00     0.034 A 
HETATM   16 CL   UNL     1      44.862 -20.876   2.568  1.00  0.00    -0.084 Cl
HETATM   17  C   UNL     1      44.179 -18.456   3.539  1.00  0.00     0.024 A 
HETATM   18  C   UNL     1      43.376 -17.314   3.593  1.00  0.00     0.009 A 
ENDBRANCH  11  12
BRANCH   1  19
HETATM   19  C   UNL     1      40.498 -14.801   4.924  1.00  0.00     0.267 C 
HETATM   20  O   UNL     1      39.539 -14.214   4.437  1.00  0.00    -0.265 OA
BRANCH  19  21
HETATM   21  O   UNL     1      40.552 -15.293   6.188  1.00  0.00    -0.321 OA
BRANCH  21  22
HETATM   22  C   UNL     1      40.723 -16.715   6.305  1.00  0.00     0.174 C 
HETATM   23  C   UNL     1      42.020 -17.016   7.028  1.00  0.00     0.034 C 
ENDBRANCH  21  22
ENDBRANCH  19  21
ENDBRANCH   1  19
BRANCH   2  24
HETATM   24  O   UNL     1      42.449 -12.894   5.125  1.00  0.00    -0.389 OA
HETATM   25  H   UNL     1      43.241 -13.021   5.680  1.00  0.00     0.210 HD
ENDBRANCH   2  24
BRANCH   7  26
HETATM   26  O   UNL     1      41.114 -16.591  -0.333  1.00  0.00    -0.343 OA
HETATM   27  H   UNL     1      40.829 -16.441  -1.247  1.00  0.00     0.219 HD
ENDBRANCH   7  26
TORSDOF 6
ENDMDL
MODEL 8
REMARK VINA RESULT:      -6.9      3.961      5.276
REMARK  6 active torsions:
REMARK  status: ('A' for Active; 'I' for Inactive)
REMARK    1  A    between atoms: C_2  and  O_3 
REMARK    2  A    between atoms: O_3  and  C_4 
REMARK    3  A    between atoms: C_4  and  C_5 
REMARK    4  A    between atoms: C_6  and  O_7 
REMARK    5  A    between atoms: C_12  and  O_13 
REMARK    6  A    between atoms: C_17  and  C_18 
ROOT
HETATM    1  C   UNL     1      41.929 -13.391  -0.636  1.00  0.00     0.133 C 
HETATM    2  C   UNL     1      41.049 -13.534  -1.922  1.00  0.00     0.073 C 
HETATM    3  C   UNL     1      41.169 -14.947  -2.520  1.00  0.00     0.047 C 
HETATM    4  C   UNL     1      39.553 -13.195  -1.683  1.00  0.00     0.097 C 
HETATM    5  C   UNL     1      39.093 -13.818  -0.422  1.00  0.00     0.042 A 
HETATM    6  C   UNL     1      39.876 -14.174   0.657  1.00  0.00     0.030 A 
HETATM    7  C   UNL     1      38.938 -14.671   1.576  1.00  0.00     0.190 A 
HETATM    8  N   UNL     1      37.690 -14.664   1.126  1.00  0.00    -0.149 NA
HETATM    9  N   UNL     1      37.804 -14.128  -0.102  1.00  0.00    -0.279 N 
HETATM   10  H   UNL     1      36.961 -13.999  -0.653  1.00  0.00     0.189 HD
HETATM   11  C   UNL     1      41.348 -13.938   0.706  1.00  0.00     0.074 C 
ENDROOT
BRANCH  11  12
HETATM   12  C   UNL     1      42.040 -15.208   1.185  1.00  0.00    -0.048 A 
HETATM   13  C   UNL     1      42.022 -16.427   0.489  1.00  0.00     0.009 A 
HETATM   14  C   UNL     1      42.692 -17.550   0.988  1.00  0.00     0.024 A 
HETATM   15  C   UNL     1      43.393 -17.466   2.186  1.00  0.00     0.034 A 
HETATM   16 CL   UNL     1      44.212 -18.848   2.801  1.00  0.00    -0.084 Cl
HETATM   17  C   UNL     1      43.435 -16.268   2.891  1.00  0.00     0.024 A 
HETATM   18  C   UNL     1      42.767 -15.147   2.391  1.00  0.00     0.009 A 
ENDBRANCH  11  12
BRANCH   1  19
HETATM   19  C   UNL     1      42.336 -11.942  -0.441  1.00  0.00     0.267 C 
HETATM   20  O   UNL     1      41.789 -11.209   0.374  1.00  0.00    -0.265 OA
BRANCH  19  21
HETATM   21  O   UNL     1      43.356 -11.575  -1.259  1.00  0.00    -0.321 OA
BRANCH  21  22
HETATM   22  C   UNL     1      43.657 -10.171  -1.301  1.00  0.00     0.174 C 
HETATM   23  C   UNL     1      42.982  -9.539  -2.502  1.00  0.00     0.034 C 
ENDBRANCH  21  22
ENDBRANCH  19  21
ENDBRANCH   1  19
BRANCH   2  24
HETATM   24  O   UNL     1      41.523 -12.652  -2.955  1.00  0.00    -0.389 OA
HETATM   25  H   UNL     1      40.777 -12.416  -3.537  1.00  0.00     0.210 HD
ENDBRANCH   2  24
BRANCH   7  26
HETATM   26  O   UNL     1      39.120 -15.154   2.808  1.00  0.00    -0.343 OA
HETATM   27  H   UNL     1      39.937 -15.675   2.838  1.00  0.00     0.219 HD
ENDBRANCH   7  26
TORSDOF 6
ENDMDL
MODEL 9
REMARK VINA RESULT:      -6.9      2.524      3.697
REMARK  6 active torsions:
REMARK  status: ('A' for Active; 'I' for Inactive)
REMARK    1  A    between atoms: C_2  and  O_3 
REMARK    2  A    between atoms: O_3  and  C_4 
REMARK    3  A    between atoms: C_4  and  C_5 
REMARK    4  A    between atoms: C_6  and  O_7 
REMARK    5  A    between atoms: C_12  and  O_13 
REMARK    6  A    between atoms: C_17  and  C_18 
ROOT
HETATM    1  C   UNL     1      41.919 -15.093   3.859  1.00  0.00     0.133 C 
HETATM    2  C   UNL     1      40.736 -14.196   4.355  1.00  0.00     0.073 C 
HETATM    3  C   UNL     1      39.840 -14.960   5.347  1.00  0.00     0.047 C 
HETATM    4  C   UNL     1      41.204 -12.861   4.996  1.00  0.00     0.097 C 
HETATM    5  C   UNL     1      42.345 -13.115   5.903  1.00  0.00     0.042 A 
HETATM    6  C   UNL     1      43.231 -14.171   5.841  1.00  0.00     0.030 A 
HETATM    7  C   UNL     1      44.120 -13.899   6.894  1.00  0.00     0.190 A 
HETATM    8  N   UNL     1      43.821 -12.802   7.577  1.00  0.00    -0.149 NA
HETATM    9  N   UNL     1      42.731 -12.329   6.948  1.00  0.00    -0.279 N 
HETATM   10  H   UNL     1      42.316 -11.465   7.285  1.00  0.00     0.189 HD
HETATM   11  C   UNL     1      43.168 -15.224   4.787  1.00  0.00     0.074 C 
ENDROOT
BRANCH  11  12
HETATM   12  C   UNL     1      43.286 -16.594   5.443  1.00  0.00    -0.048 A 
HETATM   13  C   UNL     1      42.758 -16.913   6.704  1.00  0.00     0.009 A 
HETATM   14  C   UNL     1      42.898 -18.199   7.237  1.00  0.00     0.024 A 
HETATM   15  C   UNL     1      43.562 -19.184   6.514  1.00  0.00     0.034 A 
HETATM   16 CL   UNL     1      43.737 -20.763   7.173  1.00  0.00    -0.084 Cl
HETATM   17  C   UNL     1      44.086 -18.897   5.258  1.00  0.00     0.024 A 
HETATM   18  C   UNL     1      43.944 -17.613   4.726  1.00  0.00     0.009 A 
ENDBRANCH  11  12
BRANCH   1  19
HETATM   19  C   UNL     1      42.372 -14.644   2.482  1.00  0.00     0.267 C 
HETATM   20  O   UNL     1      43.177 -13.735   2.319  1.00  0.00    -0.265 OA
BRANCH  19  21
HETATM   21  O   UNL     1      41.792 -15.359   1.485  1.00  0.00    -0.321 OA
BRANCH  21  22
HETATM   22  C   UNL     1      41.947 -16.785   1.558  1.00  0.00     0.174 C 
HETATM   23  C   UNL     1      43.352 -17.169   1.137  1.00  0.00     0.034 C 
ENDBRANCH  21  22
ENDBRANCH  19  21
ENDBRANCH   1  19
BRANCH   2  24
HETATM   24  O   UNL     1      39.870 -13.857   3.257  1.00  0.00    -0.389 OA
HETATM   25  H   UNL     1      40.395 -13.832   2.436  1.00  0.00     0.210 HD
ENDBRANCH   2  24
BRANCH   7  26
HETATM   26  O   UNL     1      45.193 -14.579   7.305  1.00  0.00    -0.343 OA
HETATM   27  H   UNL     1      45.023 -15.531   7.236  1.00  0.00     0.219 HD
ENDBRANCH   7  26
TORSDOF 6
ENDMDL
MODEL 10
REMARK VINA RESULT:      -6.6      3.447      5.725
REMARK  6 active torsions:
REMARK  status: ('A' for Active; 'I' for Inactive)
REMARK    1  A    between atoms: C_2  and  O_3 
REMARK    2  A    between atoms: O_3  and  C_4 
REMARK    3  A    between atoms: C_4  and  C_5 
REMARK    4  A    between atoms: C_6  and  O_7 
REMARK    5  A    between atoms: C_12  and  O_13 
REMARK    6  A    between atoms: C_17  and  C_18 
ROOT
HETATM    1  C   UNL     1      42.775 -15.833   6.350  1.00  0.00     0.133 C 
HETATM    2  C   UNL     1      42.086 -17.224   6.547  1.00  0.00     0.073 C 
HETATM    3  C   UNL     1      40.553 -17.083   6.587  1.00  0.00     0.047 C 
HETATM    4  C   UNL     1      42.485 -18.266   5.467  1.00  0.00     0.097 C 
HETATM    5  C   UNL     1      42.462 -17.634   4.129  1.00  0.00     0.042 A 
HETATM    6  C   UNL     1      42.610 -16.292   3.847  1.00  0.00     0.030 A 
HETATM    7  C   UNL     1      42.551 -16.256   2.444  1.00  0.00     0.190 A 
HETATM    8  N   UNL     1      42.356 -17.444   1.886  1.00  0.00    -0.149 NA
HETATM    9  N   UNL     1      42.312 -18.280   2.938  1.00  0.00    -0.279 N 
HETATM   10  H   UNL     1      42.185 -19.272   2.761  1.00  0.00     0.189 HD
HETATM   11  C   UNL     1      42.854 -15.262   4.899  1.00  0.00     0.074 C 
ENDROOT
BRANCH  11  12
HETATM   12  C   UNL     1      41.918 -14.082   4.667  1.00  0.00    -0.048 A 
HETATM   13  C   UNL     1      42.347 -12.798   4.290  1.00  0.00     0.009 A 
HETATM   14  C   UNL     1      41.426 -11.765   4.084  1.00  0.00     0.024 A 
HETATM   15  C   UNL     1      40.065 -12.004   4.246  1.00  0.00     0.034 A 
HETATM   16 CL   UNL     1      38.935 -10.731   3.997  1.00  0.00    -0.084 Cl
HETATM   17  C   UNL     1      39.614 -13.267   4.608  1.00  0.00     0.024 A 
HETATM   18  C   UNL     1      40.534 -14.299   4.812  1.00  0.00     0.009 A 
ENDBRANCH  11  12
BRANCH   1  19
HETATM   19  C   UNL     1      44.169 -15.851   6.949  1.00  0.00     0.267 C 
HETATM   20  O   UNL     1      45.002 -16.698   6.649  1.00  0.00    -0.265 OA
BRANCH  19  21
HETATM   21  O   UNL     1      44.369 -14.839   7.831  1.00  0.00    -0.321 OA
BRANCH  21  22
HETATM   22  C   UNL     1      45.064 -13.688   7.324  1.00  0.00     0.174 C 
HETATM   23  C   UNL     1      45.228 -12.663   8.427  1.00  0.00     0.034 C 
ENDBRANCH  21  22
ENDBRANCH  19  21
ENDBRANCH   1  19
BRANCH   2  24
HETATM   24  O   UNL     1      42.441 -17.783   7.825  1.00  0.00    -0.389 OA
HETATM   25  H   UNL     1      43.325 -17.457   8.078  1.00  0.00     0.210 HD
ENDBRANCH   2  24
BRANCH   7  26
HETATM   26  O   UNL     1      42.646 -15.218   1.610  1.00  0.00    -0.343 OA
HETATM   27  H   UNL     1      42.438 -14.398   2.083  1.00  0.00     0.219 HD
ENDBRANCH   7  26
TORSDOF 6
ENDMDL
