MODEL 1
REMARK VINA RESULT:      -8.9      0.000      0.000
REMARK  3 active torsions:
REMARK  status: ('A' for Active; 'I' for Inactive)
REMARK    1  A    between atoms: C_6  and  N_7 
REMARK       I    between atoms: N_7  and  C_8 
REMARK    2  A    between atoms: C_8  and  C_9 
REMARK    3  A    between atoms: C_9  and  C_10 
ROOT
HETATM    1  C   UNL     1      43.553 -16.323   6.443  1.00  0.00     0.286 C 
HETATM    2  N   UNL     1      43.002 -16.444   5.029  1.00  0.00    -0.056 N 
HETATM    3  H   UNL     1      43.804 -16.232   4.397  1.00  0.00     0.278 HD
HETATM    4  H   UNL     1      42.729 -17.412   4.827  1.00  0.00     0.278 HD
HETATM    5  C   UNL     1      41.865 -15.486   4.777  1.00  0.00     0.209 C 
HETATM    6  C   UNL     1      42.355 -14.034   5.025  1.00  0.00     0.115 C 
HETATM    7  N   UNL     1      43.059 -13.894   6.301  1.00  0.00    -0.353 N 
HETATM    8  C   UNL     1      43.861 -14.866   6.849  1.00  0.00     0.249 C 
HETATM    9  O   UNL     1      44.688 -14.572   7.704  1.00  0.00    -0.271 OA
HETATM   10  C   UNL     1      41.325 -15.705   3.364  1.00  0.00     0.035 C 
HETATM   11  C   UNL     1      42.243 -15.163   2.272  1.00  0.00     0.002 C 
HETATM   12  C   UNL     1      42.599 -13.703   2.521  1.00  0.00     0.002 C 
HETATM   13  C   UNL     1      43.245 -13.513   3.888  1.00  0.00     0.027 C 
HETATM   14  H   UNL     1      43.291 -12.954   6.617  1.00  0.00     0.163 HD
ENDROOT
BRANCH   1  15
HETATM   15  C   UNL     1      44.751 -17.253   6.679  1.00  0.00     0.146 C 
BRANCH  15  16
HETATM   16  C   UNL     1      44.364 -18.489   7.445  1.00  0.00     0.224 C 
HETATM   17  N   UNL     1      44.156 -19.689   6.843  1.00  0.00    -0.327 N 
HETATM   18  H   UNL     1      43.940 -20.410   7.527  1.00  0.00     0.169 HD
HETATM   19  O   UNL     1      44.327 -18.431   8.683  1.00  0.00    -0.273 OA
BRANCH  17  20
HETATM   20  C   UNL     1      44.208 -20.151   5.511  1.00  0.00     0.035 A 
HETATM   21  C   UNL     1      43.898 -19.413   4.367  1.00  0.00     0.037 A 
HETATM   22  C   UNL     1      43.984 -19.978   3.077  1.00  0.00    -0.054 A 
HETATM   23  C   UNL     1      44.429 -21.303   2.925  1.00  0.00    -0.056 A 
HETATM   24  C   UNL     1      43.616 -19.138   1.882  1.00  0.00     0.049 C 
HETATM   25  C   UNL     1      44.548 -21.951   1.572  1.00  0.00     0.049 C 
HETATM   26  C   UNL     1      44.727 -22.048   4.070  1.00  0.00     0.009 A 
HETATM   27  C   UNL     1      44.613 -21.481   5.341  1.00  0.00     0.030 A 
ENDBRANCH  17  20
ENDBRANCH  15  16
ENDBRANCH   1  15
TORSDOF 3
ENDMDL
MODEL 2
REMARK VINA RESULT:      -8.7      2.290      4.134
REMARK  3 active torsions:
REMARK  status: ('A' for Active; 'I' for Inactive)
REMARK    1  A    between atoms: C_6  and  N_7 
REMARK       I    between atoms: N_7  and  C_8 
REMARK    2  A    between atoms: C_8  and  C_9 
REMARK    3  A    between atoms: C_9  and  C_10 
ROOT
HETATM    1  C   UNL     1      41.037 -16.089   4.066  1.00  0.00     0.286 C 
HETATM    2  N   UNL     1      42.062 -14.992   4.318  1.00  0.00    -0.056 N 
HETATM    3  H   UNL     1      42.987 -15.417   4.094  1.00  0.00     0.278 HD
HETATM    4  H   UNL     1      41.937 -14.219   3.655  1.00  0.00     0.278 HD
HETATM    5  C   UNL     1      42.036 -14.504   5.744  1.00  0.00     0.209 C 
HETATM    6  C   UNL     1      42.304 -15.698   6.698  1.00  0.00     0.115 C 
HETATM    7  N   UNL     1      41.467 -16.859   6.387  1.00  0.00    -0.353 N 
HETATM    8  C   UNL     1      41.093 -17.220   5.114  1.00  0.00     0.249 C 
HETATM    9  O   UNL     1      40.713 -18.362   4.885  1.00  0.00    -0.271 OA
HETATM   10  C   UNL     1      43.043 -13.367   5.907  1.00  0.00     0.035 C 
HETATM   11  C   UNL     1      44.495 -13.839   5.920  1.00  0.00     0.002 C 
HETATM   12  C   UNL     1      44.711 -14.938   6.952  1.00  0.00     0.002 C 
HETATM   13  C   UNL     1      43.780 -16.120   6.711  1.00  0.00     0.027 C 
HETATM   14  H   UNL     1      41.468 -17.638   7.043  1.00  0.00     0.163 HD
ENDROOT
BRANCH   1  15
HETATM   15  C   UNL     1      41.107 -16.629   2.631  1.00  0.00     0.146 C 
BRANCH  15  16
HETATM   16  C   UNL     1      42.386 -16.237   1.942  1.00  0.00     0.224 C 
HETATM   17  N   UNL     1      43.492 -17.026   1.945  1.00  0.00    -0.327 N 
HETATM   18  H   UNL     1      44.241 -16.610   1.398  1.00  0.00     0.169 HD
HETATM   19  O   UNL     1      42.399 -15.198   1.266  1.00  0.00    -0.273 OA
BRANCH  17  20
HETATM   20  C   UNL     1      43.809 -18.283   2.500  1.00  0.00     0.035 A 
HETATM   21  C   UNL     1      43.832 -19.504   1.825  1.00  0.00     0.037 A 
HETATM   22  C   UNL     1      44.165 -20.708   2.482  1.00  0.00    -0.054 A 
HETATM   23  C   UNL     1      44.522 -20.683   3.842  1.00  0.00    -0.056 A 
HETATM   24  C   UNL     1      44.152 -21.997   1.704  1.00  0.00     0.049 C 
HETATM   25  C   UNL     1      44.894 -21.934   4.589  1.00  0.00     0.049 C 
HETATM   26  C   UNL     1      44.487 -19.463   4.525  1.00  0.00     0.009 A 
HETATM   27  C   UNL     1      44.131 -18.285   3.864  1.00  0.00     0.030 A 
ENDBRANCH  17  20
ENDBRANCH  15  16
ENDBRANCH   1  15
TORSDOF 3
ENDMDL
MODEL 3
REMARK VINA RESULT:      -8.6      3.154      4.523
REMARK  3 active torsions:
REMARK  status: ('A' for Active; 'I' for Inactive)
REMARK    1  A    between atoms: C_6  and  N_7 
REMARK       I    between atoms: N_7  and  C_8 
REMARK    2  A    between atoms: C_8  and  C_9 
REMARK    3  A    between atoms: C_9  and  C_10 
ROOT
HETATM    1  C   UNL     1      41.247 -15.506   2.632  1.00  0.00     0.286 C 
HETATM    2  N   UNL     1      40.602 -14.145   2.853  1.00  0.00    -0.056 N 
HETATM    3  H   UNL     1      39.664 -14.342   3.262  1.00  0.00     0.278 HD
HETATM    4  H   UNL     1      41.115 -13.611   3.564  1.00  0.00     0.278 HD
HETATM    5  C   UNL     1      40.465 -13.363   1.571  1.00  0.00     0.209 C 
HETATM    6  C   UNL     1      39.620 -14.183   0.561  1.00  0.00     0.115 C 
HETATM    7  N   UNL     1      40.083 -15.567   0.440  1.00  0.00    -0.353 N 
HETATM    8  C   UNL     1      40.595 -16.302   1.482  1.00  0.00     0.249 C 
HETATM    9  O   UNL     1      40.627 -17.526   1.415  1.00  0.00    -0.271 OA
HETATM   10  C   UNL     1      39.870 -11.990   1.878  1.00  0.00     0.035 C 
HETATM   11  C   UNL     1      38.380 -12.034   2.205  1.00  0.00     0.002 C 
HETATM   12  C   UNL     1      37.595 -12.761   1.121  1.00  0.00     0.002 C 
HETATM   13  C   UNL     1      38.123 -14.173   0.904  1.00  0.00     0.027 C 
HETATM   14  H   UNL     1      39.684 -16.141  -0.302  1.00  0.00     0.163 HD
ENDROOT
BRANCH   1  15
HETATM   15  C   UNL     1      41.328 -16.326   3.927  1.00  0.00     0.146 C 
BRANCH  15  16
HETATM   16  C   UNL     1      42.596 -16.053   4.689  1.00  0.00     0.224 C 
HETATM   17  N   UNL     1      43.640 -16.922   4.710  1.00  0.00    -0.327 N 
HETATM   18  H   UNL     1      44.418 -16.548   5.247  1.00  0.00     0.169 HD
HETATM   19  O   UNL     1      42.730 -14.951   5.241  1.00  0.00    -0.273 OA
BRANCH  17  20
HETATM   20  C   UNL     1      43.888 -18.186   4.135  1.00  0.00     0.035 A 
HETATM   21  C   UNL     1      44.260 -19.346   4.816  1.00  0.00     0.037 A 
HETATM   22  C   UNL     1      44.484 -20.563   4.137  1.00  0.00    -0.054 A 
HETATM   23  C   UNL     1      44.292 -20.630   2.746  1.00  0.00    -0.056 A 
HETATM   24  C   UNL     1      44.904 -21.776   4.924  1.00  0.00     0.049 C 
HETATM   25  C   UNL     1      44.507 -21.903   1.974  1.00  0.00     0.049 C 
HETATM   26  C   UNL     1      43.932 -19.466   2.060  1.00  0.00     0.009 A 
HETATM   27  C   UNL     1      43.738 -18.264   2.744  1.00  0.00     0.030 A 
ENDBRANCH  17  20
ENDBRANCH  15  16
ENDBRANCH   1  15
TORSDOF 3
ENDMDL
MODEL 4
REMARK VINA RESULT:      -8.5      3.200      4.563
REMARK  3 active torsions:
REMARK  status: ('A' for Active; 'I' for Inactive)
REMARK    1  A    between atoms: C_6  and  N_7 
REMARK       I    between atoms: N_7  and  C_8 
REMARK    2  A    between atoms: C_8  and  C_9 
REMARK    3  A    between atoms: C_9  and  C_10 
ROOT
HETATM    1  C   UNL     1      40.145 -16.600   2.022  1.00  0.00     0.286 C 
HETATM    2  N   UNL     1      39.669 -15.574   1.004  1.00  0.00    -0.056 N 
HETATM    3  H   UNL     1      40.520 -15.041   0.724  1.00  0.00     0.278 HD
HETATM    4  H   UNL     1      39.330 -16.036   0.153  1.00  0.00     0.278 HD
HETATM    5  C   UNL     1      38.629 -14.643   1.577  1.00  0.00     0.209 C 
HETATM    6  C   UNL     1      39.219 -13.917   2.815  1.00  0.00     0.115 C 
HETATM    7  N   UNL     1      39.858 -14.843   3.752  1.00  0.00    -0.353 N 
HETATM    8  C   UNL     1      40.546 -15.970   3.373  1.00  0.00     0.249 C 
HETATM    9  O   UNL     1      41.343 -16.494   4.143  1.00  0.00    -0.271 OA
HETATM   10  C   UNL     1      38.155 -13.684   0.486  1.00  0.00     0.035 C 
HETATM   11  C   UNL     1      39.176 -12.602   0.144  1.00  0.00     0.002 C 
HETATM   12  C   UNL     1      39.633 -11.858   1.392  1.00  0.00     0.002 C 
HETATM   13  C   UNL     1      40.213 -12.812   2.428  1.00  0.00     0.027 C 
HETATM   14  H   UNL     1      40.146 -14.480   4.659  1.00  0.00     0.163 HD
ENDROOT
BRANCH   1  15
HETATM   15  C   UNL     1      41.248 -17.506   1.459  1.00  0.00     0.146 C 
BRANCH  15  16
HETATM   16  C   UNL     1      42.581 -16.810   1.412  1.00  0.00     0.224 C 
HETATM   17  N   UNL     1      43.707 -17.346   1.950  1.00  0.00    -0.327 N 
HETATM   18  H   UNL     1      44.513 -16.747   1.787  1.00  0.00     0.169 HD
HETATM   19  O   UNL     1      42.674 -15.751   0.773  1.00  0.00    -0.273 OA
BRANCH  17  20
HETATM   20  C   UNL     1      44.003 -18.540   2.640  1.00  0.00     0.035 A 
HETATM   21  C   UNL     1      44.127 -19.811   2.078  1.00  0.00     0.037 A 
HETATM   22  C   UNL     1      44.426 -20.943   2.867  1.00  0.00    -0.054 A 
HETATM   23  C   UNL     1      44.646 -20.792   4.247  1.00  0.00    -0.056 A 
HETATM   24  C   UNL     1      44.526 -22.293   2.205  1.00  0.00     0.049 C 
HETATM   25  C   UNL     1      44.977 -21.962   5.132  1.00  0.00     0.049 C 
HETATM   26  C   UNL     1      44.509 -19.521   4.815  1.00  0.00     0.009 A 
HETATM   27  C   UNL     1      44.188 -18.416   4.023  1.00  0.00     0.030 A 
ENDBRANCH  17  20
ENDBRANCH  15  16
ENDBRANCH   1  15
TORSDOF 3
ENDMDL
MODEL 5
REMARK VINA RESULT:      -8.5      5.164      7.225
REMARK  3 active torsions:
REMARK  status: ('A' for Active; 'I' for Inactive)
REMARK    1  A    between atoms: C_6  and  N_7 
REMARK       I    between atoms: N_7  and  C_8 
REMARK    2  A    between atoms: C_8  and  C_9 
REMARK    3  A    between atoms: C_9  and  C_10 
ROOT
HETATM    1  C   UNL     1      40.199 -13.412  -0.212  1.00  0.00     0.286 C 
HETATM    2  N   UNL     1      39.073 -13.724  -1.188  1.00  0.00    -0.056 N 
HETATM    3  H   UNL     1      38.799 -14.711  -0.993  1.00  0.00     0.278 HD
HETATM    4  H   UNL     1      38.245 -13.153  -0.982  1.00  0.00     0.278 HD
HETATM    5  C   UNL     1      39.504 -13.570  -2.625  1.00  0.00     0.209 C 
HETATM    6  C   UNL     1      40.709 -14.508  -2.900  1.00  0.00     0.115 C 
HETATM    7  N   UNL     1      41.756 -14.384  -1.884  1.00  0.00    -0.353 N 
HETATM    8  C   UNL     1      41.513 -14.146  -0.553  1.00  0.00     0.249 C 
HETATM    9  O   UNL     1      42.369 -14.405   0.285  1.00  0.00    -0.271 OA
HETATM   10  C   UNL     1      38.311 -13.838  -3.541  1.00  0.00     0.035 C 
HETATM   11  C   UNL     1      37.940 -15.315  -3.637  1.00  0.00     0.002 C 
HETATM   12  C   UNL     1      39.146 -16.167  -4.014  1.00  0.00     0.002 C 
HETATM   13  C   UNL     1      40.290 -15.980  -3.026  1.00  0.00     0.027 C 
HETATM   14  H   UNL     1      42.645 -14.852  -2.055  1.00  0.00     0.163 HD
ENDROOT
BRANCH   1  15
HETATM   15  C   UNL     1      39.778 -13.630   1.247  1.00  0.00     0.146 C 
BRANCH  15  16
HETATM   16  C   UNL     1      38.777 -14.744   1.386  1.00  0.00     0.224 C 
HETATM   17  N   UNL     1      39.116 -15.985   1.821  1.00  0.00    -0.327 N 
HETATM   18  H   UNL     1      38.300 -16.588   1.883  1.00  0.00     0.169 HD
HETATM   19  O   UNL     1      37.579 -14.491   1.186  1.00  0.00    -0.273 OA
BRANCH  17  20
HETATM   20  C   UNL     1      40.320 -16.596   2.229  1.00  0.00     0.035 A 
HETATM   21  C   UNL     1      40.949 -16.441   3.465  1.00  0.00     0.037 A 
HETATM   22  C   UNL     1      42.158 -17.102   3.768  1.00  0.00    -0.054 A 
HETATM   23  C   UNL     1      42.732 -17.972   2.824  1.00  0.00    -0.056 A 
HETATM   24  C   UNL     1      42.800 -16.879   5.112  1.00  0.00     0.049 C 
HETATM   25  C   UNL     1      44.014 -18.709   3.099  1.00  0.00     0.049 C 
HETATM   26  C   UNL     1      42.112 -18.118   1.580  1.00  0.00     0.009 A 
HETATM   27  C   UNL     1      40.928 -17.437   1.287  1.00  0.00     0.030 A 
ENDBRANCH  17  20
ENDBRANCH  15  16
ENDBRANCH   1  15
TORSDOF 3
ENDMDL
MODEL 6
REMARK VINA RESULT:      -8.5      1.936      2.958
REMARK  3 active torsions:
REMARK  status: ('A' for Active; 'I' for Inactive)
REMARK    1  A    between atoms: C_6  and  N_7 
REMARK       I    between atoms: N_7  and  C_8 
REMARK    2  A    between atoms: C_8  and  C_9 
REMARK    3  A    between atoms: C_9  and  C_10 
ROOT
HETATM    1  C   UNL     1      40.923 -16.899   4.999  1.00  0.00     0.286 C 
HETATM    2  N   UNL     1      41.433 -17.220   3.601  1.00  0.00    -0.056 N 
HETATM    3  H   UNL     1      42.337 -16.708   3.509  1.00  0.00     0.278 HD
HETATM    4  H   UNL     1      41.662 -18.217   3.518  1.00  0.00     0.278 HD
HETATM    5  C   UNL     1      40.467 -16.785   2.528  1.00  0.00     0.209 C 
HETATM    6  C   UNL     1      40.216 -15.259   2.654  1.00  0.00     0.115 C 
HETATM    7  N   UNL     1      39.896 -14.859   4.026  1.00  0.00    -0.353 N 
HETATM    8  C   UNL     1      40.441 -15.440   5.146  1.00  0.00     0.249 C 
HETATM    9  O   UNL     1      40.420 -14.849   6.219  1.00  0.00    -0.271 OA
HETATM   10  C   UNL     1      41.015 -17.192   1.160  1.00  0.00     0.035 C 
HETATM   11  C   UNL     1      42.183 -16.328   0.693  1.00  0.00     0.002 C 
HETATM   12  C   UNL     1      41.832 -14.847   0.743  1.00  0.00     0.002 C 
HETATM   13  C   UNL     1      41.398 -14.424   2.140  1.00  0.00     0.027 C 
HETATM   14  H   UNL     1      39.576 -13.904   4.183  1.00  0.00     0.163 HD
ENDROOT
BRANCH   1  15
HETATM   15  C   UNL     1      41.934 -17.285   6.087  1.00  0.00     0.146 C 
BRANCH  15  16
HETATM   16  C   UNL     1      43.291 -16.686   5.835  1.00  0.00     0.224 C 
HETATM   17  N   UNL     1      44.252 -17.323   5.117  1.00  0.00    -0.327 N 
HETATM   18  H   UNL     1      45.084 -16.746   5.025  1.00  0.00     0.169 HD
HETATM   19  O   UNL     1      43.507 -15.526   6.219  1.00  0.00    -0.273 OA
BRANCH  17  20
HETATM   20  C   UNL     1      44.332 -18.567   4.456  1.00  0.00     0.035 A 
HETATM   21  C   UNL     1      44.611 -19.801   5.047  1.00  0.00     0.037 A 
HETATM   22  C   UNL     1      44.668 -20.988   4.287  1.00  0.00    -0.054 A 
HETATM   23  C   UNL     1      44.401 -20.946   2.907  1.00  0.00    -0.056 A 
HETATM   24  C   UNL     1      44.994 -22.286   4.977  1.00  0.00     0.049 C 
HETATM   25  C   UNL     1      44.439 -22.183   2.052  1.00  0.00     0.049 C 
HETATM   26  C   UNL     1      44.135 -19.710   2.311  1.00  0.00     0.009 A 
HETATM   27  C   UNL     1      44.107 -18.540   3.074  1.00  0.00     0.030 A 
ENDBRANCH  17  20
ENDBRANCH  15  16
ENDBRANCH   1  15
TORSDOF 3
ENDMDL
MODEL 7
REMARK VINA RESULT:      -8.3      2.449      3.753
REMARK  3 active torsions:
REMARK  status: ('A' for Active; 'I' for Inactive)
REMARK    1  A    between atoms: C_6  and  N_7 
REMARK       I    between atoms: N_7  and  C_8 
REMARK    2  A    between atoms: C_8  and  C_9 
REMARK    3  A    between atoms: C_9  and  C_10 
ROOT
HETATM    1  C   UNL     1      40.462 -15.727   3.952  1.00  0.00     0.286 C 
HETATM    2  N   UNL     1      40.375 -14.277   3.496  1.00  0.00    -0.056 N 
HETATM    3  H   UNL     1      41.361 -13.952   3.408  1.00  0.00     0.278 HD
HETATM    4  H   UNL     1      39.970 -14.217   2.555  1.00  0.00     0.278 HD
HETATM    5  C   UNL     1      39.620 -13.415   4.477  1.00  0.00     0.209 C 
HETATM    6  C   UNL     1      40.317 -13.486   5.861  1.00  0.00     0.115 C 
HETATM    7  N   UNL     1      40.595 -14.863   6.276  1.00  0.00    -0.353 N 
HETATM    8  C   UNL     1      40.943 -15.873   5.411  1.00  0.00     0.249 C 
HETATM    9  O   UNL     1      41.501 -16.879   5.833  1.00  0.00    -0.271 OA
HETATM   10  C   UNL     1      39.520 -11.993   3.926  1.00  0.00     0.035 C 
HETATM   11  C   UNL     1      40.833 -11.220   4.001  1.00  0.00     0.002 C 
HETATM   12  C   UNL     1      41.409 -11.241   5.412  1.00  0.00     0.002 C 
HETATM   13  C   UNL     1      41.615 -12.666   5.908  1.00  0.00     0.027 C 
HETATM   14  H   UNL     1      40.919 -15.018   7.229  1.00  0.00     0.163 HD
ENDROOT
BRANCH   1  15
HETATM   15  C   UNL     1      41.284 -16.590   2.985  1.00  0.00     0.146 C 
BRANCH  15  16
HETATM   16  C   UNL     1      42.680 -16.060   2.802  1.00  0.00     0.224 C 
HETATM   17  N   UNL     1      43.783 -16.843   2.926  1.00  0.00    -0.327 N 
HETATM   18  H   UNL     1      44.631 -16.316   2.731  1.00  0.00     0.169 HD
HETATM   19  O   UNL     1      42.824 -14.885   2.431  1.00  0.00    -0.273 OA
BRANCH  17  20
HETATM   20  C   UNL     1      44.003 -18.204   3.225  1.00  0.00     0.035 A 
HETATM   21  C   UNL     1      43.930 -19.270   2.327  1.00  0.00     0.037 A 
HETATM   22  C   UNL     1      44.169 -20.599   2.737  1.00  0.00    -0.054 A 
HETATM   23  C   UNL     1      44.528 -20.864   4.070  1.00  0.00    -0.056 A 
HETATM   24  C   UNL     1      44.055 -21.711   1.726  1.00  0.00     0.049 C 
HETATM   25  C   UNL     1      44.803 -22.260   4.557  1.00  0.00     0.049 C 
HETATM   26  C   UNL     1      44.589 -19.799   4.974  1.00  0.00     0.009 A 
HETATM   27  C   UNL     1      44.325 -18.492   4.557  1.00  0.00     0.030 A 
ENDBRANCH  17  20
ENDBRANCH  15  16
ENDBRANCH   1  15
TORSDOF 3
ENDMDL
MODEL 8
REMARK VINA RESULT:      -8.1      2.957      4.668
REMARK  3 active torsions:
REMARK  status: ('A' for Active; 'I' for Inactive)
REMARK    1  A    between atoms: C_6  and  N_7 
REMARK       I    between atoms: N_7  and  C_8 
REMARK    2  A    between atoms: C_8  and  C_9 
REMARK    3  A    between atoms: C_9  and  C_10 
ROOT
HETATM    1  C   UNL     1      40.028 -14.351   4.003  1.00  0.00     0.286 C 
HETATM    2  N   UNL     1      39.888 -12.844   3.844  1.00  0.00    -0.056 N 
HETATM    3  H   UNL     1      40.861 -12.469   3.853  1.00  0.00     0.278 HD
HETATM    4  H   UNL     1      39.502 -12.610   2.922  1.00  0.00     0.278 HD
HETATM    5  C   UNL     1      39.074 -12.226   4.954  1.00  0.00     0.209 C 
HETATM    6  C   UNL     1      39.743 -12.547   6.317  1.00  0.00     0.115 C 
HETATM    7  N   UNL     1      40.071 -13.968   6.456  1.00  0.00    -0.353 N 
HETATM    8  C   UNL     1      40.483 -14.768   5.418  1.00  0.00     0.249 C 
HETATM    9  O   UNL     1      41.075 -15.817   5.646  1.00  0.00    -0.271 OA
HETATM   10  C   UNL     1      38.924 -10.728   4.696  1.00  0.00     0.035 C 
HETATM   11  C   UNL     1      40.200  -9.935   4.965  1.00  0.00     0.002 C 
HETATM   12  C   UNL     1      40.745 -10.217   6.359  1.00  0.00     0.002 C 
HETATM   13  C   UNL     1      41.002 -11.704   6.566  1.00  0.00     0.027 C 
HETATM   14  H   UNL     1      40.381 -14.299   7.368  1.00  0.00     0.163 HD
ENDROOT
BRANCH   1  15
HETATM   15  C   UNL     1      40.908 -14.969   2.909  1.00  0.00     0.146 C 
BRANCH  15  16
HETATM   16  C   UNL     1      42.321 -14.454   2.961  1.00  0.00     0.224 C 
HETATM   17  N   UNL     1      43.403 -15.276   2.938  1.00  0.00    -0.327 N 
HETATM   18  H   UNL     1      44.269 -14.743   2.944  1.00  0.00     0.169 HD
HETATM   19  O   UNL     1      42.506 -13.228   2.930  1.00  0.00    -0.273 OA
BRANCH  17  20
HETATM   20  C   UNL     1      43.583 -16.673   2.873  1.00  0.00     0.035 A 
HETATM   21  C   UNL     1      43.798 -17.531   3.952  1.00  0.00     0.037 A 
HETATM   22  C   UNL     1      43.967 -18.920   3.772  1.00  0.00    -0.054 A 
HETATM   23  C   UNL     1      43.879 -19.471   2.481  1.00  0.00    -0.056 A 
HETATM   24  C   UNL     1      44.217 -19.792   4.974  1.00  0.00     0.049 C 
HETATM   25  C   UNL     1      44.042 -20.945   2.233  1.00  0.00     0.049 C 
HETATM   26  C   UNL     1      43.677 -18.612   1.396  1.00  0.00     0.009 A 
HETATM   27  C   UNL     1      43.536 -17.236   1.590  1.00  0.00     0.030 A 
ENDBRANCH  17  20
ENDBRANCH  15  16
ENDBRANCH   1  15
TORSDOF 3
ENDMDL
MODEL 9
REMARK VINA RESULT:      -8.1      5.003      7.692
REMARK  3 active torsions:
REMARK  status: ('A' for Active; 'I' for Inactive)
REMARK    1  A    between atoms: C_6  and  N_7 
REMARK       I    between atoms: N_7  and  C_8 
REMARK    2  A    between atoms: C_8  and  C_9 
REMARK    3  A    between atoms: C_9  and  C_10 
ROOT
HETATM    1  C   UNL     1      44.057 -11.161  10.026  1.00  0.00     0.286 C 
HETATM    2  N   UNL     1      43.950 -10.999  11.536  1.00  0.00    -0.056 N 
HETATM    3  H   UNL     1      43.268 -11.723  11.848  1.00  0.00     0.278 HD
HETATM    4  H   UNL     1      44.840 -11.234  11.990  1.00  0.00     0.278 HD
HETATM    5  C   UNL     1      43.477  -9.623  11.930  1.00  0.00     0.209 C 
HETATM    6  C   UNL     1      42.096  -9.351  11.277  1.00  0.00     0.115 C 
HETATM    7  N   UNL     1      42.084  -9.664   9.847  1.00  0.00    -0.353 N 
HETATM    8  C   UNL     1      42.788 -10.699   9.279  1.00  0.00     0.249 C 
HETATM    9  O   UNL     1      42.470 -11.128   8.176  1.00  0.00    -0.271 OA
HETATM   10  C   UNL     1      43.453  -9.514  13.454  1.00  0.00     0.035 C 
HETATM   11  C   UNL     1      42.299 -10.277  14.099  1.00  0.00     0.002 C 
HETATM   12  C   UNL     1      40.962  -9.885  13.483  1.00  0.00     0.002 C 
HETATM   13  C   UNL     1      40.957 -10.107  11.976  1.00  0.00     0.027 C 
HETATM   14  H   UNL     1      41.269  -9.385   9.303  1.00  0.00     0.163 HD
ENDROOT
BRANCH   1  15
HETATM   15  C   UNL     1      44.478 -12.581   9.624  1.00  0.00     0.146 C 
BRANCH  15  16
HETATM   16  C   UNL     1      45.437 -12.579   8.465  1.00  0.00     0.224 C 
HETATM   17  N   UNL     1      45.258 -13.354   7.364  1.00  0.00    -0.327 N 
HETATM   18  H   UNL     1      45.988 -13.188   6.676  1.00  0.00     0.169 HD
HETATM   19  O   UNL     1      46.375 -11.768   8.474  1.00  0.00    -0.273 OA
BRANCH  17  20
HETATM   20  C   UNL     1      44.285 -14.293   6.962  1.00  0.00     0.035 A 
HETATM   21  C   UNL     1      44.155 -15.602   7.430  1.00  0.00     0.037 A 
HETATM   22  C   UNL     1      43.139 -16.459   6.956  1.00  0.00    -0.054 A 
HETATM   23  C   UNL     1      42.206 -15.982   6.018  1.00  0.00    -0.056 A 
HETATM   24  C   UNL     1      43.063 -17.868   7.483  1.00  0.00     0.049 C 
HETATM   25  C   UNL     1      41.099 -16.851   5.487  1.00  0.00     0.049 C 
HETATM   26  C   UNL     1      42.343 -14.676   5.538  1.00  0.00     0.009 A 
HETATM   27  C   UNL     1      43.369 -13.849   6.000  1.00  0.00     0.030 A 
ENDBRANCH  17  20
ENDBRANCH  15  16
ENDBRANCH   1  15
TORSDOF 3
ENDMDL
MODEL 10
REMARK VINA RESULT:      -8.0      4.851      7.936
REMARK  3 active torsions:
REMARK  status: ('A' for Active; 'I' for Inactive)
REMARK    1  A    between atoms: C_6  and  N_7 
REMARK       I    between atoms: N_7  and  C_8 
REMARK    2  A    between atoms: C_8  and  C_9 
REMARK    3  A    between atoms: C_9  and  C_10 
ROOT
HETATM    1  C   UNL     1      40.391 -14.152   2.314  1.00  0.00     0.286 C 
HETATM    2  N   UNL     1      41.807 -14.705   2.388  1.00  0.00    -0.056 N 
HETATM    3  H   UNL     1      42.115 -14.818   1.398  1.00  0.00     0.278 HD
HETATM    4  H   UNL     1      42.444 -14.019   2.807  1.00  0.00     0.278 HD
HETATM    5  C   UNL     1      41.866 -16.026   3.113  1.00  0.00     0.209 C 
HETATM    6  C   UNL     1      40.943 -17.046   2.394  1.00  0.00     0.115 C 
HETATM    7  N   UNL     1      39.610 -16.501   2.130  1.00  0.00    -0.353 N 
HETATM    8  C   UNL     1      39.364 -15.187   1.811  1.00  0.00     0.249 C 
HETATM    9  O   UNL     1      38.314 -14.873   1.261  1.00  0.00    -0.271 OA
HETATM   10  C   UNL     1      43.320 -16.489   3.201  1.00  0.00     0.035 C 
HETATM   11  C   UNL     1      43.874 -17.003   1.875  1.00  0.00     0.002 C 
HETATM   12  C   UNL     1      42.975 -18.076   1.276  1.00  0.00     0.002 C 
HETATM   13  C   UNL     1      41.553 -17.566   1.084  1.00  0.00     0.027 C 
HETATM   14  H   UNL     1      38.892 -17.140   1.792  1.00  0.00     0.163 HD
ENDROOT
BRANCH   1  15
HETATM   15  C   UNL     1      40.323 -12.840   1.522  1.00  0.00     0.146 C 
BRANCH  15  16
HETATM   16  C   UNL     1      41.578 -12.591   0.730  1.00  0.00     0.224 C 
HETATM   17  N   UNL     1      41.726 -13.000  -0.557  1.00  0.00    -0.327 N 
HETATM   18  H   UNL     1      42.625 -12.710  -0.933  1.00  0.00     0.169 HD
HETATM   19  O   UNL     1      42.474 -11.904   1.242  1.00  0.00    -0.273 OA
BRANCH  17  20
HETATM   20  C   UNL     1      40.911 -13.694  -1.475  1.00  0.00     0.035 A 
HETATM   21  C   UNL     1      39.725 -13.229  -2.045  1.00  0.00     0.037 A 
HETATM   22  C   UNL     1      38.985 -14.012  -2.956  1.00  0.00    -0.054 A 
HETATM   23  C   UNL     1      39.464 -15.277  -3.337  1.00  0.00    -0.056 A 
HETATM   24  C   UNL     1      37.701 -13.463  -3.521  1.00  0.00     0.049 C 
HETATM   25  C   UNL     1      38.721 -16.149  -4.312  1.00  0.00     0.049 C 
HETATM   26  C   UNL     1      40.645 -15.752  -2.758  1.00  0.00     0.009 A 
HETATM   27  C   UNL     1      41.353 -14.973  -1.838  1.00  0.00     0.030 A 
ENDBRANCH  17  20
ENDBRANCH  15  16
ENDBRANCH   1  15
TORSDOF 3
ENDMDL
