MODEL 1
REMARK VINA RESULT:      -8.6      0.000      0.000
REMARK  2 active torsions:
REMARK  status: ('A' for Active; 'I' for Inactive)
REMARK    1  A    between atoms: N_2  and  C_3 
REMARK       I    between atoms: N_4  and  C_5 
REMARK       I    between atoms: C_5  and  N_6 
REMARK    2  A    between atoms: C_9  and  C_10 
ROOT
HETATM    1  C   UNL     1      44.007 -18.687   7.715  1.00  0.00     0.703 A 
HETATM    2  N   UNL     1      44.098 -17.689   6.746  1.00  0.00    -0.141 N 
HETATM    3  C   UNL     1      44.168 -16.320   7.003  1.00  0.00     0.188 C 
HETATM    4  N   UNL     1      43.634 -15.903   8.179  1.00  0.00    -0.272 NA
HETATM    5  N   UNL     1      44.688 -15.439   6.208  1.00  0.00    -0.273 NA
HETATM    6  H   UNL     1      44.542 -14.515   6.622  1.00  0.00     0.189 HD
HETATM    7  C   UNL     1      44.230 -18.046   5.305  1.00  0.00     0.179 A 
HETATM    8  C   UNL     1      44.356 -19.535   5.009  1.00  0.00    -0.001 A 
HETATM    9  C   UNL     1      44.281 -20.452   6.053  1.00  0.00     0.058 A 
HETATM   10  N   UNL     1      44.076 -19.995   7.349  1.00  0.00    -0.190 N 
HETATM   11  C   UNL     1      44.533 -20.004   3.691  1.00  0.00     0.035 A 
HETATM   12  C   UNL     1      44.612 -21.371   3.432  1.00  0.00     0.034 A 
HETATM   13 CL   UNL     1      44.790 -21.930   1.816  1.00  0.00    -0.084 Cl
HETATM   14  C   UNL     1      44.538 -22.284   4.477  1.00  0.00     0.026 A 
HETATM   15  C   UNL     1      44.375 -21.824   5.784  1.00  0.00     0.032 A 
HETATM   16  H   UNL     1      43.605 -16.671   8.861  1.00  0.00     0.127 HD
HETATM   17  H   UNL     1      44.045 -15.075   8.583  1.00  0.00     0.127 HD
HETATM   18  H   UNL     1      44.089 -20.698   8.073  1.00  0.00     0.184 HD
ENDROOT
BRANCH   1  19
HETATM   19  N   UNL     1      43.892 -18.410   8.988  1.00  0.00    -0.117 NA
HETATM   20  H   UNL     1      42.933 -18.124   9.191  1.00  0.00     0.206 HD
ENDBRANCH   1  19
BRANCH   7  21
HETATM   21  C   UNL     1      43.082 -17.442   4.479  1.00  0.00    -0.030 A 
HETATM   22  C   UNL     1      43.373 -16.661   3.345  1.00  0.00     0.009 A 
HETATM   23  C   UNL     1      42.349 -16.128   2.561  1.00  0.00     0.001 A 
HETATM   24  C   UNL     1      41.020 -16.366   2.902  1.00  0.00     0.000 A 
HETATM   25  C   UNL     1      40.713 -17.129   4.028  1.00  0.00     0.001 A 
HETATM   26  C   UNL     1      41.736 -17.664   4.815  1.00  0.00     0.009 A 
ENDBRANCH   7  21
TORSDOF 2
ENDMDL
MODEL 2
REMARK VINA RESULT:      -8.1      3.056      4.659
REMARK  2 active torsions:
REMARK  status: ('A' for Active; 'I' for Inactive)
REMARK    1  A    between atoms: N_2  and  C_3 
REMARK       I    between atoms: N_4  and  C_5 
REMARK       I    between atoms: C_5  and  N_6 
REMARK    2  A    between atoms: C_9  and  C_10 
ROOT
HETATM    1  C   UNL     1      41.013 -16.074   2.355  1.00  0.00     0.703 A 
HETATM    2  N   UNL     1      41.016 -15.932   3.741  1.00  0.00    -0.141 N 
HETATM    3  C   UNL     1      40.191 -15.072   4.466  1.00  0.00     0.188 C 
HETATM    4  N   UNL     1      39.725 -13.985   3.799  1.00  0.00    -0.272 NA
HETATM    5  N   UNL     1      39.855 -15.232   5.707  1.00  0.00    -0.273 NA
HETATM    6  H   UNL     1      39.301 -14.420   5.990  1.00  0.00     0.189 HD
HETATM    7  C   UNL     1      41.878 -16.804   4.587  1.00  0.00     0.179 A 
HETATM    8  C   UNL     1      42.645 -17.889   3.839  1.00  0.00    -0.001 A 
HETATM    9  C   UNL     1      42.551 -17.964   2.454  1.00  0.00     0.058 A 
HETATM   10  N   UNL     1      41.772 -17.038   1.770  1.00  0.00    -0.190 N 
HETATM   11  C   UNL     1      43.460 -18.811   4.526  1.00  0.00     0.035 A 
HETATM   12  C   UNL     1      44.181 -19.775   3.826  1.00  0.00     0.034 A 
HETATM   13 CL   UNL     1      45.202 -20.869   4.673  1.00  0.00    -0.084 Cl
HETATM   14  C   UNL     1      44.085 -19.850   2.442  1.00  0.00     0.026 A 
HETATM   15  C   UNL     1      43.270 -18.946   1.759  1.00  0.00     0.032 A 
HETATM   16  H   UNL     1      39.730 -14.148   2.784  1.00  0.00     0.127 HD
HETATM   17  H   UNL     1      38.834 -13.626   4.105  1.00  0.00     0.127 HD
HETATM   18  H   UNL     1      41.693 -17.176   0.774  1.00  0.00     0.184 HD
ENDROOT
BRANCH   1  19
HETATM   19  N   UNL     1      40.267 -15.326   1.583  1.00  0.00    -0.117 NA
HETATM   20  H   UNL     1      39.396 -15.815   1.369  1.00  0.00     0.206 HD
ENDBRANCH   1  19
BRANCH   7  21
HETATM   21  C   UNL     1      42.850 -15.966   5.436  1.00  0.00    -0.030 A 
HETATM   22  C   UNL     1      43.472 -14.836   4.873  1.00  0.00     0.009 A 
HETATM   23  C   UNL     1      44.332 -14.041   5.631  1.00  0.00     0.001 A 
HETATM   24  C   UNL     1      44.584 -14.367   6.962  1.00  0.00     0.000 A 
HETATM   25  C   UNL     1      43.984 -15.488   7.532  1.00  0.00     0.001 A 
HETATM   26  C   UNL     1      43.121 -16.287   6.776  1.00  0.00     0.009 A 
ENDBRANCH   7  21
TORSDOF 2
ENDMDL
MODEL 3
REMARK VINA RESULT:      -7.9      4.096      5.586
REMARK  2 active torsions:
REMARK  status: ('A' for Active; 'I' for Inactive)
REMARK    1  A    between atoms: N_2  and  C_3 
REMARK       I    between atoms: N_4  and  C_5 
REMARK       I    between atoms: C_5  and  N_6 
REMARK    2  A    between atoms: C_9  and  C_10 
ROOT
HETATM    1  C   UNL     1      41.765 -16.385   0.334  1.00  0.00     0.703 A 
HETATM    2  N   UNL     1      40.877 -16.027   1.347  1.00  0.00    -0.141 N 
HETATM    3  C   UNL     1      39.719 -15.269   1.174  1.00  0.00     0.188 C 
HETATM    4  N   UNL     1      39.703 -14.435   0.103  1.00  0.00    -0.272 NA
HETATM    5  N   UNL     1      38.685 -15.301   1.953  1.00  0.00    -0.273 NA
HETATM    6  H   UNL     1      38.018 -14.600   1.622  1.00  0.00     0.189 HD
HETATM    7  C   UNL     1      41.069 -16.537   2.734  1.00  0.00     0.179 A 
HETATM    8  C   UNL     1      42.213 -17.527   2.914  1.00  0.00    -0.001 A 
HETATM    9  C   UNL     1      43.026 -17.842   1.830  1.00  0.00     0.058 A 
HETATM   10  N   UNL     1      42.791 -17.235   0.602  1.00  0.00    -0.190 N 
HETATM   11  C   UNL     1      42.473 -18.121   4.166  1.00  0.00     0.035 A 
HETATM   12  C   UNL     1      43.544 -18.998   4.324  1.00  0.00     0.034 A 
HETATM   13 CL   UNL     1      43.873 -19.686   5.865  1.00  0.00    -0.084 Cl
HETATM   14  C   UNL     1      44.354 -19.312   3.239  1.00  0.00     0.026 A 
HETATM   15  C   UNL     1      44.093 -18.735   1.995  1.00  0.00     0.032 A 
HETATM   16  H   UNL     1      40.362 -14.753  -0.619  1.00  0.00     0.127 HD
HETATM   17  H   UNL     1      38.796 -14.241  -0.294  1.00  0.00     0.127 HD
HETATM   18  H   UNL     1      43.373 -17.544  -0.162  1.00  0.00     0.184 HD
ENDROOT
BRANCH   1  19
HETATM   19  N   UNL     1      41.626 -15.957  -0.894  1.00  0.00    -0.117 NA
HETATM   20  H   UNL     1      40.783 -15.384  -0.964  1.00  0.00     0.206 HD
ENDBRANCH   1  19
BRANCH   7  21
HETATM   21  C   UNL     1      41.215 -15.378   3.734  1.00  0.00    -0.030 A 
HETATM   22  C   UNL     1      42.203 -14.397   3.527  1.00  0.00     0.009 A 
HETATM   23  C   UNL     1      42.335 -13.319   4.403  1.00  0.00     0.001 A 
HETATM   24  C   UNL     1      41.484 -13.208   5.499  1.00  0.00     0.000 A 
HETATM   25  C   UNL     1      40.506 -14.175   5.724  1.00  0.00     0.001 A 
HETATM   26  C   UNL     1      40.370 -15.257   4.850  1.00  0.00     0.009 A 
ENDBRANCH   7  21
TORSDOF 2
ENDMDL
MODEL 4
REMARK VINA RESULT:      -7.9      1.938      2.645
REMARK  2 active torsions:
REMARK  status: ('A' for Active; 'I' for Inactive)
REMARK    1  A    between atoms: N_2  and  C_3 
REMARK       I    between atoms: N_4  and  C_5 
REMARK       I    between atoms: C_5  and  N_6 
REMARK    2  A    between atoms: C_9  and  C_10 
ROOT
HETATM    1  C   UNL     1      43.804 -18.948   7.129  1.00  0.00     0.703 A 
HETATM    2  N   UNL     1      43.720 -17.561   7.027  1.00  0.00    -0.141 N 
HETATM    3  C   UNL     1      43.794 -16.667   8.095  1.00  0.00     0.188 C 
HETATM    4  N   UNL     1      43.437 -17.155   9.310  1.00  0.00    -0.272 NA
HETATM    5  N   UNL     1      44.164 -15.429   8.006  1.00  0.00    -0.273 NA
HETATM    6  H   UNL     1      44.060 -15.001   8.929  1.00  0.00     0.189 HD
HETATM    7  C   UNL     1      43.637 -16.906   5.690  1.00  0.00     0.179 A 
HETATM    8  C   UNL     1      43.753 -17.844   4.495  1.00  0.00    -0.001 A 
HETATM    9  C   UNL     1      43.862 -19.214   4.705  1.00  0.00     0.058 A 
HETATM   10  N   UNL     1      43.848 -19.709   6.004  1.00  0.00    -0.190 N 
HETATM   11  C   UNL     1      43.736 -17.348   3.175  1.00  0.00     0.035 A 
HETATM   12  C   UNL     1      43.809 -18.221   2.091  1.00  0.00     0.034 A 
HETATM   13 CL   UNL     1      43.750 -17.606   0.487  1.00  0.00    -0.084 Cl
HETATM   14  C   UNL     1      43.919 -19.589   2.304  1.00  0.00     0.026 A 
HETATM   15  C   UNL     1      43.947 -20.084   3.609  1.00  0.00     0.032 A 
HETATM   16  H   UNL     1      43.532 -18.178   9.336  1.00  0.00     0.127 HD
HETATM   17  H   UNL     1      43.885 -16.728  10.107  1.00  0.00     0.127 HD
HETATM   18  H   UNL     1      43.989 -20.704   6.100  1.00  0.00     0.184 HD
ENDROOT
BRANCH   1  19
HETATM   19  N   UNL     1      43.879 -19.555   8.285  1.00  0.00    -0.117 NA
HETATM   20  H   UNL     1      43.309 -20.403   8.265  1.00  0.00     0.206 HD
ENDBRANCH   1  19
BRANCH   7  21
HETATM   21  C   UNL     1      42.361 -16.056   5.569  1.00  0.00    -0.030 A 
HETATM   22  C   UNL     1      41.128 -16.582   5.999  1.00  0.00     0.009 A 
HETATM   23  C   UNL     1      39.962 -15.819   5.928  1.00  0.00     0.001 A 
HETATM   24  C   UNL     1      40.011 -14.522   5.425  1.00  0.00     0.000 A 
HETATM   25  C   UNL     1      41.222 -13.989   4.986  1.00  0.00     0.001 A 
HETATM   26  C   UNL     1      42.393 -14.749   5.055  1.00  0.00     0.009 A 
ENDBRANCH   7  21
TORSDOF 2
ENDMDL
MODEL 5
REMARK VINA RESULT:      -7.9      1.216      1.442
REMARK  2 active torsions:
REMARK  status: ('A' for Active; 'I' for Inactive)
REMARK    1  A    between atoms: N_2  and  C_3 
REMARK       I    between atoms: N_4  and  C_5 
REMARK       I    between atoms: C_5  and  N_6 
REMARK    2  A    between atoms: C_9  and  C_10 
ROOT
HETATM    1  C   UNL     1      43.358 -17.338   6.848  1.00  0.00     0.703 A 
HETATM    2  N   UNL     1      43.490 -16.626   5.657  1.00  0.00    -0.141 N 
HETATM    3  C   UNL     1      43.434 -15.238   5.537  1.00  0.00     0.188 C 
HETATM    4  N   UNL     1      42.741 -14.580   6.502  1.00  0.00    -0.272 NA
HETATM    5  N   UNL     1      43.979 -14.550   4.584  1.00  0.00    -0.273 NA
HETATM    6  H   UNL     1      43.723 -13.569   4.716  1.00  0.00     0.189 HD
HETATM    7  C   UNL     1      43.810 -17.334   4.385  1.00  0.00     0.179 A 
HETATM    8  C   UNL     1      44.072 -18.829   4.518  1.00  0.00    -0.001 A 
HETATM    9  C   UNL     1      43.943 -19.442   5.760  1.00  0.00     0.058 A 
HETATM   10  N   UNL     1      43.560 -18.682   6.859  1.00  0.00    -0.190 N 
HETATM   11  C   UNL     1      44.431 -19.609   3.400  1.00  0.00     0.035 A 
HETATM   12  C   UNL     1      44.634 -20.981   3.530  1.00  0.00     0.034 A 
HETATM   13 CL   UNL     1      45.035 -21.925   2.150  1.00  0.00    -0.084 Cl
HETATM   14  C   UNL     1      44.505 -21.590   4.772  1.00  0.00     0.026 A 
HETATM   15  C   UNL     1      44.162 -20.820   5.884  1.00  0.00     0.032 A 
HETATM   16  H   UNL     1      42.688 -15.141   7.361  1.00  0.00     0.127 HD
HETATM   17  H   UNL     1      43.045 -13.639   6.701  1.00  0.00     0.127 HD
HETATM   18  H   UNL     1      43.538 -19.165   7.745  1.00  0.00     0.184 HD
ENDROOT
BRANCH   1  19
HETATM   19  N   UNL     1      43.080 -16.748   7.981  1.00  0.00    -0.117 NA
HETATM   20  H   UNL     1      43.757 -17.031   8.691  1.00  0.00     0.206 HD
ENDBRANCH   1  19
BRANCH   7  21
HETATM   21  C   UNL     1      42.724 -17.084   3.325  1.00  0.00    -0.030 A 
HETATM   22  C   UNL     1      43.097 -16.714   2.019  1.00  0.00     0.009 A 
HETATM   23  C   UNL     1      42.132 -16.512   1.031  1.00  0.00     0.001 A 
HETATM   24  C   UNL     1      40.783 -16.674   1.335  1.00  0.00     0.000 A 
HETATM   25  C   UNL     1      40.396 -17.030   2.626  1.00  0.00     0.001 A 
HETATM   26  C   UNL     1      41.359 -17.233   3.619  1.00  0.00     0.009 A 
ENDBRANCH   7  21
TORSDOF 2
ENDMDL
MODEL 6
REMARK VINA RESULT:      -7.7      2.224      3.675
REMARK  2 active torsions:
REMARK  status: ('A' for Active; 'I' for Inactive)
REMARK    1  A    between atoms: N_2  and  C_3 
REMARK       I    between atoms: N_4  and  C_5 
REMARK       I    between atoms: C_5  and  N_6 
REMARK    2  A    between atoms: C_9  and  C_10 
ROOT
HETATM    1  C   UNL     1      42.690 -14.607   6.111  1.00  0.00     0.703 A 
HETATM    2  N   UNL     1      43.083 -14.784   4.786  1.00  0.00    -0.141 N 
HETATM    3  C   UNL     1      43.202 -13.769   3.838  1.00  0.00     0.188 C 
HETATM    4  N   UNL     1      42.445 -12.661   4.048  1.00  0.00    -0.272 NA
HETATM    5  N   UNL     1      43.961 -13.813   2.789  1.00  0.00    -0.273 NA
HETATM    6  H   UNL     1      43.798 -12.963   2.245  1.00  0.00     0.189 HD
HETATM    7  C   UNL     1      43.516 -16.124   4.299  1.00  0.00     0.179 A 
HETATM    8  C   UNL     1      43.586 -17.215   5.362  1.00  0.00    -0.001 A 
HETATM    9  C   UNL     1      43.198 -16.928   6.666  1.00  0.00     0.058 A 
HETATM   10  N   UNL     1      42.736 -15.655   6.977  1.00  0.00    -0.190 N 
HETATM   11  C   UNL     1      44.026 -18.516   5.043  1.00  0.00     0.035 A 
HETATM   12  C   UNL     1      44.052 -19.511   6.018  1.00  0.00     0.034 A 
HETATM   13 CL   UNL     1      44.554 -21.103   5.607  1.00  0.00    -0.084 Cl
HETATM   14  C   UNL     1      43.665 -19.222   7.321  1.00  0.00     0.026 A 
HETATM   15  C   UNL     1      43.240 -17.932   7.643  1.00  0.00     0.032 A 
HETATM   16  H   UNL     1      42.196 -12.570   5.041  1.00  0.00     0.127 HD
HETATM   17  H   UNL     1      42.816 -11.796   3.686  1.00  0.00     0.127 HD
HETATM   18  H   UNL     1      42.523 -15.486   7.949  1.00  0.00     0.184 HD
ENDROOT
BRANCH   1  19
HETATM   19  N   UNL     1      42.305 -13.445   6.572  1.00  0.00    -0.117 NA
HETATM   20  H   UNL     1      41.434 -13.554   7.093  1.00  0.00     0.206 HD
ENDBRANCH   1  19
BRANCH   7  21
HETATM   21  C   UNL     1      42.643 -16.594   3.123  1.00  0.00    -0.030 A 
HETATM   22  C   UNL     1      41.246 -16.659   3.273  1.00  0.00     0.009 A 
HETATM   23  C   UNL     1      40.430 -17.051   2.210  1.00  0.00     0.001 A 
HETATM   24  C   UNL     1      41.001 -17.387   0.985  1.00  0.00     0.000 A 
HETATM   25  C   UNL     1      42.385 -17.337   0.822  1.00  0.00     0.001 A 
HETATM   26  C   UNL     1      43.205 -16.944   1.884  1.00  0.00     0.009 A 
ENDBRANCH   7  21
TORSDOF 2
ENDMDL
MODEL 7
REMARK VINA RESULT:      -7.7      3.626      4.699
REMARK  2 active torsions:
REMARK  status: ('A' for Active; 'I' for Inactive)
REMARK    1  A    between atoms: N_2  and  C_3 
REMARK       I    between atoms: N_4  and  C_5 
REMARK       I    between atoms: C_5  and  N_6 
REMARK    2  A    between atoms: C_9  and  C_10 
ROOT
HETATM    1  C   UNL     1      43.162 -17.761   1.451  1.00  0.00     0.703 A 
HETATM    2  N   UNL     1      42.060 -17.241   2.128  1.00  0.00    -0.141 N 
HETATM    3  C   UNL     1      41.014 -16.531   1.540  1.00  0.00     0.188 C 
HETATM    4  N   UNL     1      41.301 -15.892   0.377  1.00  0.00    -0.272 NA
HETATM    5  N   UNL     1      39.815 -16.435   2.023  1.00  0.00    -0.273 NA
HETATM    6  H   UNL     1      39.282 -15.805   1.419  1.00  0.00     0.189 HD
HETATM    7  C   UNL     1      41.875 -17.505   3.583  1.00  0.00     0.179 A 
HETATM    8  C   UNL     1      42.898 -18.443   4.213  1.00  0.00    -0.001 A 
HETATM    9  C   UNL     1      43.946 -18.933   3.441  1.00  0.00     0.058 A 
HETATM   10  N   UNL     1      44.054 -18.547   2.111  1.00  0.00    -0.190 N 
HETATM   11  C   UNL     1      42.809 -18.812   5.570  1.00  0.00     0.035 A 
HETATM   12  C   UNL     1      43.771 -19.643   6.141  1.00  0.00     0.034 A 
HETATM   13 CL   UNL     1      43.672 -20.055   7.807  1.00  0.00    -0.084 Cl
HETATM   14  C   UNL     1      44.817 -20.133   5.368  1.00  0.00     0.026 A 
HETATM   15  C   UNL     1      44.902 -19.778   4.021  1.00  0.00     0.032 A 
HETATM   16  H   UNL     1      42.109 -16.325  -0.088  1.00  0.00     0.127 HD
HETATM   17  H   UNL     1      40.533 -15.775  -0.265  1.00  0.00     0.127 HD
HETATM   18  H   UNL     1      44.798 -18.978   1.584  1.00  0.00     0.184 HD
ENDROOT
BRANCH   1  19
HETATM   19  N   UNL     1      43.355 -17.550   0.175  1.00  0.00    -0.117 NA
HETATM   20  H   UNL     1      42.545 -17.068  -0.220  1.00  0.00     0.206 HD
ENDBRANCH   1  19
BRANCH   7  21
HETATM   21  C   UNL     1      41.807 -16.191   4.379  1.00  0.00    -0.030 A 
HETATM   22  C   UNL     1      42.846 -15.250   4.263  1.00  0.00     0.009 A 
HETATM   23  C   UNL     1      42.793 -14.037   4.951  1.00  0.00     0.001 A 
HETATM   24  C   UNL     1      41.701 -13.750   5.766  1.00  0.00     0.000 A 
HETATM   25  C   UNL     1      40.666 -14.676   5.900  1.00  0.00     0.001 A 
HETATM   26  C   UNL     1      40.717 -15.891   5.213  1.00  0.00     0.009 A 
ENDBRANCH   7  21
TORSDOF 2
ENDMDL
MODEL 8
REMARK VINA RESULT:      -7.2      3.402      5.953
REMARK  2 active torsions:
REMARK  status: ('A' for Active; 'I' for Inactive)
REMARK    1  A    between atoms: N_2  and  C_3 
REMARK       I    between atoms: N_4  and  C_5 
REMARK       I    between atoms: C_5  and  N_6 
REMARK    2  A    between atoms: C_9  and  C_10 
ROOT
HETATM    1  C   UNL     1      42.838 -14.220   5.865  1.00  0.00     0.703 A 
HETATM    2  N   UNL     1      42.694 -15.567   5.539  1.00  0.00    -0.141 N 
HETATM    3  C   UNL     1      43.313 -16.627   6.200  1.00  0.00     0.188 C 
HETATM    4  N   UNL     1      44.469 -16.336   6.850  1.00  0.00    -0.272 NA
HETATM    5  N   UNL     1      42.875 -17.847   6.227  1.00  0.00    -0.273 NA
HETATM    6  H   UNL     1      43.561 -18.417   6.727  1.00  0.00     0.189 HD
HETATM    7  C   UNL     1      41.745 -15.988   4.469  1.00  0.00     0.179 A 
HETATM    8  C   UNL     1      40.906 -14.870   3.863  1.00  0.00    -0.001 A 
HETATM    9  C   UNL     1      41.107 -13.558   4.279  1.00  0.00     0.058 A 
HETATM   10  N   UNL     1      42.082 -13.285   5.231  1.00  0.00    -0.190 N 
HETATM   11  C   UNL     1      39.938 -15.139   2.874  1.00  0.00     0.035 A 
HETATM   12  C   UNL     1      39.203 -14.102   2.304  1.00  0.00     0.034 A 
HETATM   13 CL   UNL     1      38.051 -14.440   1.073  1.00  0.00    -0.084 Cl
HETATM   14  C   UNL     1      39.404 -12.792   2.722  1.00  0.00     0.026 A 
HETATM   15  C   UNL     1      40.354 -12.522   3.709  1.00  0.00     0.032 A 
HETATM   16  H   UNL     1      44.517 -15.335   7.080  1.00  0.00     0.127 HD
HETATM   17  H   UNL     1      44.679 -16.904   7.656  1.00  0.00     0.127 HD
HETATM   18  H   UNL     1      42.144 -12.326   5.538  1.00  0.00     0.184 HD
ENDROOT
BRANCH   1  19
HETATM   19  N   UNL     1      43.660 -13.816   6.799  1.00  0.00    -0.117 NA
HETATM   20  H   UNL     1      44.242 -14.597   7.104  1.00  0.00     0.206 HD
ENDBRANCH   1  19
BRANCH   7  21
HETATM   21  C   UNL     1      42.474 -16.760   3.357  1.00  0.00    -0.030 A 
HETATM   22  C   UNL     1      42.066 -18.067   3.032  1.00  0.00     0.009 A 
HETATM   23  C   UNL     1      42.690 -18.777   2.005  1.00  0.00     0.001 A 
HETATM   24  C   UNL     1      43.732 -18.191   1.292  1.00  0.00     0.000 A 
HETATM   25  C   UNL     1      44.156 -16.901   1.607  1.00  0.00     0.001 A 
HETATM   26  C   UNL     1      43.533 -16.187   2.634  1.00  0.00     0.009 A 
ENDBRANCH   7  21
TORSDOF 2
ENDMDL
MODEL 9
REMARK VINA RESULT:      -7.1      4.331      7.052
REMARK  2 active torsions:
REMARK  status: ('A' for Active; 'I' for Inactive)
REMARK    1  A    between atoms: N_2  and  C_3 
REMARK       I    between atoms: N_4  and  C_5 
REMARK       I    between atoms: C_5  and  N_6 
REMARK    2  A    between atoms: C_9  and  C_10 
ROOT
HETATM    1  C   UNL     1      42.081 -12.971   3.058  1.00  0.00     0.703 A 
HETATM    2  N   UNL     1      41.589 -14.274   3.100  1.00  0.00    -0.141 N 
HETATM    3  C   UNL     1      41.235 -14.966   4.257  1.00  0.00     0.188 C 
HETATM    4  N   UNL     1      41.842 -14.567   5.404  1.00  0.00    -0.272 NA
HETATM    5  N   UNL     1      40.390 -15.948   4.309  1.00  0.00    -0.273 NA
HETATM    6  H   UNL     1      40.376 -16.301   5.268  1.00  0.00     0.189 HD
HETATM    7  C   UNL     1      41.307 -15.014   1.837  1.00  0.00     0.179 A 
HETATM    8  C   UNL     1      41.498 -14.215   0.554  1.00  0.00    -0.001 A 
HETATM    9  C   UNL     1      41.967 -12.908   0.622  1.00  0.00     0.058 A 
HETATM   10  N   UNL     1      42.270 -12.355   1.861  1.00  0.00    -0.190 N 
HETATM   11  C   UNL     1      41.221 -14.783  -0.706  1.00  0.00     0.035 A 
HETATM   12  C   UNL     1      41.432 -14.051  -1.873  1.00  0.00     0.034 A 
HETATM   13 CL   UNL     1      41.125 -14.768  -3.405  1.00  0.00    -0.084 Cl
HETATM   14  C   UNL     1      41.900 -12.744  -1.802  1.00  0.00     0.026 A 
HETATM   15  C   UNL     1      42.165 -12.175  -0.556  1.00  0.00     0.032 A 
HETATM   16  H   UNL     1      42.171 -13.597   5.325  1.00  0.00     0.127 HD
HETATM   17  H   UNL     1      41.317 -14.705   6.254  1.00  0.00     0.127 HD
HETATM   18  H   UNL     1      42.551 -11.386   1.856  1.00  0.00     0.184 HD
ENDROOT
BRANCH   1  19
HETATM   19  N   UNL     1      42.338 -12.292   4.146  1.00  0.00    -0.117 NA
HETATM   20  H   UNL     1      43.348 -12.183   4.252  1.00  0.00     0.206 HD
ENDBRANCH   1  19
BRANCH   7  21
HETATM   21  C   UNL     1      42.119 -16.319   1.768  1.00  0.00    -0.030 A 
HETATM   22  C   UNL     1      43.525 -16.268   1.776  1.00  0.00     0.009 A 
HETATM   23  C   UNL     1      44.284 -17.439   1.746  1.00  0.00     0.001 A 
HETATM   24  C   UNL     1      43.647 -18.676   1.705  1.00  0.00     0.000 A 
HETATM   25  C   UNL     1      42.254 -18.745   1.687  1.00  0.00     0.001 A 
HETATM   26  C   UNL     1      41.491 -17.575   1.717  1.00  0.00     0.009 A 
ENDBRANCH   7  21
TORSDOF 2
ENDMDL
MODEL 10
REMARK VINA RESULT:      -7.0      4.819      6.532
REMARK  2 active torsions:
REMARK  status: ('A' for Active; 'I' for Inactive)
REMARK    1  A    between atoms: N_2  and  C_3 
REMARK       I    between atoms: N_4  and  C_5 
REMARK       I    between atoms: C_5  and  N_6 
REMARK    2  A    between atoms: C_9  and  C_10 
ROOT
HETATM    1  C   UNL     1      41.229 -15.173  -0.351  1.00  0.00     0.703 A 
HETATM    2  N   UNL     1      40.328 -14.904   0.677  1.00  0.00    -0.141 N 
HETATM    3  C   UNL     1      39.172 -14.134   0.556  1.00  0.00     0.188 C 
HETATM    4  N   UNL     1      39.169 -13.209  -0.438  1.00  0.00    -0.272 NA
HETATM    5  N   UNL     1      38.128 -14.233   1.316  1.00  0.00    -0.273 NA
HETATM    6  H   UNL     1      37.465 -13.505   1.039  1.00  0.00     0.189 HD
HETATM    7  C   UNL     1      40.502 -15.534   2.017  1.00  0.00     0.179 A 
HETATM    8  C   UNL     1      41.644 -16.537   2.125  1.00  0.00    -0.001 A 
HETATM    9  C   UNL     1      42.472 -16.756   1.028  1.00  0.00     0.058 A 
HETATM   10  N   UNL     1      42.253 -16.044  -0.145  1.00  0.00    -0.190 N 
HETATM   11  C   UNL     1      41.888 -17.238   3.323  1.00  0.00     0.035 A 
HETATM   12  C   UNL     1      42.958 -18.126   3.417  1.00  0.00     0.034 A 
HETATM   13 CL   UNL     1      43.266 -18.946   4.896  1.00  0.00    -0.084 Cl
HETATM   14  C   UNL     1      43.782 -18.344   2.320  1.00  0.00     0.026 A 
HETATM   15  C   UNL     1      43.537 -17.660   1.128  1.00  0.00     0.032 A 
HETATM   16  H   UNL     1      39.838 -13.463  -1.176  1.00  0.00     0.127 HD
HETATM   17  H   UNL     1      38.268 -12.981  -0.828  1.00  0.00     0.127 HD
HETATM   18  H   UNL     1      42.845 -16.285  -0.926  1.00  0.00     0.184 HD
ENDROOT
BRANCH   1  19
HETATM   19  N   UNL     1      41.106 -14.639  -1.538  1.00  0.00    -0.117 NA
HETATM   20  H   UNL     1      42.029 -14.394  -1.902  1.00  0.00     0.206 HD
ENDBRANCH   1  19
BRANCH   7  21
HETATM   21  C   UNL     1      40.634 -14.467   3.117  1.00  0.00    -0.030 A 
HETATM   22  C   UNL     1      41.457 -13.345   2.905  1.00  0.00     0.009 A 
HETATM   23  C   UNL     1      41.569 -12.348   3.875  1.00  0.00     0.001 A 
HETATM   24  C   UNL     1      40.863 -12.460   5.070  1.00  0.00     0.000 A 
HETATM   25  C   UNL     1      40.051 -13.570   5.300  1.00  0.00     0.001 A 
HETATM   26  C   UNL     1      39.936 -14.571   4.331  1.00  0.00     0.009 A 
ENDBRANCH   7  21
TORSDOF 2
ENDMDL
