MODEL 1
REMARK VINA RESULT:      -9.4      0.000      0.000
REMARK  5 active torsions:
REMARK  status: ('A' for Active; 'I' for Inactive)
REMARK    1  A    between atoms: C_3  and  N_4 
REMARK       I    between atoms: N_4  and  C_5 
REMARK       I    between atoms: C_5  and  N_6 
REMARK    2  A    between atoms: N_6  and  C_7 
REMARK    3  A    between atoms: C_7  and  C_8 
REMARK       I    between atoms: C_8  and  N_9 
REMARK    4  A    between atoms: N_9  and  C_10 
REMARK    5  A    between atoms: C_19  and  C_20 
ROOT
HETATM    1  N   UNL     1      43.242 -14.682   6.532  1.00  0.00    -0.309 N 
HETATM    2  C   UNL     1      44.274 -13.889   6.972  1.00  0.00     0.321 C 
HETATM    3  N   UNL     1      43.863 -12.994   7.924  1.00  0.00    -0.334 N 
HETATM    4  O   UNL     1      45.440 -13.958   6.602  1.00  0.00    -0.247 OA
HETATM    5  H   UNL     1      42.606 -14.964   7.261  1.00  0.00     0.170 HD
HETATM    6  H   UNL     1      42.868 -12.893   8.063  1.00  0.00     0.164 HD
ENDROOT
BRANCH   1   7
HETATM    7  C   UNL     1      43.324 -15.520   5.396  1.00  0.00     0.043 A 
HETATM    8  C   UNL     1      43.155 -14.982   4.106  1.00  0.00    -0.035 A 
HETATM    9  C   UNL     1      42.769 -13.547   3.873  1.00  0.00     0.050 C 
HETATM   10  C   UNL     1      43.279 -15.833   2.997  1.00  0.00     0.010 A 
HETATM   11  C   UNL     1      43.607 -17.181   3.162  1.00  0.00     0.016 A 
HETATM   12  C   UNL     1      43.810 -17.718   4.437  1.00  0.00     0.019 A 
HETATM   13  C   UNL     1      43.645 -16.879   5.549  1.00  0.00     0.046 A 
BRANCH  12  14
HETATM   14  C   UNL     1      44.218 -19.114   4.573  1.00  0.00     0.179 A 
HETATM   15  O   UNL     1      44.431 -19.817   3.413  1.00  0.00    -0.302 OA
HETATM   16  C   UNL     1      44.744 -21.073   3.835  1.00  0.00     0.163 A 
HETATM   17  C   UNL     1      44.710 -21.080   5.205  1.00  0.00     0.144 A 
HETATM   18  N   UNL     1      44.375 -19.834   5.670  1.00  0.00    -0.234 NA
ENDBRANCH  12  14
ENDBRANCH   1   7
BRANCH   3  19
HETATM   19  C   UNL     1      44.741 -12.452   8.952  1.00  0.00     0.227 C 
BRANCH  19  20
HETATM   20  C   UNL     1      44.290 -12.371  10.426  1.00  0.00     0.239 C 
HETATM   21  N   UNL     1      43.252 -11.490  10.641  1.00  0.00    -0.326 N 
HETATM   22  H   UNL     1      42.787 -11.135   9.803  1.00  0.00     0.169 HD
HETATM   23  O   UNL     1      44.951 -12.934  11.297  1.00  0.00    -0.271 OA
BRANCH  21  24
HETATM   24  C   UNL     1      42.819 -10.926  11.856  1.00  0.00     0.034 A 
HETATM   25  C   UNL     1      41.641 -11.285  12.511  1.00  0.00     0.029 A 
HETATM   26  C   UNL     1      41.326 -10.726  13.754  1.00  0.00     0.002 A 
HETATM   27  C   UNL     1      42.181  -9.798  14.345  1.00  0.00     0.000 A 
HETATM   28  C   UNL     1      43.351  -9.422  13.692  1.00  0.00     0.002 A 
HETATM   29  C   UNL     1      43.669  -9.985  12.454  1.00  0.00     0.029 A 
ENDBRANCH  21  24
ENDBRANCH  19  20
ENDBRANCH   3  19
TORSDOF 5
ENDMDL
MODEL 2
REMARK VINA RESULT:      -9.1      1.942      3.168
REMARK  5 active torsions:
REMARK  status: ('A' for Active; 'I' for Inactive)
REMARK    1  A    between atoms: C_3  and  N_4 
REMARK       I    between atoms: N_4  and  C_5 
REMARK       I    between atoms: C_5  and  N_6 
REMARK    2  A    between atoms: N_6  and  C_7 
REMARK    3  A    between atoms: C_7  and  C_8 
REMARK       I    between atoms: C_8  and  N_9 
REMARK    4  A    between atoms: N_9  and  C_10 
REMARK    5  A    between atoms: C_19  and  C_20 
ROOT
HETATM    1  N   UNL     1      43.342 -15.046   6.644  1.00  0.00    -0.309 N 
HETATM    2  C   UNL     1      44.302 -14.109   6.946  1.00  0.00     0.321 C 
HETATM    3  N   UNL     1      43.846 -13.180   7.844  1.00  0.00    -0.334 N 
HETATM    4  O   UNL     1      45.445 -14.087   6.508  1.00  0.00    -0.247 OA
HETATM    5  H   UNL     1      42.783 -15.326   7.434  1.00  0.00     0.170 HD
HETATM    6  H   UNL     1      42.856 -13.174   8.038  1.00  0.00     0.164 HD
ENDROOT
BRANCH   1   7
HETATM    7  C   UNL     1      43.454 -15.971   5.580  1.00  0.00     0.043 A 
HETATM    8  C   UNL     1      43.984 -17.254   5.813  1.00  0.00    -0.035 A 
HETATM    9  C   UNL     1      44.558 -17.663   7.141  1.00  0.00     0.050 C 
HETATM   10  C   UNL     1      44.048 -18.162   4.744  1.00  0.00     0.010 A 
HETATM   11  C   UNL     1      43.556 -17.820   3.483  1.00  0.00     0.016 A 
HETATM   12  C   UNL     1      42.995 -16.559   3.250  1.00  0.00     0.019 A 
HETATM   13  C   UNL     1      42.969 -15.635   4.306  1.00  0.00     0.046 A 
BRANCH  12  14
HETATM   14  C   UNL     1      42.428 -16.255   1.939  1.00  0.00     0.179 A 
HETATM   15  O   UNL     1      42.370 -14.932   1.577  1.00  0.00    -0.302 OA
HETATM   16  C   UNL     1      41.764 -14.944   0.359  1.00  0.00     0.163 A 
HETATM   17  C   UNL     1      41.484 -16.247   0.038  1.00  0.00     0.144 A 
HETATM   18  N   UNL     1      41.907 -17.077   1.045  1.00  0.00    -0.234 NA
ENDBRANCH  12  14
ENDBRANCH   1   7
BRANCH   3  19
HETATM   19  C   UNL     1      44.714 -12.455   8.763  1.00  0.00     0.227 C 
BRANCH  19  20
HETATM   20  C   UNL     1      44.369 -12.338  10.262  1.00  0.00     0.239 C 
HETATM   21  N   UNL     1      43.270 -11.547  10.518  1.00  0.00    -0.326 N 
HETATM   22  H   UNL     1      42.712 -11.281   9.705  1.00  0.00     0.169 HD
HETATM   23  O   UNL     1      45.145 -12.791  11.103  1.00  0.00    -0.271 OA
BRANCH  21  24
HETATM   24  C   UNL     1      42.877 -10.961  11.737  1.00  0.00     0.034 A 
HETATM   25  C   UNL     1      41.725 -11.312  12.440  1.00  0.00     0.029 A 
HETATM   26  C   UNL     1      41.451 -10.731  13.682  1.00  0.00     0.002 A 
HETATM   27  C   UNL     1      42.321  -9.789  14.226  1.00  0.00     0.000 A 
HETATM   28  C   UNL     1      43.467  -9.421  13.525  1.00  0.00     0.002 A 
HETATM   29  C   UNL     1      43.744 -10.006  12.288  1.00  0.00     0.029 A 
ENDBRANCH  21  24
ENDBRANCH  19  20
ENDBRANCH   3  19
TORSDOF 5
ENDMDL
MODEL 3
REMARK VINA RESULT:      -8.5      5.150      9.116
REMARK  5 active torsions:
REMARK  status: ('A' for Active; 'I' for Inactive)
REMARK    1  A    between atoms: C_3  and  N_4 
REMARK       I    between atoms: N_4  and  C_5 
REMARK       I    between atoms: C_5  and  N_6 
REMARK    2  A    between atoms: N_6  and  C_7 
REMARK    3  A    between atoms: C_7  and  C_8 
REMARK       I    between atoms: C_8  and  N_9 
REMARK    4  A    between atoms: N_9  and  C_10 
REMARK    5  A    between atoms: C_19  and  C_20 
ROOT
HETATM    1  N   UNL     1      41.732 -16.558   5.010  1.00  0.00    -0.309 N 
HETATM    2  C   UNL     1      41.441 -15.938   3.819  1.00  0.00     0.321 C 
HETATM    3  N   UNL     1      40.138 -15.518   3.765  1.00  0.00    -0.334 N 
HETATM    4  O   UNL     1      42.228 -15.741   2.901  1.00  0.00    -0.247 OA
HETATM    5  H   UNL     1      41.298 -16.126   5.811  1.00  0.00     0.170 HD
HETATM    6  H   UNL     1      39.517 -15.850   4.488  1.00  0.00     0.164 HD
ENDROOT
BRANCH   1   7
HETATM    7  C   UNL     1      42.918 -17.292   5.245  1.00  0.00     0.043 A 
HETATM    8  C   UNL     1      43.859 -16.834   6.185  1.00  0.00    -0.035 A 
HETATM    9  C   UNL     1      43.722 -15.512   6.888  1.00  0.00     0.050 C 
HETATM   10  C   UNL     1      45.008 -17.604   6.421  1.00  0.00     0.010 A 
HETATM   11  C   UNL     1      45.198 -18.826   5.772  1.00  0.00     0.016 A 
HETATM   12  C   UNL     1      44.252 -19.308   4.861  1.00  0.00     0.019 A 
HETATM   13  C   UNL     1      43.123 -18.518   4.591  1.00  0.00     0.046 A 
BRANCH  12  14
HETATM   14  C   UNL     1      44.445 -20.619   4.249  1.00  0.00     0.179 A 
HETATM   15  O   UNL     1      44.200 -20.720   2.902  1.00  0.00    -0.302 OA
HETATM   16  C   UNL     1      44.408 -22.036   2.621  1.00  0.00     0.163 A 
HETATM   17  C   UNL     1      44.763 -22.666   3.785  1.00  0.00     0.144 A 
HETATM   18  N   UNL     1      44.785 -21.763   4.817  1.00  0.00    -0.234 NA
ENDBRANCH  12  14
ENDBRANCH   1   7
BRANCH   3  19
HETATM   19  C   UNL     1      39.688 -14.390   2.960  1.00  0.00     0.227 C 
BRANCH  19  20
HETATM   20  C   UNL     1      39.339 -14.564   1.467  1.00  0.00     0.239 C 
HETATM   21  N   UNL     1      40.436 -14.544   0.634  1.00  0.00    -0.326 N 
HETATM   22  H   UNL     1      41.347 -14.600   1.095  1.00  0.00     0.169 HD
HETATM   23  O   UNL     1      38.161 -14.541   1.111  1.00  0.00    -0.271 OA
BRANCH  21  24
HETATM   24  C   UNL     1      40.476 -14.344  -0.759  1.00  0.00     0.034 A 
HETATM   25  C   UNL     1      40.179 -13.134  -1.385  1.00  0.00     0.029 A 
HETATM   26  C   UNL     1      40.318 -13.004  -2.771  1.00  0.00     0.002 A 
HETATM   27  C   UNL     1      40.745 -14.084  -3.540  1.00  0.00     0.000 A 
HETATM   28  C   UNL     1      41.030 -15.300  -2.926  1.00  0.00     0.002 A 
HETATM   29  C   UNL     1      40.898 -15.429  -1.542  1.00  0.00     0.029 A 
ENDBRANCH  21  24
ENDBRANCH  19  20
ENDBRANCH   3  19
TORSDOF 5
ENDMDL
MODEL 4
REMARK VINA RESULT:      -8.3      6.881     10.878
REMARK  5 active torsions:
REMARK  status: ('A' for Active; 'I' for Inactive)
REMARK    1  A    between atoms: C_3  and  N_4 
REMARK       I    between atoms: N_4  and  C_5 
REMARK       I    between atoms: C_5  and  N_6 
REMARK    2  A    between atoms: N_6  and  C_7 
REMARK    3  A    between atoms: C_7  and  C_8 
REMARK       I    between atoms: C_8  and  N_9 
REMARK    4  A    between atoms: N_9  and  C_10 
REMARK    5  A    between atoms: C_19  and  C_20 
ROOT
HETATM    1  N   UNL     1      43.101 -16.441   0.944  1.00  0.00    -0.309 N 
HETATM    2  C   UNL     1      41.893 -16.606   0.310  1.00  0.00     0.321 C 
HETATM    3  N   UNL     1      41.781 -15.805  -0.796  1.00  0.00    -0.334 N 
HETATM    4  O   UNL     1      41.007 -17.383   0.645  1.00  0.00    -0.247 OA
HETATM    5  H   UNL     1      43.879 -16.323   0.313  1.00  0.00     0.170 HD
HETATM    6  H   UNL     1      42.480 -15.088  -0.919  1.00  0.00     0.164 HD
ENDROOT
BRANCH   1   7
HETATM    7  C   UNL     1      43.392 -16.956   2.228  1.00  0.00     0.043 A 
HETATM    8  C   UNL     1      43.209 -16.154   3.369  1.00  0.00    -0.035 A 
HETATM    9  C   UNL     1      42.821 -14.704   3.284  1.00  0.00     0.050 C 
HETATM   10  C   UNL     1      43.472 -16.706   4.633  1.00  0.00     0.010 A 
HETATM   11  C   UNL     1      43.864 -18.040   4.764  1.00  0.00     0.016 A 
HETATM   12  C   UNL     1      44.015 -18.857   3.638  1.00  0.00     0.019 A 
HETATM   13  C   UNL     1      43.795 -18.294   2.371  1.00  0.00     0.046 A 
BRANCH  12  14
HETATM   14  C   UNL     1      44.360 -20.265   3.811  1.00  0.00     0.179 A 
HETATM   15  O   UNL     1      44.154 -21.094   2.737  1.00  0.00    -0.302 OA
HETATM   16  C   UNL     1      44.508 -22.327   3.192  1.00  0.00     0.163 A 
HETATM   17  C   UNL     1      44.907 -22.198   4.496  1.00  0.00     0.144 A 
HETATM   18  N   UNL     1      44.811 -20.887   4.887  1.00  0.00    -0.234 NA
ENDBRANCH  12  14
ENDBRANCH   1   7
BRANCH   3  19
HETATM   19  C   UNL     1      40.948 -16.132  -1.946  1.00  0.00     0.227 C 
BRANCH  19  20
HETATM   20  C   UNL     1      40.243 -15.027  -2.760  1.00  0.00     0.239 C 
HETATM   21  N   UNL     1      38.956 -14.764  -2.343  1.00  0.00    -0.326 N 
HETATM   22  H   UNL     1      38.681 -15.185  -1.453  1.00  0.00     0.169 HD
HETATM   23  O   UNL     1      40.775 -14.589  -3.780  1.00  0.00    -0.271 OA
BRANCH  21  24
HETATM   24  C   UNL     1      37.932 -14.087  -3.032  1.00  0.00     0.034 A 
HETATM   25  C   UNL     1      37.704 -12.714  -2.945  1.00  0.00     0.029 A 
HETATM   26  C   UNL     1      36.711 -12.113  -3.725  1.00  0.00     0.002 A 
HETATM   27  C   UNL     1      35.932 -12.881  -4.588  1.00  0.00     0.000 A 
HETATM   28  C   UNL     1      36.143 -14.254  -4.671  1.00  0.00     0.002 A 
HETATM   29  C   UNL     1      37.139 -14.854  -3.898  1.00  0.00     0.029 A 
ENDBRANCH  21  24
ENDBRANCH  19  20
ENDBRANCH   3  19
TORSDOF 5
ENDMDL
MODEL 5
REMARK VINA RESULT:      -8.2      2.915      4.401
REMARK  5 active torsions:
REMARK  status: ('A' for Active; 'I' for Inactive)
REMARK    1  A    between atoms: C_3  and  N_4 
REMARK       I    between atoms: N_4  and  C_5 
REMARK       I    between atoms: C_5  and  N_6 
REMARK    2  A    between atoms: N_6  and  C_7 
REMARK    3  A    between atoms: C_7  and  C_8 
REMARK       I    between atoms: C_8  and  N_9 
REMARK    4  A    between atoms: N_9  and  C_10 
REMARK    5  A    between atoms: C_19  and  C_20 
ROOT
HETATM    1  N   UNL     1      42.499 -14.840   6.259  1.00  0.00    -0.309 N 
HETATM    2  C   UNL     1      43.598 -14.015   6.310  1.00  0.00     0.321 C 
HETATM    3  N   UNL     1      43.680 -13.344   7.502  1.00  0.00    -0.334 N 
HETATM    4  O   UNL     1      44.440 -13.886   5.430  1.00  0.00    -0.247 OA
HETATM    5  H   UNL     1      42.303 -15.310   7.128  1.00  0.00     0.170 HD
HETATM    6  H   UNL     1      42.876 -13.384   8.110  1.00  0.00     0.164 HD
ENDROOT
BRANCH   1   7
HETATM    7  C   UNL     1      42.039 -15.463   5.077  1.00  0.00     0.043 A 
HETATM    8  C   UNL     1      42.298 -16.827   4.849  1.00  0.00    -0.035 A 
HETATM    9  C   UNL     1      43.160 -17.650   5.767  1.00  0.00     0.050 C 
HETATM   10  C   UNL     1      41.797 -17.425   3.683  1.00  0.00     0.010 A 
HETATM   11  C   UNL     1      41.015 -16.697   2.784  1.00  0.00     0.016 A 
HETATM   12  C   UNL     1      40.722 -15.349   3.017  1.00  0.00     0.019 A 
HETATM   13  C   UNL     1      41.259 -14.738   4.161  1.00  0.00     0.046 A 
BRANCH  12  14
HETATM   14  C   UNL     1      39.847 -14.632   2.093  1.00  0.00     0.179 A 
HETATM   15  O   UNL     1      38.591 -15.149   1.897  1.00  0.00    -0.302 OA
HETATM   16  C   UNL     1      38.029 -14.324   0.971  1.00  0.00     0.163 A 
HETATM   17  C   UNL     1      38.949 -13.359   0.651  1.00  0.00     0.144 A 
HETATM   18  N   UNL     1      40.103 -13.559   1.365  1.00  0.00    -0.234 NA
ENDBRANCH  12  14
ENDBRANCH   1   7
BRANCH   3  19
HETATM   19  C   UNL     1      44.935 -12.881   8.080  1.00  0.00     0.227 C 
BRANCH  19  20
HETATM   20  C   UNL     1      44.961 -11.749   9.128  1.00  0.00     0.239 C 
HETATM   21  N   UNL     1      43.863 -11.739   9.961  1.00  0.00    -0.326 N 
HETATM   22  H   UNL     1      43.261 -12.564   9.917  1.00  0.00     0.169 HD
HETATM   23  O   UNL     1      45.821 -10.873   9.057  1.00  0.00    -0.271 OA
BRANCH  21  24
HETATM   24  C   UNL     1      43.397 -10.696  10.783  1.00  0.00     0.034 A 
HETATM   25  C   UNL     1      42.410  -9.784  10.409  1.00  0.00     0.029 A 
HETATM   26  C   UNL     1      41.953  -8.824  11.318  1.00  0.00     0.002 A 
HETATM   27  C   UNL     1      42.485  -8.764  12.604  1.00  0.00     0.000 A 
HETATM   28  C   UNL     1      43.480  -9.660  12.983  1.00  0.00     0.002 A 
HETATM   29  C   UNL     1      43.932 -10.622  12.077  1.00  0.00     0.029 A 
ENDBRANCH  21  24
ENDBRANCH  19  20
ENDBRANCH   3  19
TORSDOF 5
ENDMDL
MODEL 6
REMARK VINA RESULT:      -8.0      2.115      2.382
REMARK  5 active torsions:
REMARK  status: ('A' for Active; 'I' for Inactive)
REMARK    1  A    between atoms: C_3  and  N_4 
REMARK       I    between atoms: N_4  and  C_5 
REMARK       I    between atoms: C_5  and  N_6 
REMARK    2  A    between atoms: N_6  and  C_7 
REMARK    3  A    between atoms: C_7  and  C_8 
REMARK       I    between atoms: C_8  and  N_9 
REMARK    4  A    between atoms: N_9  and  C_10 
REMARK    5  A    between atoms: C_19  and  C_20 
ROOT
HETATM    1  N   UNL     1      41.107 -14.271   6.092  1.00  0.00    -0.309 N 
HETATM    2  C   UNL     1      41.752 -13.062   5.984  1.00  0.00     0.321 C 
HETATM    3  N   UNL     1      41.233 -12.127   6.841  1.00  0.00    -0.334 N 
HETATM    4  O   UNL     1      42.696 -12.816   5.245  1.00  0.00    -0.247 OA
HETATM    5  H   UNL     1      40.863 -14.519   7.037  1.00  0.00     0.170 HD
HETATM    6  H   UNL     1      40.366 -12.355   7.303  1.00  0.00     0.164 HD
ENDROOT
BRANCH   1   7
HETATM    7  C   UNL     1      41.271 -15.333   5.173  1.00  0.00     0.043 A 
HETATM    8  C   UNL     1      40.664 -15.272   3.906  1.00  0.00    -0.035 A 
HETATM    9  C   UNL     1      39.731 -14.162   3.509  1.00  0.00     0.050 C 
HETATM   10  C   UNL     1      40.876 -16.326   3.003  1.00  0.00     0.010 A 
HETATM   11  C   UNL     1      41.710 -17.396   3.335  1.00  0.00     0.016 A 
HETATM   12  C   UNL     1      42.347 -17.450   4.579  1.00  0.00     0.019 A 
HETATM   13  C   UNL     1      42.102 -16.418   5.499  1.00  0.00     0.046 A 
BRANCH  12  14
HETATM   14  C   UNL     1      43.266 -18.546   4.871  1.00  0.00     0.179 A 
HETATM   15  O   UNL     1      43.199 -19.097   6.127  1.00  0.00    -0.302 OA
HETATM   16  C   UNL     1      44.181 -20.041   6.131  1.00  0.00     0.163 A 
HETATM   17  C   UNL     1      44.790 -20.024   4.903  1.00  0.00     0.144 A 
HETATM   18  N   UNL     1      44.206 -19.072   4.106  1.00  0.00    -0.234 NA
ENDBRANCH  12  14
ENDBRANCH   1   7
BRANCH   3  19
HETATM   19  C   UNL     1      42.002 -11.009   7.374  1.00  0.00     0.227 C 
BRANCH  19  20
HETATM   20  C   UNL     1      42.722 -11.113   8.735  1.00  0.00     0.239 C 
HETATM   21  N   UNL     1      41.879 -10.996   9.819  1.00  0.00    -0.326 N 
HETATM   22  H   UNL     1      40.879 -11.036   9.613  1.00  0.00     0.169 HD
HETATM   23  O   UNL     1      43.952 -11.123   8.774  1.00  0.00    -0.271 OA
BRANCH  21  24
HETATM   24  C   UNL     1      42.208 -10.715  11.159  1.00  0.00     0.034 A 
HETATM   25  C   UNL     1      43.336  -9.996  11.554  1.00  0.00     0.029 A 
HETATM   26  C   UNL     1      43.545  -9.698  12.905  1.00  0.00     0.002 A 
HETATM   27  C   UNL     1      42.634 -10.124  13.869  1.00  0.00     0.000 A 
HETATM   28  C   UNL     1      41.513 -10.854  13.485  1.00  0.00     0.002 A 
HETATM   29  C   UNL     1      41.300 -11.146  12.137  1.00  0.00     0.029 A 
ENDBRANCH  21  24
ENDBRANCH  19  20
ENDBRANCH   3  19
TORSDOF 5
ENDMDL
MODEL 7
REMARK VINA RESULT:      -7.9      5.525      9.756
REMARK  5 active torsions:
REMARK  status: ('A' for Active; 'I' for Inactive)
REMARK    1  A    between atoms: C_3  and  N_4 
REMARK       I    between atoms: N_4  and  C_5 
REMARK       I    between atoms: C_5  and  N_6 
REMARK    2  A    between atoms: N_6  and  C_7 
REMARK    3  A    between atoms: C_7  and  C_8 
REMARK       I    between atoms: C_8  and  N_9 
REMARK    4  A    between atoms: N_9  and  C_10 
REMARK    5  A    between atoms: C_19  and  C_20 
ROOT
HETATM    1  N   UNL     1      43.287 -14.956   2.823  1.00  0.00    -0.309 N 
HETATM    2  C   UNL     1      42.075 -14.392   2.505  1.00  0.00     0.321 C 
HETATM    3  N   UNL     1      42.215 -13.125   2.002  1.00  0.00    -0.334 N 
HETATM    4  O   UNL     1      40.981 -14.931   2.618  1.00  0.00    -0.247 OA
HETATM    5  H   UNL     1      44.020 -14.742   2.165  1.00  0.00     0.170 HD
HETATM    6  H   UNL     1      43.124 -12.695   2.083  1.00  0.00     0.164 HD
ENDROOT
BRANCH   1   7
HETATM    7  C   UNL     1      43.428 -16.146   3.573  1.00  0.00     0.043 A 
HETATM    8  C   UNL     1      43.325 -16.114   4.976  1.00  0.00    -0.035 A 
HETATM    9  C   UNL     1      43.184 -14.831   5.747  1.00  0.00     0.050 C 
HETATM   10  C   UNL     1      43.433 -17.319   5.689  1.00  0.00     0.010 A 
HETATM   11  C   UNL     1      43.594 -18.534   5.021  1.00  0.00     0.016 A 
HETATM   12  C   UNL     1      43.663 -18.582   3.625  1.00  0.00     0.019 A 
HETATM   13  C   UNL     1      43.598 -17.374   2.912  1.00  0.00     0.046 A 
BRANCH  12  14
HETATM   14  C   UNL     1      43.764 -19.874   2.952  1.00  0.00     0.179 A 
HETATM   15  O   UNL     1      44.618 -20.797   3.501  1.00  0.00    -0.302 OA
HETATM   16  C   UNL     1      44.549 -21.862   2.657  1.00  0.00     0.163 A 
HETATM   17  C   UNL     1      43.673 -21.549   1.651  1.00  0.00     0.144 A 
HETATM   18  N   UNL     1      43.177 -20.284   1.841  1.00  0.00    -0.234 NA
ENDBRANCH  12  14
ENDBRANCH   1   7
BRANCH   3  19
HETATM   19  C   UNL     1      41.264 -12.514   1.082  1.00  0.00     0.227 C 
BRANCH  19  20
HETATM   20  C   UNL     1      41.192 -12.951  -0.396  1.00  0.00     0.239 C 
HETATM   21  N   UNL     1      40.010 -13.573  -0.734  1.00  0.00    -0.326 N 
HETATM   22  H   UNL     1      39.261 -13.517  -0.040  1.00  0.00     0.169 HD
HETATM   23  O   UNL     1      42.196 -12.875  -1.103  1.00  0.00    -0.271 OA
BRANCH  21  24
HETATM   24  C   UNL     1      39.731 -14.374  -1.857  1.00  0.00     0.034 A 
HETATM   25  C   UNL     1      40.559 -15.399  -2.315  1.00  0.00     0.029 A 
HETATM   26  C   UNL     1      40.167 -16.195  -3.396  1.00  0.00     0.002 A 
HETATM   27  C   UNL     1      38.949 -15.966  -4.032  1.00  0.00     0.000 A 
HETATM   28  C   UNL     1      38.122 -14.937  -3.592  1.00  0.00     0.002 A 
HETATM   29  C   UNL     1      38.510 -14.147  -2.509  1.00  0.00     0.029 A 
ENDBRANCH  21  24
ENDBRANCH  19  20
ENDBRANCH   3  19
TORSDOF 5
ENDMDL
MODEL 8
REMARK VINA RESULT:      -7.8      2.189      2.283
REMARK  5 active torsions:
REMARK  status: ('A' for Active; 'I' for Inactive)
REMARK    1  A    between atoms: C_3  and  N_4 
REMARK       I    between atoms: N_4  and  C_5 
REMARK       I    between atoms: C_5  and  N_6 
REMARK    2  A    between atoms: N_6  and  C_7 
REMARK    3  A    between atoms: C_7  and  C_8 
REMARK       I    between atoms: C_8  and  N_9 
REMARK    4  A    between atoms: N_9  and  C_10 
REMARK    5  A    between atoms: C_19  and  C_20 
ROOT
HETATM    1  N   UNL     1      42.951 -13.602   5.192  1.00  0.00    -0.309 N 
HETATM    2  C   UNL     1      41.842 -13.220   5.909  1.00  0.00     0.321 C 
HETATM    3  N   UNL     1      42.115 -12.180   6.759  1.00  0.00    -0.334 N 
HETATM    4  O   UNL     1      40.722 -13.705   5.811  1.00  0.00    -0.247 OA
HETATM    5  H   UNL     1      43.528 -12.832   4.894  1.00  0.00     0.170 HD
HETATM    6  H   UNL     1      43.085 -11.939   6.896  1.00  0.00     0.164 HD
ENDROOT
BRANCH   1   7
HETATM    7  C   UNL     1      43.020 -14.788   4.425  1.00  0.00     0.043 A 
HETATM    8  C   UNL     1      42.881 -14.734   3.026  1.00  0.00    -0.035 A 
HETATM    9  C   UNL     1      42.539 -13.464   2.296  1.00  0.00     0.050 C 
HETATM   10  C   UNL     1      42.991 -15.923   2.289  1.00  0.00     0.010 A 
HETATM   11  C   UNL     1      43.278 -17.134   2.923  1.00  0.00     0.016 A 
HETATM   12  C   UNL     1      43.453 -17.194   4.310  1.00  0.00     0.019 A 
HETATM   13  C   UNL     1      43.301 -16.012   5.053  1.00  0.00     0.046 A 
BRANCH  12  14
HETATM   14  C   UNL     1      43.819 -18.461   4.936  1.00  0.00     0.179 A 
HETATM   15  O   UNL     1      44.506 -19.363   4.162  1.00  0.00    -0.302 OA
HETATM   16  C   UNL     1      44.665 -20.446   4.970  1.00  0.00     0.163 A 
HETATM   17  C   UNL     1      44.081 -20.163   6.177  1.00  0.00     0.144 A 
HETATM   18  N   UNL     1      43.543 -18.901   6.151  1.00  0.00    -0.234 NA
ENDBRANCH  12  14
ENDBRANCH   1   7
BRANCH   3  19
HETATM   19  C   UNL     1      41.116 -11.213   7.195  1.00  0.00     0.227 C 
BRANCH  19  20
HETATM   20  C   UNL     1      41.290 -10.423   8.509  1.00  0.00     0.239 C 
HETATM   21  N   UNL     1      42.089 -11.057   9.436  1.00  0.00    -0.326 N 
HETATM   22  H   UNL     1      42.610 -11.867   9.096  1.00  0.00     0.169 HD
HETATM   23  O   UNL     1      40.613  -9.415   8.708  1.00  0.00    -0.271 OA
BRANCH  21  24
HETATM   24  C   UNL     1      42.195 -10.808  10.817  1.00  0.00     0.034 A 
HETATM   25  C   UNL     1      41.231 -11.173  11.757  1.00  0.00     0.029 A 
HETATM   26  C   UNL     1      41.454 -10.953  13.120  1.00  0.00     0.002 A 
HETATM   27  C   UNL     1      42.637 -10.358  13.552  1.00  0.00     0.000 A 
HETATM   28  C   UNL     1      43.599  -9.977  12.622  1.00  0.00     0.002 A 
HETATM   29  C   UNL     1      43.380 -10.202  11.261  1.00  0.00     0.029 A 
ENDBRANCH  21  24
ENDBRANCH  19  20
ENDBRANCH   3  19
TORSDOF 5
ENDMDL
MODEL 9
REMARK VINA RESULT:      -7.8      5.202      9.823
REMARK  5 active torsions:
REMARK  status: ('A' for Active; 'I' for Inactive)
REMARK    1  A    between atoms: C_3  and  N_4 
REMARK       I    between atoms: N_4  and  C_5 
REMARK       I    between atoms: C_5  and  N_6 
REMARK    2  A    between atoms: N_6  and  C_7 
REMARK    3  A    between atoms: C_7  and  C_8 
REMARK       I    between atoms: C_8  and  N_9 
REMARK    4  A    between atoms: N_9  and  C_10 
REMARK    5  A    between atoms: C_19  and  C_20 
ROOT
HETATM    1  N   UNL     1      43.197 -14.962   2.395  1.00  0.00    -0.309 N 
HETATM    2  C   UNL     1      42.021 -14.257   2.295  1.00  0.00     0.321 C 
HETATM    3  N   UNL     1      42.232 -12.966   1.888  1.00  0.00    -0.334 N 
HETATM    4  O   UNL     1      40.900 -14.699   2.510  1.00  0.00    -0.247 OA
HETATM    5  H   UNL     1      43.859 -14.755   1.664  1.00  0.00     0.170 HD
HETATM    6  H   UNL     1      43.184 -12.634   1.880  1.00  0.00     0.164 HD
ENDROOT
BRANCH   1   7
HETATM    7  C   UNL     1      43.304 -16.229   3.014  1.00  0.00     0.043 A 
HETATM    8  C   UNL     1      43.450 -17.389   2.230  1.00  0.00    -0.035 A 
HETATM    9  C   UNL     1      43.382 -17.363   0.728  1.00  0.00     0.050 C 
HETATM   10  C   UNL     1      43.590 -18.627   2.876  1.00  0.00     0.010 A 
HETATM   11  C   UNL     1      43.629 -18.709   4.269  1.00  0.00     0.016 A 
HETATM   12  C   UNL     1      43.519 -17.558   5.058  1.00  0.00     0.019 A 
HETATM   13  C   UNL     1      43.336 -16.324   4.415  1.00  0.00     0.046 A 
BRANCH  12  14
HETATM   14  C   UNL     1      43.631 -17.667   6.509  1.00  0.00     0.179 A 
HETATM   15  O   UNL     1      44.305 -18.757   7.003  1.00  0.00    -0.302 OA
HETATM   16  C   UNL     1      44.211 -18.626   8.354  1.00  0.00     0.163 A 
HETATM   17  C   UNL     1      43.499 -17.485   8.620  1.00  0.00     0.144 A 
HETATM   18  N   UNL     1      43.132 -16.879   7.446  1.00  0.00    -0.234 NA
ENDBRANCH  12  14
ENDBRANCH   1   7
BRANCH   3  19
HETATM   19  C   UNL     1      41.242 -12.180   1.162  1.00  0.00     0.227 C 
BRANCH  19  20
HETATM   20  C   UNL     1      40.902 -12.489  -0.311  1.00  0.00     0.239 C 
HETATM   21  N   UNL     1      40.070 -13.575  -0.473  1.00  0.00    -0.326 N 
HETATM   22  H   UNL     1      39.635 -13.935   0.379  1.00  0.00     0.169 HD
HETATM   23  O   UNL     1      41.492 -11.890  -1.210  1.00  0.00    -0.271 OA
BRANCH  21  24
HETATM   24  C   UNL     1      39.828 -14.328  -1.638  1.00  0.00     0.034 A 
HETATM   25  C   UNL     1      40.703 -15.287  -2.148  1.00  0.00     0.029 A 
HETATM   26  C   UNL     1      40.346 -16.042  -3.270  1.00  0.00     0.002 A 
HETATM   27  C   UNL     1      39.118 -15.837  -3.895  1.00  0.00     0.000 A 
HETATM   28  C   UNL     1      38.245 -14.872  -3.402  1.00  0.00     0.002 A 
HETATM   29  C   UNL     1      38.597 -14.123  -2.278  1.00  0.00     0.029 A 
ENDBRANCH  21  24
ENDBRANCH  19  20
ENDBRANCH   3  19
TORSDOF 5
ENDMDL
MODEL 10
REMARK VINA RESULT:      -7.6      6.215      9.870
REMARK  5 active torsions:
REMARK  status: ('A' for Active; 'I' for Inactive)
REMARK    1  A    between atoms: C_3  and  N_4 
REMARK       I    between atoms: N_4  and  C_5 
REMARK       I    between atoms: C_5  and  N_6 
REMARK    2  A    between atoms: N_6  and  C_7 
REMARK    3  A    between atoms: C_7  and  C_8 
REMARK       I    between atoms: C_8  and  N_9 
REMARK    4  A    between atoms: N_9  and  C_10 
REMARK    5  A    between atoms: C_19  and  C_20 
ROOT
HETATM    1  N   UNL     1      42.611 -15.591   1.827  1.00  0.00    -0.309 N 
HETATM    2  C   UNL     1      41.289 -15.488   1.467  1.00  0.00     0.321 C 
HETATM    3  N   UNL     1      41.045 -14.359   0.730  1.00  0.00    -0.334 N 
HETATM    4  O   UNL     1      40.409 -16.297   1.730  1.00  0.00    -0.247 OA
HETATM    5  H   UNL     1      43.253 -15.298   1.107  1.00  0.00     0.170 HD
HETATM    6  H   UNL     1      41.780 -13.669   0.685  1.00  0.00     0.164 HD
ENDROOT
BRANCH   1   7
HETATM    7  C   UNL     1      43.097 -16.517   2.778  1.00  0.00     0.043 A 
HETATM    8  C   UNL     1      43.192 -16.153   4.134  1.00  0.00    -0.035 A 
HETATM    9  C   UNL     1      42.907 -14.758   4.619  1.00  0.00     0.050 C 
HETATM   10  C   UNL     1      43.644 -17.106   5.060  1.00  0.00     0.010 A 
HETATM   11  C   UNL     1      43.951 -18.407   4.656  1.00  0.00     0.016 A 
HETATM   12  C   UNL     1      43.826 -18.790   3.316  1.00  0.00     0.019 A 
HETATM   13  C   UNL     1      43.416 -17.826   2.382  1.00  0.00     0.046 A 
BRANCH  12  14
HETATM   14  C   UNL     1      44.089 -20.175   2.935  1.00  0.00     0.179 A 
HETATM   15  O   UNL     1      43.656 -20.574   1.695  1.00  0.00    -0.302 OA
HETATM   16  C   UNL     1      43.985 -21.893   1.633  1.00  0.00     0.163 A 
HETATM   17  C   UNL     1      44.593 -22.234   2.813  1.00  0.00     0.144 A 
HETATM   18  N   UNL     1      44.657 -21.140   3.639  1.00  0.00    -0.234 NA
ENDBRANCH  12  14
ENDBRANCH   1   7
BRANCH   3  19
HETATM   19  C   UNL     1      39.965 -14.250  -0.243  1.00  0.00     0.227 C 
BRANCH  19  20
HETATM   20  C   UNL     1      40.076 -13.303  -1.456  1.00  0.00     0.239 C 
HETATM   21  N   UNL     1      41.374 -13.014  -1.817  1.00  0.00    -0.326 N 
HETATM   22  H   UNL     1      42.098 -13.583  -1.374  1.00  0.00     0.169 HD
HETATM   23  O   UNL     1      39.065 -12.760  -1.899  1.00  0.00    -0.271 OA
BRANCH  21  24
HETATM   24  C   UNL     1      41.845 -11.965  -2.629  1.00  0.00     0.034 A 
HETATM   25  C   UNL     1      41.865 -12.001  -4.023  1.00  0.00     0.029 A 
HETATM   26  C   UNL     1      42.280 -10.882  -4.753  1.00  0.00     0.002 A 
HETATM   27  C   UNL     1      42.686  -9.723  -4.094  1.00  0.00     0.000 A 
HETATM   28  C   UNL     1      42.683  -9.682  -2.702  1.00  0.00     0.002 A 
HETATM   29  C   UNL     1      42.263 -10.797  -1.974  1.00  0.00     0.029 A 
ENDBRANCH  21  24
ENDBRANCH  19  20
ENDBRANCH   3  19
TORSDOF 5
ENDMDL
