MODEL 1
REMARK VINA RESULT:      -7.6      0.000      0.000
REMARK  4 active torsions:
REMARK  status: ('A' for Active; 'I' for Inactive)
REMARK    1  A    between atoms: C_5  and  C_6 
REMARK    2  A    between atoms: C_6  and  N_7 
REMARK       I    between atoms: N_7  and  C_8 
REMARK       I    between atoms: C_8  and  N_9 
REMARK    3  A    between atoms: N_9  and  C_10 
REMARK    4  A    between atoms: C_11  and  C_12 
ROOT
HETATM    1  N   UNL     1      42.536 -17.116   7.382  1.00  0.00    -0.339 N 
HETATM    2  C   UNL     1      41.629 -16.764   6.422  1.00  0.00     0.321 C 
HETATM    3  N   UNL     1      42.148 -16.096   5.350  1.00  0.00    -0.305 N 
HETATM    4  O   UNL     1      40.450 -17.045   6.604  1.00  0.00    -0.247 OA
HETATM    5  H   UNL     1      42.096 -17.652   8.120  1.00  0.00     0.164 HD
HETATM    6  H   UNL     1      42.972 -15.558   5.550  1.00  0.00     0.171 HD
ENDROOT
BRANCH   1   7
HETATM    7  C   UNL     1      43.948 -17.366   7.172  1.00  0.00     0.162 C 
BRANCH   7   8
HETATM    8  C   UNL     1      44.196 -18.721   6.566  1.00  0.00    -0.040 A 
HETATM    9  C   UNL     1      43.743 -19.881   7.205  1.00  0.00     0.009 A 
HETATM   10  C   UNL     1      43.925 -21.136   6.616  1.00  0.00     0.007 A 
HETATM   11  C   UNL     1      44.558 -21.252   5.375  1.00  0.00    -0.062 A 
HETATM   12  C   UNL     1      44.752 -22.591   4.728  1.00  0.00     0.048 C 
HETATM   13  C   UNL     1      45.015 -20.095   4.734  1.00  0.00     0.007 A 
HETATM   14  C   UNL     1      44.832 -18.841   5.322  1.00  0.00     0.009 A 
ENDBRANCH   7   8
ENDBRANCH   1   7
BRANCH   3  15
HETATM   15  C   UNL     1      41.487 -15.783   4.169  1.00  0.00     0.095 A 
HETATM   16  C   UNL     1      41.696 -16.404   2.945  1.00  0.00     0.112 A 
HETATM   17  O   UNL     1      40.857 -15.848   2.024  1.00  0.00    -0.215 OA
HETATM   18  N   UNL     1      40.078 -14.884   2.610  1.00  0.00    -0.131 NA
HETATM   19  C   UNL     1      40.440 -14.846   3.898  1.00  0.00     0.087 A 
HETATM   20  C   UNL     1      39.705 -13.928   4.799  1.00  0.00     0.075 C 
BRANCH  16  21
HETATM   21  C   UNL     1      42.649 -17.513   2.509  1.00  0.00     0.048 A 
HETATM   22  C   UNL     1      43.056 -17.671   1.061  1.00  0.00     0.012 A 
HETATM   23  C   UNL     1      44.062 -17.210   2.064  1.00  0.00     0.012 A 
ENDBRANCH  16  21
ENDBRANCH   3  15
TORSDOF 4
ENDMDL
MODEL 2
REMARK VINA RESULT:      -7.3      1.474      1.780
REMARK  4 active torsions:
REMARK  status: ('A' for Active; 'I' for Inactive)
REMARK    1  A    between atoms: C_5  and  C_6 
REMARK    2  A    between atoms: C_6  and  N_7 
REMARK       I    between atoms: N_7  and  C_8 
REMARK       I    between atoms: C_8  and  N_9 
REMARK    3  A    between atoms: N_9  and  C_10 
REMARK    4  A    between atoms: C_11  and  C_12 
ROOT
HETATM    1  N   UNL     1      42.822 -17.602   6.254  1.00  0.00    -0.339 N 
HETATM    2  C   UNL     1      41.723 -17.000   5.707  1.00  0.00     0.321 C 
HETATM    3  N   UNL     1      41.990 -15.960   4.864  1.00  0.00    -0.305 N 
HETATM    4  O   UNL     1      40.614 -17.412   6.027  1.00  0.00    -0.247 OA
HETATM    5  H   UNL     1      42.557 -18.395   6.825  1.00  0.00     0.164 HD
HETATM    6  H   UNL     1      42.845 -15.470   5.061  1.00  0.00     0.171 HD
ENDROOT
BRANCH   1   7
HETATM    7  C   UNL     1      44.145 -17.659   5.666  1.00  0.00     0.162 C 
BRANCH   7   8
HETATM    8  C   UNL     1      44.275 -18.785   4.677  1.00  0.00    -0.040 A 
HETATM    9  C   UNL     1      44.680 -20.059   5.097  1.00  0.00     0.009 A 
HETATM   10  C   UNL     1      44.749 -21.119   4.189  1.00  0.00     0.007 A 
HETATM   11  C   UNL     1      44.408 -20.927   2.846  1.00  0.00    -0.062 A 
HETATM   12  C   UNL     1      44.470 -22.058   1.864  1.00  0.00     0.048 C 
HETATM   13  C   UNL     1      44.006 -19.655   2.422  1.00  0.00     0.007 A 
HETATM   14  C   UNL     1      43.937 -18.595   3.330  1.00  0.00     0.009 A 
ENDBRANCH   7   8
ENDBRANCH   1   7
BRANCH   3  15
HETATM   15  C   UNL     1      41.080 -15.298   4.050  1.00  0.00     0.095 A 
HETATM   16  C   UNL     1      40.805 -15.620   2.728  1.00  0.00     0.112 A 
HETATM   17  O   UNL     1      39.849 -14.768   2.260  1.00  0.00    -0.215 OA
HETATM   18  N   UNL     1      39.464 -13.897   3.246  1.00  0.00    -0.131 NA
HETATM   19  C   UNL     1      40.187 -14.215   4.326  1.00  0.00     0.087 A 
HETATM   20  C   UNL     1      39.927 -13.470   5.580  1.00  0.00     0.075 C 
BRANCH  16  21
HETATM   21  C   UNL     1      41.373 -16.686   1.795  1.00  0.00     0.048 A 
HETATM   22  C   UNL     1      41.274 -16.544   0.293  1.00  0.00     0.012 A 
HETATM   23  C   UNL     1      42.606 -16.429   0.958  1.00  0.00     0.012 A 
ENDBRANCH  16  21
ENDBRANCH   3  15
TORSDOF 4
ENDMDL
MODEL 3
REMARK VINA RESULT:      -7.2      1.595      3.501
REMARK  4 active torsions:
REMARK  status: ('A' for Active; 'I' for Inactive)
REMARK    1  A    between atoms: C_5  and  C_6 
REMARK    2  A    between atoms: C_6  and  N_7 
REMARK       I    between atoms: N_7  and  C_8 
REMARK       I    between atoms: C_8  and  N_9 
REMARK    3  A    between atoms: N_9  and  C_10 
REMARK    4  A    between atoms: C_11  and  C_12 
ROOT
HETATM    1  N   UNL     1      42.785 -17.225   6.051  1.00  0.00    -0.339 N 
HETATM    2  C   UNL     1      41.629 -16.746   5.500  1.00  0.00     0.321 C 
HETATM    3  N   UNL     1      41.799 -15.850   4.484  1.00  0.00    -0.305 N 
HETATM    4  O   UNL     1      40.561 -17.126   5.964  1.00  0.00    -0.247 OA
HETATM    5  H   UNL     1      42.589 -17.921   6.759  1.00  0.00     0.164 HD
HETATM    6  H   UNL     1      42.647 -15.313   4.535  1.00  0.00     0.171 HD
ENDROOT
BRANCH   1   7
HETATM    7  C   UNL     1      44.064 -17.344   5.382  1.00  0.00     0.162 C 
BRANCH   7   8
HETATM    8  C   UNL     1      44.119 -18.547   4.481  1.00  0.00    -0.040 A 
HETATM    9  C   UNL     1      43.746 -18.446   3.134  1.00  0.00     0.009 A 
HETATM   10  C   UNL     1      43.848 -19.551   2.283  1.00  0.00     0.007 A 
HETATM   11  C   UNL     1      44.330 -20.773   2.760  1.00  0.00    -0.062 A 
HETATM   12  C   UNL     1      44.451 -21.963   1.856  1.00  0.00     0.048 C 
HETATM   13  C   UNL     1      44.700 -20.879   4.106  1.00  0.00     0.007 A 
HETATM   14  C   UNL     1      44.599 -19.776   4.957  1.00  0.00     0.009 A 
ENDBRANCH   7   8
ENDBRANCH   1   7
BRANCH   3  15
HETATM   15  C   UNL     1      40.810 -15.350   3.645  1.00  0.00     0.095 A 
HETATM   16  C   UNL     1      40.177 -14.124   3.794  1.00  0.00     0.112 A 
HETATM   17  O   UNL     1      39.283 -13.967   2.777  1.00  0.00    -0.215 OA
HETATM   18  N   UNL     1      39.319 -15.052   1.939  1.00  0.00    -0.131 NA
HETATM   19  C   UNL     1      40.240 -15.881   2.445  1.00  0.00     0.087 A 
HETATM   20  C   UNL     1      40.543 -17.122   1.695  1.00  0.00     0.075 C 
BRANCH  16  21
HETATM   21  C   UNL     1      40.312 -13.023   4.843  1.00  0.00     0.048 A 
HETATM   22  C   UNL     1      39.136 -12.146   5.212  1.00  0.00     0.012 A 
HETATM   23  C   UNL     1      39.653 -13.140   6.200  1.00  0.00     0.012 A 
ENDBRANCH  16  21
ENDBRANCH   3  15
TORSDOF 4
ENDMDL
MODEL 4
REMARK VINA RESULT:      -7.1      2.256      3.887
REMARK  4 active torsions:
REMARK  status: ('A' for Active; 'I' for Inactive)
REMARK    1  A    between atoms: C_5  and  C_6 
REMARK    2  A    between atoms: C_6  and  N_7 
REMARK       I    between atoms: N_7  and  C_8 
REMARK       I    between atoms: C_8  and  N_9 
REMARK    3  A    between atoms: N_9  and  C_10 
REMARK    4  A    between atoms: C_11  and  C_12 
ROOT
HETATM    1  N   UNL     1      41.939 -17.897   1.772  1.00  0.00    -0.339 N 
HETATM    2  C   UNL     1      41.572 -16.708   2.338  1.00  0.00     0.321 C 
HETATM    3  N   UNL     1      42.509 -16.140   3.152  1.00  0.00    -0.305 N 
HETATM    4  O   UNL     1      40.453 -16.269   2.099  1.00  0.00    -0.247 OA
HETATM    5  H   UNL     1      41.223 -18.236   1.141  1.00  0.00     0.164 HD
HETATM    6  H   UNL     1      43.129 -16.793   3.599  1.00  0.00     0.171 HD
ENDROOT
BRANCH   1   7
HETATM    7  C   UNL     1      43.293 -18.323   1.481  1.00  0.00     0.162 C 
BRANCH   7   8
HETATM    8  C   UNL     1      43.750 -19.419   2.404  1.00  0.00    -0.040 A 
HETATM    9  C   UNL     1      43.819 -20.745   1.956  1.00  0.00     0.009 A 
HETATM   10  C   UNL     1      44.295 -21.755   2.796  1.00  0.00     0.007 A 
HETATM   11  C   UNL     1      44.714 -21.459   4.097  1.00  0.00    -0.062 A 
HETATM   12  C   UNL     1      45.234 -22.533   5.005  1.00  0.00     0.048 C 
HETATM   13  C   UNL     1      44.643 -20.136   4.549  1.00  0.00     0.007 A 
HETATM   14  C   UNL     1      44.169 -19.126   3.709  1.00  0.00     0.009 A 
ENDBRANCH   7   8
ENDBRANCH   1   7
BRANCH   3  15
HETATM   15  C   UNL     1      42.464 -14.866   3.706  1.00  0.00     0.095 A 
HETATM   16  C   UNL     1      42.641 -14.570   5.050  1.00  0.00     0.112 A 
HETATM   17  O   UNL     1      42.549 -13.219   5.216  1.00  0.00    -0.215 OA
HETATM   18  N   UNL     1      42.336 -12.605   4.009  1.00  0.00    -0.131 NA
HETATM   19  C   UNL     1      42.296 -13.583   3.096  1.00  0.00     0.087 A 
HETATM   20  C   UNL     1      42.143 -13.199   1.673  1.00  0.00     0.075 C 
BRANCH  16  21
HETATM   21  C   UNL     1      42.890 -15.454   6.269  1.00  0.00     0.048 A 
HETATM   22  C   UNL     1      43.976 -16.505   6.264  1.00  0.00     0.012 A 
HETATM   23  C   UNL     1      44.128 -15.292   7.122  1.00  0.00     0.012 A 
ENDBRANCH  16  21
ENDBRANCH   3  15
TORSDOF 4
ENDMDL
MODEL 5
REMARK VINA RESULT:      -7.1      2.303      3.781
REMARK  4 active torsions:
REMARK  status: ('A' for Active; 'I' for Inactive)
REMARK    1  A    between atoms: C_5  and  C_6 
REMARK    2  A    between atoms: C_6  and  N_7 
REMARK       I    between atoms: N_7  and  C_8 
REMARK       I    between atoms: C_8  and  N_9 
REMARK    3  A    between atoms: N_9  and  C_10 
REMARK    4  A    between atoms: C_11  and  C_12 
ROOT
HETATM    1  N   UNL     1      43.961 -17.048   1.609  1.00  0.00    -0.339 N 
HETATM    2  C   UNL     1      43.292 -16.051   2.263  1.00  0.00     0.321 C 
HETATM    3  N   UNL     1      41.936 -16.061   2.102  1.00  0.00    -0.305 N 
HETATM    4  O   UNL     1      43.943 -15.233   2.902  1.00  0.00    -0.247 OA
HETATM    5  H   UNL     1      44.953 -17.014   1.812  1.00  0.00     0.164 HD
HETATM    6  H   UNL     1      41.619 -16.461   1.237  1.00  0.00     0.171 HD
ENDROOT
BRANCH   1   7
HETATM    7  C   UNL     1      43.429 -18.351   1.265  1.00  0.00     0.162 C 
BRANCH   7   8
HETATM    8  C   UNL     1      43.825 -19.403   2.264  1.00  0.00    -0.040 A 
HETATM    9  C   UNL     1      43.903 -20.750   1.887  1.00  0.00     0.009 A 
HETATM   10  C   UNL     1      44.323 -21.721   2.801  1.00  0.00     0.007 A 
HETATM   11  C   UNL     1      44.679 -21.363   4.105  1.00  0.00    -0.062 A 
HETATM   12  C   UNL     1      45.138 -22.394   5.092  1.00  0.00     0.048 C 
HETATM   13  C   UNL     1      44.598 -20.019   4.486  1.00  0.00     0.007 A 
HETATM   14  C   UNL     1      44.180 -19.048   3.574  1.00  0.00     0.009 A 
ENDBRANCH   7   8
ENDBRANCH   1   7
BRANCH   3  15
HETATM   15  C   UNL     1      41.014 -15.280   2.788  1.00  0.00     0.095 A 
HETATM   16  C   UNL     1      40.786 -15.325   4.157  1.00  0.00     0.112 A 
HETATM   17  O   UNL     1      39.828 -14.406   4.470  1.00  0.00    -0.215 OA
HETATM   18  N   UNL     1      39.426 -13.734   3.345  1.00  0.00    -0.131 NA
HETATM   19  C   UNL     1      40.140 -14.243   2.333  1.00  0.00     0.087 A 
HETATM   20  C   UNL     1      39.958 -13.649   0.988  1.00  0.00     0.075 C 
BRANCH  16  21
HETATM   21  C   UNL     1      41.387 -16.182   5.267  1.00  0.00     0.048 A 
HETATM   22  C   UNL     1      40.511 -16.833   6.313  1.00  0.00     0.012 A 
HETATM   23  C   UNL     1      41.199 -17.682   5.295  1.00  0.00     0.012 A 
ENDBRANCH  16  21
ENDBRANCH   3  15
TORSDOF 4
ENDMDL
MODEL 6
REMARK VINA RESULT:      -7.0      3.365      4.516
REMARK  4 active torsions:
REMARK  status: ('A' for Active; 'I' for Inactive)
REMARK    1  A    between atoms: C_5  and  C_6 
REMARK    2  A    between atoms: C_6  and  N_7 
REMARK       I    between atoms: N_7  and  C_8 
REMARK       I    between atoms: C_8  and  N_9 
REMARK    3  A    between atoms: N_9  and  C_10 
REMARK    4  A    between atoms: C_11  and  C_12 
ROOT
HETATM    1  N   UNL     1      43.560 -16.928   1.668  1.00  0.00    -0.339 N 
HETATM    2  C   UNL     1      42.752 -15.841   1.484  1.00  0.00     0.321 C 
HETATM    3  N   UNL     1      41.977 -15.879   0.360  1.00  0.00    -0.305 N 
HETATM    4  O   UNL     1      42.801 -14.932   2.303  1.00  0.00    -0.247 OA
HETATM    5  H   UNL     1      44.066 -16.860   2.543  1.00  0.00     0.164 HD
HETATM    6  H   UNL     1      42.365 -16.411  -0.399  1.00  0.00     0.171 HD
ENDROOT
BRANCH   1   7
HETATM    7  C   UNL     1      43.313 -18.270   1.181  1.00  0.00     0.162 C 
BRANCH   7   8
HETATM    8  C   UNL     1      43.734 -19.317   2.176  1.00  0.00    -0.040 A 
HETATM    9  C   UNL     1      43.885 -20.653   1.783  1.00  0.00     0.009 A 
HETATM   10  C   UNL     1      44.329 -21.616   2.693  1.00  0.00     0.007 A 
HETATM   11  C   UNL     1      44.635 -21.261   4.010  1.00  0.00    -0.062 A 
HETATM   12  C   UNL     1      45.119 -22.284   4.995  1.00  0.00     0.048 C 
HETATM   13  C   UNL     1      44.482 -19.928   4.408  1.00  0.00     0.007 A 
HETATM   14  C   UNL     1      44.040 -18.964   3.498  1.00  0.00     0.009 A 
ENDBRANCH   7   8
ENDBRANCH   1   7
BRANCH   3  15
HETATM   15  C   UNL     1      40.953 -15.001   0.029  1.00  0.00     0.095 A 
HETATM   16  C   UNL     1      40.861 -14.288  -1.158  1.00  0.00     0.112 A 
HETATM   17  O   UNL     1      39.716 -13.547  -1.136  1.00  0.00    -0.215 OA
HETATM   18  N   UNL     1      39.030 -13.766   0.031  1.00  0.00    -0.131 NA
HETATM   19  C   UNL     1      39.758 -14.645   0.730  1.00  0.00     0.087 A 
HETATM   20  C   UNL     1      39.215 -15.121   2.024  1.00  0.00     0.075 C 
BRANCH  16  21
HETATM   21  C   UNL     1      41.776 -14.206  -2.377  1.00  0.00     0.048 A 
HETATM   22  C   UNL     1      41.503 -13.226  -3.496  1.00  0.00     0.012 A 
HETATM   23  C   UNL     1      42.683 -13.017  -2.605  1.00  0.00     0.012 A 
ENDBRANCH  16  21
ENDBRANCH   3  15
TORSDOF 4
ENDMDL
MODEL 7
REMARK VINA RESULT:      -6.9      2.668      4.078
REMARK  4 active torsions:
REMARK  status: ('A' for Active; 'I' for Inactive)
REMARK    1  A    between atoms: C_5  and  C_6 
REMARK    2  A    between atoms: C_6  and  N_7 
REMARK       I    between atoms: N_7  and  C_8 
REMARK       I    between atoms: C_8  and  N_9 
REMARK    3  A    between atoms: N_9  and  C_10 
REMARK    4  A    between atoms: C_11  and  C_12 
ROOT
HETATM    1  N   UNL     1      43.462 -15.604   3.191  1.00  0.00    -0.339 N 
HETATM    2  C   UNL     1      42.690 -14.492   3.006  1.00  0.00     0.321 C 
HETATM    3  N   UNL     1      41.376 -14.634   3.351  1.00  0.00    -0.305 N 
HETATM    4  O   UNL     1      43.214 -13.490   2.534  1.00  0.00    -0.247 OA
HETATM    5  H   UNL     1      44.432 -15.415   2.966  1.00  0.00     0.164 HD
HETATM    6  H   UNL     1      41.020 -15.570   3.270  1.00  0.00     0.171 HD
ENDROOT
BRANCH   1   7
HETATM    7  C   UNL     1      43.230 -16.654   4.162  1.00  0.00     0.162 C 
BRANCH   7   8
HETATM    8  C   UNL     1      43.490 -18.020   3.588  1.00  0.00    -0.040 A 
HETATM    9  C   UNL     1      43.061 -18.342   2.294  1.00  0.00     0.009 A 
HETATM   10  C   UNL     1      43.349 -19.593   1.740  1.00  0.00     0.007 A 
HETATM   11  C   UNL     1      44.076 -20.541   2.466  1.00  0.00    -0.062 A 
HETATM   12  C   UNL     1      44.399 -21.883   1.880  1.00  0.00     0.048 C 
HETATM   13  C   UNL     1      44.504 -20.224   3.761  1.00  0.00     0.007 A 
HETATM   14  C   UNL     1      44.217 -18.974   4.315  1.00  0.00     0.009 A 
ENDBRANCH   7   8
ENDBRANCH   1   7
BRANCH   3  15
HETATM   15  C   UNL     1      40.425 -13.624   3.429  1.00  0.00     0.095 A 
HETATM   16  C   UNL     1      39.282 -13.538   2.645  1.00  0.00     0.112 A 
HETATM   17  O   UNL     1      38.581 -12.429   3.016  1.00  0.00    -0.215 OA
HETATM   18  N   UNL     1      39.220 -11.783   4.043  1.00  0.00    -0.131 NA
HETATM   19  C   UNL     1      40.319 -12.499   4.305  1.00  0.00     0.087 A 
HETATM   20  C   UNL     1      41.177 -12.066   5.433  1.00  0.00     0.075 C 
BRANCH  16  21
HETATM   21  C   UNL     1      38.744 -14.417   1.519  1.00  0.00     0.048 A 
HETATM   22  C   UNL     1      37.549 -13.990   0.698  1.00  0.00     0.012 A 
HETATM   23  C   UNL     1      38.903 -14.025   0.067  1.00  0.00     0.012 A 
ENDBRANCH  16  21
ENDBRANCH   3  15
TORSDOF 4
ENDMDL
MODEL 8
REMARK VINA RESULT:      -6.9      2.230      3.825
REMARK  4 active torsions:
REMARK  status: ('A' for Active; 'I' for Inactive)
REMARK    1  A    between atoms: C_5  and  C_6 
REMARK    2  A    between atoms: C_6  and  N_7 
REMARK       I    between atoms: N_7  and  C_8 
REMARK       I    between atoms: C_8  and  N_9 
REMARK    3  A    between atoms: N_9  and  C_10 
REMARK    4  A    between atoms: C_11  and  C_12 
ROOT
HETATM    1  N   UNL     1      43.623 -17.004   1.689  1.00  0.00    -0.339 N 
HETATM    2  C   UNL     1      43.100 -16.071   2.540  1.00  0.00     0.321 C 
HETATM    3  N   UNL     1      41.754 -16.168   2.750  1.00  0.00    -0.305 N 
HETATM    4  O   UNL     1      43.852 -15.229   3.015  1.00  0.00    -0.247 OA
HETATM    5  H   UNL     1      44.629 -16.909   1.619  1.00  0.00     0.164 HD
HETATM    6  H   UNL     1      41.238 -16.565   1.985  1.00  0.00     0.171 HD
ENDROOT
BRANCH   1   7
HETATM    7  C   UNL     1      43.093 -18.330   1.445  1.00  0.00     0.162 C 
BRANCH   7   8
HETATM    8  C   UNL     1      43.687 -19.354   2.373  1.00  0.00    -0.040 A 
HETATM    9  C   UNL     1      44.006 -19.017   3.695  1.00  0.00     0.009 A 
HETATM   10  C   UNL     1      44.508 -19.982   4.574  1.00  0.00     0.007 A 
HETATM   11  C   UNL     1      44.693 -21.301   4.150  1.00  0.00    -0.062 A 
HETATM   12  C   UNL     1      45.223 -22.347   5.085  1.00  0.00     0.048 C 
HETATM   13  C   UNL     1      44.379 -21.641   2.829  1.00  0.00     0.007 A 
HETATM   14  C   UNL     1      43.877 -20.678   1.950  1.00  0.00     0.009 A 
ENDBRANCH   7   8
ENDBRANCH   1   7
BRANCH   3  15
HETATM   15  C   UNL     1      41.009 -15.468   3.691  1.00  0.00     0.095 A 
HETATM   16  C   UNL     1      40.077 -14.481   3.401  1.00  0.00     0.112 A 
HETATM   17  O   UNL     1      39.534 -14.036   4.571  1.00  0.00    -0.215 OA
HETATM   18  N   UNL     1      40.069 -14.718   5.634  1.00  0.00    -0.131 NA
HETATM   19  C   UNL     1      40.945 -15.587   5.115  1.00  0.00     0.087 A 
HETATM   20  C   UNL     1      41.632 -16.516   6.042  1.00  0.00     0.075 C 
BRANCH  16  21
HETATM   21  C   UNL     1      39.615 -13.864   2.084  1.00  0.00     0.048 A 
HETATM   22  C   UNL     1      39.765 -14.608   0.777  1.00  0.00     0.012 A 
HETATM   23  C   UNL     1      38.403 -14.389   1.348  1.00  0.00     0.012 A 
ENDBRANCH  16  21
ENDBRANCH   3  15
TORSDOF 4
ENDMDL
MODEL 9
REMARK VINA RESULT:      -6.8      2.481      4.379
REMARK  4 active torsions:
REMARK  status: ('A' for Active; 'I' for Inactive)
REMARK    1  A    between atoms: C_5  and  C_6 
REMARK    2  A    between atoms: C_6  and  N_7 
REMARK       I    between atoms: N_7  and  C_8 
REMARK       I    between atoms: C_8  and  N_9 
REMARK    3  A    between atoms: N_9  and  C_10 
REMARK    4  A    between atoms: C_11  and  C_12 
ROOT
HETATM    1  N   UNL     1      41.809 -15.434   1.868  1.00  0.00    -0.339 N 
HETATM    2  C   UNL     1      42.101 -14.374   2.679  1.00  0.00     0.321 C 
HETATM    3  N   UNL     1      41.334 -14.276   3.804  1.00  0.00    -0.305 N 
HETATM    4  O   UNL     1      42.986 -13.600   2.331  1.00  0.00    -0.247 OA
HETATM    5  H   UNL     1      42.447 -15.479   1.082  1.00  0.00     0.164 HD
HETATM    6  H   UNL     1      40.411 -14.664   3.718  1.00  0.00     0.171 HD
ENDROOT
BRANCH   1   7
HETATM    7  C   UNL     1      41.231 -16.696   2.286  1.00  0.00     0.162 C 
BRANCH   7   8
HETATM    8  C   UNL     1      42.274 -17.652   2.796  1.00  0.00    -0.040 A 
HETATM    9  C   UNL     1      42.554 -17.736   4.166  1.00  0.00     0.009 A 
HETATM   10  C   UNL     1      43.484 -18.662   4.647  1.00  0.00     0.007 A 
HETATM   11  C   UNL     1      44.146 -19.525   3.768  1.00  0.00    -0.062 A 
HETATM   12  C   UNL     1      45.140 -20.529   4.272  1.00  0.00     0.048 C 
HETATM   13  C   UNL     1      43.871 -19.442   2.398  1.00  0.00     0.007 A 
HETATM   14  C   UNL     1      42.941 -18.517   1.917  1.00  0.00     0.009 A 
ENDBRANCH   7   8
ENDBRANCH   1   7
BRANCH   3  15
HETATM   15  C   UNL     1      41.534 -13.408   4.871  1.00  0.00     0.095 A 
HETATM   16  C   UNL     1      42.620 -13.436   5.734  1.00  0.00     0.112 A 
HETATM   17  O   UNL     1      42.485 -12.426   6.641  1.00  0.00    -0.215 OA
HETATM   18  N   UNL     1      41.342 -11.712   6.390  1.00  0.00    -0.131 NA
HETATM   19  C   UNL     1      40.772 -12.285   5.323  1.00  0.00     0.087 A 
HETATM   20  C   UNL     1      39.538 -11.669   4.781  1.00  0.00     0.075 C 
BRANCH  16  21
HETATM   21  C   UNL     1      43.835 -14.356   5.821  1.00  0.00     0.048 A 
HETATM   22  C   UNL     1      44.806 -14.263   6.976  1.00  0.00     0.012 A 
HETATM   23  C   UNL     1      43.919 -15.458   6.853  1.00  0.00     0.012 A 
ENDBRANCH  16  21
ENDBRANCH   3  15
TORSDOF 4
ENDMDL
MODEL 10
REMARK VINA RESULT:      -6.7      3.151      4.309
REMARK  4 active torsions:
REMARK  status: ('A' for Active; 'I' for Inactive)
REMARK    1  A    between atoms: C_5  and  C_6 
REMARK    2  A    between atoms: C_6  and  N_7 
REMARK       I    between atoms: N_7  and  C_8 
REMARK       I    between atoms: C_8  and  N_9 
REMARK    3  A    between atoms: N_9  and  C_10 
REMARK    4  A    between atoms: C_11  and  C_12 
ROOT
HETATM    1  N   UNL     1      42.953 -15.196   2.910  1.00  0.00    -0.339 N 
HETATM    2  C   UNL     1      42.320 -14.382   2.012  1.00  0.00     0.321 C 
HETATM    3  N   UNL     1      41.249 -14.942   1.377  1.00  0.00    -0.305 N 
HETATM    4  O   UNL     1      42.766 -13.255   1.832  1.00  0.00    -0.247 OA
HETATM    5  H   UNL     1      43.702 -14.704   3.382  1.00  0.00     0.164 HD
HETATM    6  H   UNL     1      41.296 -15.941   1.276  1.00  0.00     0.171 HD
ENDROOT
BRANCH   1   7
HETATM    7  C   UNL     1      42.349 -16.288   3.647  1.00  0.00     0.162 C 
BRANCH   7   8
HETATM    8  C   UNL     1      42.950 -17.617   3.279  1.00  0.00    -0.040 A 
HETATM    9  C   UNL     1      43.733 -18.324   4.200  1.00  0.00     0.009 A 
HETATM   10  C   UNL     1      44.247 -19.584   3.877  1.00  0.00     0.007 A 
HETATM   11  C   UNL     1      43.982 -20.161   2.632  1.00  0.00    -0.062 A 
HETATM   12  C   UNL     1      44.521 -21.515   2.277  1.00  0.00     0.048 C 
HETATM   13  C   UNL     1      43.203 -19.456   1.708  1.00  0.00     0.007 A 
HETATM   14  C   UNL     1      42.688 -18.198   2.030  1.00  0.00     0.009 A 
ENDBRANCH   7   8
ENDBRANCH   1   7
BRANCH   3  15
HETATM   15  C   UNL     1      40.335 -14.288   0.560  1.00  0.00     0.095 A 
HETATM   16  C   UNL     1      40.203 -14.480  -0.809  1.00  0.00     0.112 A 
HETATM   17  O   UNL     1      39.194 -13.685  -1.266  1.00  0.00    -0.215 OA
HETATM   18  N   UNL     1      38.636 -12.980  -0.231  1.00  0.00    -0.131 NA
HETATM   19  C   UNL     1      39.306 -13.345   0.870  1.00  0.00     0.087 A 
HETATM   20  C   UNL     1      38.865 -12.783   2.168  1.00  0.00     0.075 C 
BRANCH  16  21
HETATM   21  C   UNL     1      40.959 -15.364  -1.796  1.00  0.00     0.048 A 
HETATM   22  C   UNL     1      40.334 -15.786  -3.107  1.00  0.00     0.012 A 
HETATM   23  C   UNL     1      41.474 -14.820  -3.110  1.00  0.00     0.012 A 
ENDBRANCH  16  21
ENDBRANCH   3  15
TORSDOF 4
ENDMDL
