MODEL 1
REMARK VINA RESULT:      -8.2      0.000      0.000
REMARK  5 active torsions:
REMARK  status: ('A' for Active; 'I' for Inactive)
REMARK    1  A    between atoms: C_6  and  N_7 
REMARK       I    between atoms: N_7  and  C_8 
REMARK       I    between atoms: C_8  and  N_9 
REMARK    2  A    between atoms: N_9  and  N_10 
REMARK       I    between atoms: N_10  and  C_11 
REMARK    3  A    between atoms: C_11  and  C_12 
REMARK    4  A    between atoms: C_12  and  N_13 
REMARK       I    between atoms: N_13  and  C_14 
REMARK       I    between atoms: C_14  and  N_15 
REMARK    5  A    between atoms: N_15  and  C_16 
ROOT
HETATM    1  N   UNL     1      40.468 -13.150   0.976  1.00  0.00    -0.265 N 
HETATM    2  C   UNL     1      39.813 -14.007   0.105  1.00  0.00     0.253 C 
HETATM    3  O   UNL     1      38.606 -14.241   0.190  1.00  0.00    -0.270 OA
HETATM    4  H   UNL     1      41.462 -13.352   1.138  1.00  0.00     0.190 HD
ENDROOT
BRANCH   2   5
HETATM    5  C   UNL     1      40.705 -14.821  -0.844  1.00  0.00     0.228 C 
BRANCH   5   6
HETATM    6  N   UNL     1      41.962 -15.375  -0.355  1.00  0.00    -0.334 N 
HETATM    7  C   UNL     1      41.972 -16.280   0.679  1.00  0.00     0.321 C 
HETATM    8  N   UNL     1      43.121 -17.033   0.704  1.00  0.00    -0.309 N 
HETATM    9  O   UNL     1      41.037 -16.341   1.468  1.00  0.00    -0.247 OA
HETATM   10  H   UNL     1      43.667 -17.045  -0.145  1.00  0.00     0.170 HD
HETATM   11  H   UNL     1      42.696 -15.455  -1.042  1.00  0.00     0.164 HD
BRANCH   8  12
HETATM   12  C   UNL     1      43.486 -17.976   1.689  1.00  0.00     0.038 A 
HETATM   13  C   UNL     1      43.569 -19.350   1.451  1.00  0.00     0.055 A 
HETATM   14  C   UNL     1      43.925 -20.232   2.480  1.00  0.00     0.058 A 
HETATM   15 CL   UNL     1      43.984 -21.919   2.109  1.00  0.00    -0.082 Cl
HETATM   16  C   UNL     1      44.206 -19.741   3.758  1.00  0.00     0.055 A 
HETATM   17 CL   UNL     1      44.659 -20.764   5.072  1.00  0.00    -0.083 Cl
HETATM   18  C   UNL     1      44.119 -18.369   4.003  1.00  0.00     0.028 A 
HETATM   19  C   UNL     1      43.751 -17.493   2.977  1.00  0.00     0.031 A 
ENDBRANCH   8  12
ENDBRANCH   5   6
ENDBRANCH   2   5
BRANCH   1  20
HETATM   20  N   UNL     1      39.752 -12.786   2.136  1.00  0.00    -0.249 N 
HETATM   21  C   UNL     1      40.091 -13.211   3.402  1.00  0.00     0.339 C 
HETATM   22  N   UNL     1      41.072 -14.170   3.419  1.00  0.00    -0.308 N 
HETATM   23  O   UNL     1      39.516 -12.727   4.372  1.00  0.00    -0.245 OA
HETATM   24  H   UNL     1      41.490 -14.326   2.513  1.00  0.00     0.170 HD
HETATM   25  H   UNL     1      39.196 -11.934   2.094  1.00  0.00     0.192 HD
BRANCH  22  26
HETATM   26  C   UNL     1      41.618 -14.830   4.535  1.00  0.00     0.038 A 
HETATM   27  C   UNL     1      42.826 -14.465   5.138  1.00  0.00     0.053 A 
HETATM   28  C   UNL     1      43.298 -15.175   6.244  1.00  0.00     0.036 A 
HETATM   29  C   UNL     1      42.580 -16.251   6.759  1.00  0.00     0.024 A 
HETATM   30 CL   UNL     1      44.784 -14.717   6.985  1.00  0.00    -0.084 Cl
HETATM   31  C   UNL     1      41.374 -16.618   6.167  1.00  0.00     0.004 A 
HETATM   32  C   UNL     1      40.895 -15.907   5.064  1.00  0.00     0.029 A 
ENDBRANCH  22  26
ENDBRANCH   1  20
TORSDOF 5
ENDMDL
MODEL 2
REMARK VINA RESULT:      -8.0      5.738      9.755
REMARK  5 active torsions:
REMARK  status: ('A' for Active; 'I' for Inactive)
REMARK    1  A    between atoms: C_6  and  N_7 
REMARK       I    between atoms: N_7  and  C_8 
REMARK       I    between atoms: C_8  and  N_9 
REMARK    2  A    between atoms: N_9  and  N_10 
REMARK       I    between atoms: N_10  and  C_11 
REMARK    3  A    between atoms: C_11  and  C_12 
REMARK    4  A    between atoms: C_12  and  N_13 
REMARK       I    between atoms: N_13  and  C_14 
REMARK       I    between atoms: C_14  and  N_15 
REMARK    5  A    between atoms: N_15  and  C_16 
ROOT
HETATM    1  N   UNL     1      42.992 -13.933   6.381  1.00  0.00    -0.265 N 
HETATM    2  C   UNL     1      43.999 -14.372   7.225  1.00  0.00     0.253 C 
HETATM    3  O   UNL     1      44.082 -15.542   7.605  1.00  0.00    -0.270 OA
HETATM    4  H   UNL     1      42.725 -12.946   6.480  1.00  0.00     0.190 HD
ENDROOT
BRANCH   2   5
HETATM    5  C   UNL     1      44.891 -13.284   7.841  1.00  0.00     0.228 C 
BRANCH   5   6
HETATM    6  N   UNL     1      44.748 -12.946   9.253  1.00  0.00    -0.334 N 
HETATM    7  C   UNL     1      43.943 -11.903   9.644  1.00  0.00     0.321 C 
HETATM    8  N   UNL     1      43.553 -12.008  10.957  1.00  0.00    -0.309 N 
HETATM    9  O   UNL     1      43.660 -11.002   8.863  1.00  0.00    -0.247 OA
HETATM   10  H   UNL     1      43.651 -12.918  11.381  1.00  0.00     0.170 HD
HETATM   11  H   UNL     1      44.843 -13.718   9.894  1.00  0.00     0.164 HD
BRANCH   8  12
HETATM   12  C   UNL     1      42.810 -11.058  11.690  1.00  0.00     0.038 A 
HETATM   13  C   UNL     1      41.428 -10.892  11.564  1.00  0.00     0.055 A 
HETATM   14  C   UNL     1      40.755  -9.919  12.315  1.00  0.00     0.058 A 
HETATM   15 CL   UNL     1      39.050  -9.763  12.085  1.00  0.00    -0.082 Cl
HETATM   16  C   UNL     1      41.464  -9.107  13.206  1.00  0.00     0.055 A 
HETATM   17 CL   UNL     1      40.703  -7.894  14.169  1.00  0.00    -0.083 Cl
HETATM   18  C   UNL     1      42.846  -9.265  13.331  1.00  0.00     0.028 A 
HETATM   19  C   UNL     1      43.516 -10.228  12.570  1.00  0.00     0.031 A 
ENDBRANCH   8  12
ENDBRANCH   5   6
ENDBRANCH   2   5
BRANCH   1  20
HETATM   20  N   UNL     1      41.904 -14.816   6.209  1.00  0.00    -0.249 N 
HETATM   21  C   UNL     1      41.933 -15.898   5.357  1.00  0.00     0.339 C 
HETATM   22  N   UNL     1      43.040 -15.936   4.548  1.00  0.00    -0.308 N 
HETATM   23  O   UNL     1      41.010 -16.705   5.380  1.00  0.00    -0.245 OA
HETATM   24  H   UNL     1      43.731 -15.239   4.789  1.00  0.00     0.170 HD
HETATM   25  H   UNL     1      41.224 -14.870   6.964  1.00  0.00     0.192 HD
BRANCH  22  26
HETATM   26  C   UNL     1      43.354 -16.880   3.553  1.00  0.00     0.038 A 
HETATM   27  C   UNL     1      43.695 -18.208   3.826  1.00  0.00     0.053 A 
HETATM   28  C   UNL     1      43.994 -19.083   2.779  1.00  0.00     0.036 A 
HETATM   29  C   UNL     1      43.959 -18.648   1.456  1.00  0.00     0.024 A 
HETATM   30 CL   UNL     1      44.408 -20.719   3.121  1.00  0.00    -0.084 Cl
HETATM   31  C   UNL     1      43.617 -17.327   1.176  1.00  0.00     0.004 A 
HETATM   32  C   UNL     1      43.311 -16.450   2.221  1.00  0.00     0.029 A 
ENDBRANCH  22  26
ENDBRANCH   1  20
TORSDOF 5
ENDMDL
MODEL 3
REMARK VINA RESULT:      -8.0      3.951      6.565
REMARK  5 active torsions:
REMARK  status: ('A' for Active; 'I' for Inactive)
REMARK    1  A    between atoms: C_6  and  N_7 
REMARK       I    between atoms: N_7  and  C_8 
REMARK       I    between atoms: C_8  and  N_9 
REMARK    2  A    between atoms: N_9  and  N_10 
REMARK       I    between atoms: N_10  and  C_11 
REMARK    3  A    between atoms: C_11  and  C_12 
REMARK    4  A    between atoms: C_12  and  N_13 
REMARK       I    between atoms: N_13  and  C_14 
REMARK       I    between atoms: C_14  and  N_15 
REMARK    5  A    between atoms: N_15  and  C_16 
ROOT
HETATM    1  N   UNL     1      40.769 -15.683  -0.029  1.00  0.00    -0.265 N 
HETATM    2  C   UNL     1      41.223 -14.506   0.544  1.00  0.00     0.253 C 
HETATM    3  O   UNL     1      41.688 -13.579  -0.123  1.00  0.00    -0.270 OA
HETATM    4  H   UNL     1      40.837 -16.522   0.560  1.00  0.00     0.190 HD
ENDROOT
BRANCH   2   5
HETATM    5  C   UNL     1      41.319 -14.491   2.077  1.00  0.00     0.228 C 
BRANCH   5   6
HETATM    6  N   UNL     1      42.440 -15.150   2.737  1.00  0.00    -0.334 N 
HETATM    7  C   UNL     1      42.430 -16.509   2.944  1.00  0.00     0.321 C 
HETATM    8  N   UNL     1      43.692 -17.019   3.130  1.00  0.00    -0.309 N 
HETATM    9  O   UNL     1      41.375 -17.132   2.968  1.00  0.00    -0.247 OA
HETATM   10  H   UNL     1      44.459 -16.436   2.829  1.00  0.00     0.170 HD
HETATM   11  H   UNL     1      43.339 -14.713   2.603  1.00  0.00     0.164 HD
BRANCH   8  12
HETATM   12  C   UNL     1      44.018 -18.351   3.461  1.00  0.00     0.038 A 
HETATM   13  C   UNL     1      44.061 -19.392   2.529  1.00  0.00     0.055 A 
HETATM   14  C   UNL     1      44.380 -20.696   2.931  1.00  0.00     0.058 A 
HETATM   15 CL   UNL     1      44.391 -21.930   1.721  1.00  0.00    -0.082 Cl
HETATM   16  C   UNL     1      44.666 -20.966   4.272  1.00  0.00     0.055 A 
HETATM   17 CL   UNL     1      45.075 -22.544   4.839  1.00  0.00    -0.083 Cl
HETATM   18  C   UNL     1      44.618 -19.931   5.208  1.00  0.00     0.028 A 
HETATM   19  C   UNL     1      44.287 -18.633   4.807  1.00  0.00     0.031 A 
ENDBRANCH   8  12
ENDBRANCH   5   6
ENDBRANCH   2   5
BRANCH   1  20
HETATM   20  N   UNL     1      41.130 -15.889  -1.379  1.00  0.00    -0.249 N 
HETATM   21  C   UNL     1      40.422 -15.369  -2.440  1.00  0.00     0.339 C 
HETATM   22  N   UNL     1      39.231 -14.791  -2.081  1.00  0.00    -0.308 N 
HETATM   23  O   UNL     1      40.885 -15.460  -3.573  1.00  0.00    -0.245 OA
HETATM   24  H   UNL     1      39.111 -14.718  -1.081  1.00  0.00     0.170 HD
HETATM   25  H   UNL     1      42.101 -16.123  -1.572  1.00  0.00     0.192 HD
BRANCH  22  26
HETATM   26  C   UNL     1      38.265 -14.204  -2.920  1.00  0.00     0.038 A 
HETATM   27  C   UNL     1      38.166 -12.827  -3.141  1.00  0.00     0.053 A 
HETATM   28  C   UNL     1      37.177 -12.325  -3.990  1.00  0.00     0.036 A 
HETATM   29  C   UNL     1      36.279 -13.181  -4.623  1.00  0.00     0.024 A 
HETATM   30 CL   UNL     1      37.063 -10.628  -4.262  1.00  0.00    -0.084 Cl
HETATM   31  C   UNL     1      36.374 -14.554  -4.411  1.00  0.00     0.004 A 
HETATM   32  C   UNL     1      37.366 -15.062  -3.566  1.00  0.00     0.029 A 
ENDBRANCH  22  26
ENDBRANCH   1  20
TORSDOF 5
ENDMDL
MODEL 4
REMARK VINA RESULT:      -8.0      5.251      6.285
REMARK  5 active torsions:
REMARK  status: ('A' for Active; 'I' for Inactive)
REMARK    1  A    between atoms: C_6  and  N_7 
REMARK       I    between atoms: N_7  and  C_8 
REMARK       I    between atoms: C_8  and  N_9 
REMARK    2  A    between atoms: N_9  and  N_10 
REMARK       I    between atoms: N_10  and  C_11 
REMARK    3  A    between atoms: C_11  and  C_12 
REMARK    4  A    between atoms: C_12  and  N_13 
REMARK       I    between atoms: N_13  and  C_14 
REMARK       I    between atoms: C_14  and  N_15 
REMARK    5  A    between atoms: N_15  and  C_16 
ROOT
HETATM    1  N   UNL     1      39.429 -12.467   8.125  1.00  0.00    -0.265 N 
HETATM    2  C   UNL     1      39.444 -12.214   6.763  1.00  0.00     0.253 C 
HETATM    3  O   UNL     1      39.164 -11.110   6.291  1.00  0.00    -0.270 OA
HETATM    4  H   UNL     1      39.221 -13.435   8.398  1.00  0.00     0.190 HD
ENDROOT
BRANCH   2   5
HETATM    5  C   UNL     1      39.619 -13.436   5.848  1.00  0.00     0.228 C 
BRANCH   5   6
HETATM    6  N   UNL     1      40.960 -13.889   5.499  1.00  0.00    -0.334 N 
HETATM    7  C   UNL     1      41.269 -15.229   5.506  1.00  0.00     0.321 C 
HETATM    8  N   UNL     1      42.368 -15.515   4.733  1.00  0.00    -0.309 N 
HETATM    9  O   UNL     1      40.608 -16.022   6.167  1.00  0.00    -0.247 OA
HETATM   10  H   UNL     1      42.637 -14.813   4.060  1.00  0.00     0.170 HD
HETATM   11  H   UNL     1      41.457 -13.307   4.843  1.00  0.00     0.164 HD
BRANCH   8  12
HETATM   12  C   UNL     1      43.000 -16.771   4.606  1.00  0.00     0.038 A 
HETATM   13  C   UNL     1      42.808 -17.627   3.519  1.00  0.00     0.055 A 
HETATM   14  C   UNL     1      43.459 -18.867   3.463  1.00  0.00     0.058 A 
HETATM   15 CL   UNL     1      43.151 -19.877   2.095  1.00  0.00    -0.082 Cl
HETATM   16  C   UNL     1      44.314 -19.256   4.499  1.00  0.00     0.055 A 
HETATM   17 CL   UNL     1      45.156 -20.763   4.496  1.00  0.00    -0.083 Cl
HETATM   18  C   UNL     1      44.505 -18.406   5.590  1.00  0.00     0.028 A 
HETATM   19  C   UNL     1      43.844 -17.175   5.648  1.00  0.00     0.031 A 
ENDBRANCH   8  12
ENDBRANCH   5   6
ENDBRANCH   2   5
BRANCH   1  20
HETATM   20  N   UNL     1      38.801 -11.488   8.926  1.00  0.00    -0.249 N 
HETATM   21  C   UNL     1      39.448 -10.794   9.924  1.00  0.00     0.339 C 
HETATM   22  N   UNL     1      40.707 -11.267  10.200  1.00  0.00    -0.308 N 
HETATM   23  O   UNL     1      38.880  -9.853  10.468  1.00  0.00    -0.245 OA
HETATM   24  H   UNL     1      41.019 -11.968   9.543  1.00  0.00     0.170 HD
HETATM   25  H   UNL     1      37.970 -11.038   8.547  1.00  0.00     0.192 HD
BRANCH  22  26
HETATM   26  C   UNL     1      41.610 -10.807  11.175  1.00  0.00     0.038 A 
HETATM   27  C   UNL     1      41.288 -10.678  12.530  1.00  0.00     0.053 A 
HETATM   28  C   UNL     1      42.245 -10.212  13.435  1.00  0.00     0.036 A 
HETATM   29  C   UNL     1      43.525  -9.870  13.005  1.00  0.00     0.024 A 
HETATM   30 CL   UNL     1      41.844 -10.061  15.103  1.00  0.00    -0.084 Cl
HETATM   31  C   UNL     1      43.854  -9.999  11.658  1.00  0.00     0.004 A 
HETATM   32  C   UNL     1      42.901 -10.470  10.750  1.00  0.00     0.029 A 
ENDBRANCH  22  26
ENDBRANCH   1  20
TORSDOF 5
ENDMDL
MODEL 5
REMARK VINA RESULT:      -8.0      3.852      5.087
REMARK  5 active torsions:
REMARK  status: ('A' for Active; 'I' for Inactive)
REMARK    1  A    between atoms: C_6  and  N_7 
REMARK       I    between atoms: N_7  and  C_8 
REMARK       I    between atoms: C_8  and  N_9 
REMARK    2  A    between atoms: N_9  and  N_10 
REMARK       I    between atoms: N_10  and  C_11 
REMARK    3  A    between atoms: C_11  and  C_12 
REMARK    4  A    between atoms: C_12  and  N_13 
REMARK       I    between atoms: N_13  and  C_14 
REMARK       I    between atoms: C_14  and  N_15 
REMARK    5  A    between atoms: N_15  and  C_16 
ROOT
HETATM    1  N   UNL     1      41.155 -12.373   5.708  1.00  0.00    -0.265 N 
HETATM    2  C   UNL     1      40.027 -13.159   5.885  1.00  0.00     0.253 C 
HETATM    3  O   UNL     1      38.938 -12.689   6.220  1.00  0.00    -0.270 OA
HETATM    4  H   UNL     1      42.054 -12.836   5.884  1.00  0.00     0.190 HD
ENDROOT
BRANCH   2   5
HETATM    5  C   UNL     1      40.249 -14.679   5.853  1.00  0.00     0.228 C 
BRANCH   5   6
HETATM    6  N   UNL     1      41.532 -15.212   5.411  1.00  0.00    -0.334 N 
HETATM    7  C   UNL     1      41.644 -16.522   5.009  1.00  0.00     0.321 C 
HETATM    8  N   UNL     1      42.742 -16.731   4.210  1.00  0.00    -0.309 N 
HETATM    9  O   UNL     1      40.832 -17.362   5.376  1.00  0.00    -0.247 OA
HETATM   10  H   UNL     1      43.156 -15.910   3.795  1.00  0.00     0.170 HD
HETATM   11  H   UNL     1      42.153 -14.545   4.979  1.00  0.00     0.164 HD
BRANCH   8  12
HETATM   12  C   UNL     1      43.195 -17.972   3.715  1.00  0.00     0.038 A 
HETATM   13  C   UNL     1      43.888 -18.908   4.487  1.00  0.00     0.055 A 
HETATM   14  C   UNL     1      44.321 -20.117   3.925  1.00  0.00     0.058 A 
HETATM   15 CL   UNL     1      45.190 -21.211   4.942  1.00  0.00    -0.082 Cl
HETATM   16  C   UNL     1      44.055 -20.400   2.582  1.00  0.00     0.055 A 
HETATM   17 CL   UNL     1      44.548 -21.870   1.824  1.00  0.00    -0.083 Cl
HETATM   18  C   UNL     1      43.368 -19.466   1.804  1.00  0.00     0.028 A 
HETATM   19  C   UNL     1      42.949 -18.255   2.365  1.00  0.00     0.031 A 
ENDBRANCH   8  12
ENDBRANCH   5   6
ENDBRANCH   2   5
BRANCH   1  20
HETATM   20  N   UNL     1      41.070 -11.055   6.207  1.00  0.00    -0.249 N 
HETATM   21  C   UNL     1      41.860 -10.580   7.231  1.00  0.00     0.339 C 
HETATM   22  N   UNL     1      42.604 -11.551   7.852  1.00  0.00    -0.308 N 
HETATM   23  O   UNL     1      41.837  -9.384   7.502  1.00  0.00    -0.245 OA
HETATM   24  H   UNL     1      42.561 -12.444   7.382  1.00  0.00     0.170 HD
HETATM   25  H   UNL     1      40.679 -10.346   5.591  1.00  0.00     0.192 HD
BRANCH  22  26
HETATM   26  C   UNL     1      43.479 -11.406   8.944  1.00  0.00     0.038 A 
HETATM   27  C   UNL     1      43.122 -10.785  10.145  1.00  0.00     0.053 A 
HETATM   28  C   UNL     1      44.052 -10.682  11.182  1.00  0.00     0.036 A 
HETATM   29  C   UNL     1      45.341 -11.190  11.037  1.00  0.00     0.024 A 
HETATM   30 CL   UNL     1      43.604  -9.921  12.662  1.00  0.00    -0.084 Cl
HETATM   31  C   UNL     1      45.702 -11.813   9.845  1.00  0.00     0.004 A 
HETATM   32  C   UNL     1      44.773 -11.924   8.807  1.00  0.00     0.029 A 
ENDBRANCH  22  26
ENDBRANCH   1  20
TORSDOF 5
ENDMDL
MODEL 6
REMARK VINA RESULT:      -7.9      1.207      1.749
REMARK  5 active torsions:
REMARK  status: ('A' for Active; 'I' for Inactive)
REMARK    1  A    between atoms: C_6  and  N_7 
REMARK       I    between atoms: N_7  and  C_8 
REMARK       I    between atoms: C_8  and  N_9 
REMARK    2  A    between atoms: N_9  and  N_10 
REMARK       I    between atoms: N_10  and  C_11 
REMARK    3  A    between atoms: C_11  and  C_12 
REMARK    4  A    between atoms: C_12  and  N_13 
REMARK       I    between atoms: N_13  and  C_14 
REMARK       I    between atoms: C_14  and  N_15 
REMARK    5  A    between atoms: N_15  and  C_16 
ROOT
HETATM    1  N   UNL     1      41.514 -13.651   0.849  1.00  0.00    -0.265 N 
HETATM    2  C   UNL     1      40.547 -14.387   0.184  1.00  0.00     0.253 C 
HETATM    3  O   UNL     1      39.341 -14.158   0.302  1.00  0.00    -0.270 OA
HETATM    4  H   UNL     1      42.385 -14.151   1.066  1.00  0.00     0.190 HD
ENDROOT
BRANCH   2   5
HETATM    5  C   UNL     1      41.036 -15.647  -0.547  1.00  0.00     0.228 C 
BRANCH   5   6
HETATM    6  N   UNL     1      42.283 -16.282  -0.134  1.00  0.00    -0.334 N 
HETATM    7  C   UNL     1      42.331 -17.056   1.000  1.00  0.00     0.321 C 
HETATM    8  N   UNL     1      43.392 -17.928   0.993  1.00  0.00    -0.309 N 
HETATM    9  O   UNL     1      41.499 -16.918   1.890  1.00  0.00    -0.247 OA
HETATM   10  H   UNL     1      43.824 -18.101   0.097  1.00  0.00     0.170 HD
HETATM   11  H   UNL     1      42.913 -16.525  -0.883  1.00  0.00     0.164 HD
BRANCH   8  12
HETATM   12  C   UNL     1      43.780 -18.787   2.044  1.00  0.00     0.038 A 
HETATM   13  C   UNL     1      44.150 -18.337   3.314  1.00  0.00     0.055 A 
HETATM   14  C   UNL     1      44.537 -19.247   4.308  1.00  0.00     0.058 A 
HETATM   15 CL   UNL     1      45.000 -18.609   5.846  1.00  0.00    -0.082 Cl
HETATM   16  C   UNL     1      44.551 -20.618   4.036  1.00  0.00     0.055 A 
HETATM   17 CL   UNL     1      45.008 -21.797   5.211  1.00  0.00    -0.083 Cl
HETATM   18  C   UNL     1      44.189 -21.072   2.766  1.00  0.00     0.028 A 
HETATM   19  C   UNL     1      43.815 -20.161   1.773  1.00  0.00     0.031 A 
ENDBRANCH   8  12
ENDBRANCH   5   6
ENDBRANCH   2   5
BRANCH   1  20
HETATM   20  N   UNL     1      41.047 -12.818   1.889  1.00  0.00    -0.249 N 
HETATM   21  C   UNL     1      41.444 -12.947   3.201  1.00  0.00     0.339 C 
HETATM   22  N   UNL     1      42.189 -14.073   3.446  1.00  0.00    -0.308 N 
HETATM   23  O   UNL     1      41.116 -12.091   4.016  1.00  0.00    -0.245 OA
HETATM   24  H   UNL     1      42.445 -14.570   2.604  1.00  0.00     0.170 HD
HETATM   25  H   UNL     1      40.688 -11.903   1.628  1.00  0.00     0.192 HD
BRANCH  22  26
HETATM   26  C   UNL     1      42.717 -14.513   4.673  1.00  0.00     0.038 A 
HETATM   27  C   UNL     1      43.749 -13.858   5.353  1.00  0.00     0.053 A 
HETATM   28  C   UNL     1      44.216 -14.362   6.569  1.00  0.00     0.036 A 
HETATM   29  C   UNL     1      43.667 -15.518   7.119  1.00  0.00     0.024 A 
HETATM   30 CL   UNL     1      45.484 -13.547   7.403  1.00  0.00    -0.084 Cl
HETATM   31  C   UNL     1      42.636 -16.173   6.451  1.00  0.00     0.004 A 
HETATM   32  C   UNL     1      42.161 -15.670   5.236  1.00  0.00     0.029 A 
ENDBRANCH  22  26
ENDBRANCH   1  20
TORSDOF 5
ENDMDL
MODEL 7
REMARK VINA RESULT:      -7.8      4.843      5.721
REMARK  5 active torsions:
REMARK  status: ('A' for Active; 'I' for Inactive)
REMARK    1  A    between atoms: C_6  and  N_7 
REMARK       I    between atoms: N_7  and  C_8 
REMARK       I    between atoms: C_8  and  N_9 
REMARK    2  A    between atoms: N_9  and  N_10 
REMARK       I    between atoms: N_10  and  C_11 
REMARK    3  A    between atoms: C_11  and  C_12 
REMARK    4  A    between atoms: C_12  and  N_13 
REMARK       I    between atoms: N_13  and  C_14 
REMARK       I    between atoms: C_14  and  N_15 
REMARK    5  A    between atoms: N_15  and  C_16 
ROOT
HETATM    1  N   UNL     1      41.891 -11.983   6.783  1.00  0.00    -0.265 N 
HETATM    2  C   UNL     1      41.393 -12.493   5.594  1.00  0.00     0.253 C 
HETATM    3  O   UNL     1      40.917 -11.775   4.713  1.00  0.00    -0.270 OA
HETATM    4  H   UNL     1      41.835 -12.608   7.596  1.00  0.00     0.190 HD
ENDROOT
BRANCH   2   5
HETATM    5  C   UNL     1      41.266 -14.022   5.514  1.00  0.00     0.228 C 
BRANCH   5   6
HETATM    6  N   UNL     1      42.441 -14.828   5.203  1.00  0.00    -0.334 N 
HETATM    7  C   UNL     1      42.304 -16.125   4.769  1.00  0.00     0.321 C 
HETATM    8  N   UNL     1      43.415 -16.571   4.095  1.00  0.00    -0.309 N 
HETATM    9  O   UNL     1      41.285 -16.763   5.009  1.00  0.00    -0.247 OA
HETATM   10  H   UNL     1      44.050 -15.861   3.760  1.00  0.00     0.170 HD
HETATM   11  H   UNL     1      43.243 -14.315   4.870  1.00  0.00     0.164 HD
BRANCH   8  12
HETATM   12  C   UNL     1      43.634 -17.878   3.610  1.00  0.00     0.038 A 
HETATM   13  C   UNL     1      44.154 -18.915   4.388  1.00  0.00     0.055 A 
HETATM   14  C   UNL     1      44.358 -20.188   3.836  1.00  0.00     0.058 A 
HETATM   15 CL   UNL     1      45.026 -21.410   4.859  1.00  0.00    -0.082 Cl
HETATM   16  C   UNL     1      44.036 -20.431   2.498  1.00  0.00     0.055 A 
HETATM   17 CL   UNL     1      44.252 -21.972   1.752  1.00  0.00    -0.083 Cl
HETATM   18  C   UNL     1      43.521 -19.396   1.714  1.00  0.00     0.028 A 
HETATM   19  C   UNL     1      43.331 -18.124   2.265  1.00  0.00     0.031 A 
ENDBRANCH   8  12
ENDBRANCH   5   6
ENDBRANCH   2   5
BRANCH   1  20
HETATM   20  N   UNL     1      41.565 -10.637   7.059  1.00  0.00    -0.249 N 
HETATM   21  C   UNL     1      41.481 -10.123   8.334  1.00  0.00     0.339 C 
HETATM   22  N   UNL     1      41.558 -11.075   9.320  1.00  0.00    -0.308 N 
HETATM   23  O   UNL     1      41.347  -8.914   8.487  1.00  0.00    -0.245 OA
HETATM   24  H   UNL     1      41.794 -11.992   8.969  1.00  0.00     0.170 HD
HETATM   25  H   UNL     1      41.731  -9.956   6.322  1.00  0.00     0.192 HD
BRANCH  22  26
HETATM   26  C   UNL     1      41.473 -10.888  10.712  1.00  0.00     0.038 A 
HETATM   27  C   UNL     1      42.482 -10.297  11.478  1.00  0.00     0.053 A 
HETATM   28  C   UNL     1      42.319 -10.149  12.857  1.00  0.00     0.036 A 
HETATM   29  C   UNL     1      41.156 -10.588  13.487  1.00  0.00     0.024 A 
HETATM   30 CL   UNL     1      43.564  -9.415  13.794  1.00  0.00    -0.084 Cl
HETATM   31  C   UNL     1      40.144 -11.174  12.731  1.00  0.00     0.004 A 
HETATM   32  C   UNL     1      40.302 -11.318  11.349  1.00  0.00     0.029 A 
ENDBRANCH  22  26
ENDBRANCH   1  20
TORSDOF 5
ENDMDL
MODEL 8
REMARK VINA RESULT:      -7.7      6.285      8.023
REMARK  5 active torsions:
REMARK  status: ('A' for Active; 'I' for Inactive)
REMARK    1  A    between atoms: C_6  and  N_7 
REMARK       I    between atoms: N_7  and  C_8 
REMARK       I    between atoms: C_8  and  N_9 
REMARK    2  A    between atoms: N_9  and  N_10 
REMARK       I    between atoms: N_10  and  C_11 
REMARK    3  A    between atoms: C_11  and  C_12 
REMARK    4  A    between atoms: C_12  and  N_13 
REMARK       I    between atoms: N_13  and  C_14 
REMARK       I    between atoms: C_14  and  N_15 
REMARK    5  A    between atoms: N_15  and  C_16 
ROOT
HETATM    1  N   UNL     1      44.011 -12.794  11.073  1.00  0.00    -0.265 N 
HETATM    2  C   UNL     1      44.971 -12.066  10.388  1.00  0.00     0.253 C 
HETATM    3  O   UNL     1      45.523 -11.076  10.872  1.00  0.00    -0.270 OA
HETATM    4  H   UNL     1      43.311 -13.268  10.490  1.00  0.00     0.190 HD
ENDROOT
BRANCH   2   5
HETATM    5  C   UNL     1      45.165 -12.425   8.907  1.00  0.00     0.228 C 
BRANCH   5   6
HETATM    6  N   UNL     1      44.170 -13.247   8.227  1.00  0.00    -0.334 N 
HETATM    7  C   UNL     1      44.537 -14.076   7.194  1.00  0.00     0.321 C 
HETATM    8  N   UNL     1      43.628 -15.085   6.987  1.00  0.00    -0.309 N 
HETATM    9  O   UNL     1      45.562 -13.869   6.556  1.00  0.00    -0.247 OA
HETATM   10  H   UNL     1      42.986 -15.271   7.744  1.00  0.00     0.170 HD
HETATM   11  H   UNL     1      43.388 -13.537   8.793  1.00  0.00     0.164 HD
BRANCH   8  12
HETATM   12  C   UNL     1      43.657 -16.041   5.950  1.00  0.00     0.038 A 
HETATM   13  C   UNL     1      44.150 -17.339   6.107  1.00  0.00     0.055 A 
HETATM   14  C   UNL     1      44.161 -18.234   5.028  1.00  0.00     0.058 A 
HETATM   15 CL   UNL     1      44.808 -19.814   5.300  1.00  0.00    -0.082 Cl
HETATM   16  C   UNL     1      43.671 -17.835   3.782  1.00  0.00     0.055 A 
HETATM   17 CL   UNL     1      43.644 -18.883   2.411  1.00  0.00    -0.083 Cl
HETATM   18  C   UNL     1      43.182 -16.537   3.618  1.00  0.00     0.028 A 
HETATM   19  C   UNL     1      43.185 -15.643   4.693  1.00  0.00     0.031 A 
ENDBRANCH   8  12
ENDBRANCH   5   6
ENDBRANCH   2   5
BRANCH   1  20
HETATM   20  N   UNL     1      43.486 -12.181  12.231  1.00  0.00    -0.249 N 
HETATM   21  C   UNL     1      42.277 -11.521  12.259  1.00  0.00     0.339 C 
HETATM   22  N   UNL     1      41.714 -11.346  11.020  1.00  0.00    -0.308 N 
HETATM   23  O   UNL     1      41.818 -11.153  13.336  1.00  0.00    -0.245 OA
HETATM   24  H   UNL     1      42.204 -11.840  10.289  1.00  0.00     0.170 HD
HETATM   25  H   UNL     1      43.821 -12.519  13.131  1.00  0.00     0.192 HD
BRANCH  22  26
HETATM   26  C   UNL     1      40.512 -10.689  10.701  1.00  0.00     0.038 A 
HETATM   27  C   UNL     1      39.858  -9.806  11.565  1.00  0.00     0.053 A 
HETATM   28  C   UNL     1      38.666  -9.194  11.170  1.00  0.00     0.036 A 
HETATM   29  C   UNL     1      38.113  -9.454   9.919  1.00  0.00     0.024 A 
HETATM   30 CL   UNL     1      37.868  -8.103  12.239  1.00  0.00    -0.084 Cl
HETATM   31  C   UNL     1      38.760 -10.329   9.050  1.00  0.00     0.004 A 
HETATM   32  C   UNL     1      39.956 -10.939   9.439  1.00  0.00     0.029 A 
ENDBRANCH  22  26
ENDBRANCH   1  20
TORSDOF 5
ENDMDL
MODEL 9
REMARK VINA RESULT:      -7.6      2.152      2.900
REMARK  5 active torsions:
REMARK  status: ('A' for Active; 'I' for Inactive)
REMARK    1  A    between atoms: C_6  and  N_7 
REMARK       I    between atoms: N_7  and  C_8 
REMARK       I    between atoms: C_8  and  N_9 
REMARK    2  A    between atoms: N_9  and  N_10 
REMARK       I    between atoms: N_10  and  C_11 
REMARK    3  A    between atoms: C_11  and  C_12 
REMARK    4  A    between atoms: C_12  and  N_13 
REMARK       I    between atoms: N_13  and  C_14 
REMARK       I    between atoms: C_14  and  N_15 
REMARK    5  A    between atoms: N_15  and  C_16 
ROOT
HETATM    1  N   UNL     1      40.198 -12.050  -1.099  1.00  0.00    -0.265 N 
HETATM    2  C   UNL     1      39.328 -12.990  -1.629  1.00  0.00     0.253 C 
HETATM    3  O   UNL     1      38.136 -13.040  -1.318  1.00  0.00    -0.270 OA
HETATM    4  H   UNL     1      41.182 -12.337  -1.036  1.00  0.00     0.190 HD
ENDROOT
BRANCH   2   5
HETATM    5  C   UNL     1      39.967 -14.109  -2.466  1.00  0.00     0.228 C 
BRANCH   5   6
HETATM    6  N   UNL     1      40.272 -15.392  -1.843  1.00  0.00    -0.334 N 
HETATM    7  C   UNL     1      41.109 -15.459  -0.755  1.00  0.00     0.321 C 
HETATM    8  N   UNL     1      40.927 -16.610  -0.027  1.00  0.00    -0.309 N 
HETATM    9  O   UNL     1      41.919 -14.568  -0.530  1.00  0.00    -0.247 OA
HETATM   10  H   UNL     1      40.064 -17.109  -0.186  1.00  0.00     0.170 HD
HETATM   11  H   UNL     1      39.545 -16.088  -1.907  1.00  0.00     0.164 HD
BRANCH   8  12
HETATM   12  C   UNL     1      41.689 -17.029   1.085  1.00  0.00     0.038 A 
HETATM   13  C   UNL     1      41.148 -17.250   2.354  1.00  0.00     0.055 A 
HETATM   14  C   UNL     1      41.967 -17.653   3.418  1.00  0.00     0.058 A 
HETATM   15 CL   UNL     1      41.225 -17.885   4.961  1.00  0.00    -0.082 Cl
HETATM   16  C   UNL     1      43.337 -17.844   3.214  1.00  0.00     0.055 A 
HETATM   17 CL   UNL     1      44.406 -18.347   4.473  1.00  0.00    -0.083 Cl
HETATM   18  C   UNL     1      43.883 -17.618   1.949  1.00  0.00     0.028 A 
HETATM   19  C   UNL     1      43.065 -17.204   0.893  1.00  0.00     0.031 A 
ENDBRANCH   8  12
ENDBRANCH   5   6
ENDBRANCH   2   5
BRANCH   1  20
HETATM   20  N   UNL     1      39.725 -11.340   0.026  1.00  0.00    -0.249 N 
HETATM   21  C   UNL     1      40.130 -11.606   1.315  1.00  0.00     0.339 C 
HETATM   22  N   UNL     1      40.889 -12.743   1.434  1.00  0.00    -0.308 N 
HETATM   23  O   UNL     1      39.796 -10.846   2.219  1.00  0.00    -0.245 OA
HETATM   24  H   UNL     1      41.146 -13.143   0.542  1.00  0.00     0.170 HD
HETATM   25  H   UNL     1      39.355 -10.406  -0.133  1.00  0.00     0.192 HD
BRANCH  22  26
HETATM   26  C   UNL     1      41.426 -13.307   2.605  1.00  0.00     0.038 A 
HETATM   27  C   UNL     1      40.651 -13.720   3.693  1.00  0.00     0.053 A 
HETATM   28  C   UNL     1      41.264 -14.271   4.820  1.00  0.00     0.036 A 
HETATM   29  C   UNL     1      42.648 -14.416   4.879  1.00  0.00     0.024 A 
HETATM   30 CL   UNL     1      40.302 -14.782   6.155  1.00  0.00    -0.084 Cl
HETATM   31  C   UNL     1      43.427 -14.011   3.798  1.00  0.00     0.004 A 
HETATM   32  C   UNL     1      42.817 -13.464   2.665  1.00  0.00     0.029 A 
ENDBRANCH  22  26
ENDBRANCH   1  20
TORSDOF 5
ENDMDL
MODEL 10
REMARK VINA RESULT:      -7.5      2.255      3.249
REMARK  5 active torsions:
REMARK  status: ('A' for Active; 'I' for Inactive)
REMARK    1  A    between atoms: C_6  and  N_7 
REMARK       I    between atoms: N_7  and  C_8 
REMARK       I    between atoms: C_8  and  N_9 
REMARK    2  A    between atoms: N_9  and  N_10 
REMARK       I    between atoms: N_10  and  C_11 
REMARK    3  A    between atoms: C_11  and  C_12 
REMARK    4  A    between atoms: C_12  and  N_13 
REMARK       I    between atoms: N_13  and  C_14 
REMARK       I    between atoms: C_14  and  N_15 
REMARK    5  A    between atoms: N_15  and  C_16 
ROOT
HETATM    1  N   UNL     1      42.070 -13.981  -0.804  1.00  0.00    -0.265 N 
HETATM    2  C   UNL     1      40.943 -14.776  -0.941  1.00  0.00     0.253 C 
HETATM    3  O   UNL     1      39.800 -14.316  -0.910  1.00  0.00    -0.270 OA
HETATM    4  H   UNL     1      42.893 -14.440  -0.394  1.00  0.00     0.190 HD
ENDROOT
BRANCH   2   5
HETATM    5  C   UNL     1      41.178 -16.294  -0.920  1.00  0.00     0.228 C 
BRANCH   5   6
HETATM    6  N   UNL     1      40.970 -17.040   0.316  1.00  0.00    -0.334 N 
HETATM    7  C   UNL     1      41.756 -16.800   1.418  1.00  0.00     0.321 C 
HETATM    8  N   UNL     1      41.159 -17.213   2.585  1.00  0.00    -0.309 N 
HETATM    9  O   UNL     1      42.864 -16.291   1.299  1.00  0.00    -0.247 OA
HETATM   10  H   UNL     1      40.163 -17.369   2.547  1.00  0.00     0.170 HD
HETATM   11  H   UNL     1      40.023 -17.342   0.485  1.00  0.00     0.164 HD
BRANCH   8  12
HETATM   12  C   UNL     1      41.737 -17.201   3.872  1.00  0.00     0.038 A 
HETATM   13  C   UNL     1      42.987 -17.752   4.165  1.00  0.00     0.055 A 
HETATM   14  C   UNL     1      43.495 -17.716   5.471  1.00  0.00     0.058 A 
HETATM   15 CL   UNL     1      45.039 -18.439   5.754  1.00  0.00    -0.082 Cl
HETATM   16  C   UNL     1      42.752 -17.120   6.495  1.00  0.00     0.055 A 
HETATM   17 CL   UNL     1      43.315 -17.031   8.124  1.00  0.00    -0.083 Cl
HETATM   18  C   UNL     1      41.500 -16.573   6.209  1.00  0.00     0.028 A 
HETATM   19  C   UNL     1      40.991 -16.622   4.907  1.00  0.00     0.031 A 
ENDBRANCH   8  12
ENDBRANCH   5   6
ENDBRANCH   2   5
BRANCH   1  20
HETATM   20  N   UNL     1      41.844 -12.668  -0.339  1.00  0.00    -0.249 N 
HETATM   21  C   UNL     1      42.012 -12.288   0.974  1.00  0.00     0.339 C 
HETATM   22  N   UNL     1      42.237 -13.337   1.829  1.00  0.00    -0.308 N 
HETATM   23  O   UNL     1      41.948 -11.099   1.269  1.00  0.00    -0.245 OA
HETATM   24  H   UNL     1      42.375 -14.216   1.350  1.00  0.00     0.170 HD
HETATM   25  H   UNL     1      41.895 -11.915  -1.023  1.00  0.00     0.192 HD
BRANCH  22  26
HETATM   26  C   UNL     1      42.415 -13.295   3.224  1.00  0.00     0.038 A 
HETATM   27  C   UNL     1      41.499 -12.712   4.104  1.00  0.00     0.053 A 
HETATM   28  C   UNL     1      41.752 -12.712   5.478  1.00  0.00     0.036 A 
HETATM   29  C   UNL     1      42.913 -13.287   5.989  1.00  0.00     0.024 A 
HETATM   30 CL   UNL     1      40.616 -11.996   6.558  1.00  0.00    -0.084 Cl
HETATM   31  C   UNL     1      43.828 -13.874   5.118  1.00  0.00     0.004 A 
HETATM   32  C   UNL     1      43.576 -13.881   3.743  1.00  0.00     0.029 A 
ENDBRANCH  22  26
ENDBRANCH   1  20
TORSDOF 5
ENDMDL
