MODEL 1
REMARK VINA RESULT:      -7.2      0.000      0.000
REMARK  3 active torsions:
REMARK  status: ('A' for Active; 'I' for Inactive)
REMARK    1  A    between atoms: N_6  and  C_7 
REMARK    2  A    between atoms: C_10  and  S_11 
REMARK    3  A    between atoms: S_11  and  N_12 
ROOT
HETATM    1  C   UNL     1      41.447 -15.821   3.815  1.00  0.00     0.030 A 
HETATM    2  C   UNL     1      42.779 -15.535   4.158  1.00  0.00     0.031 A 
HETATM    3  C   UNL     1      43.632 -16.506   4.704  1.00  0.00     0.027 A 
HETATM    4  C   UNL     1      43.151 -17.788   4.952  1.00  0.00     0.079 A 
HETATM    5  C   UNL     1      41.831 -18.105   4.647  1.00  0.00     0.027 A 
HETATM    6  C   UNL     1      40.992 -17.122   4.107  1.00  0.00     0.031 A 
ENDROOT
BRANCH   4   7
HETATM    7  S   UNL     1      44.253 -19.056   5.542  1.00  0.00     0.260 S 
HETATM    8  O   UNL     1      45.360 -18.377   6.181  1.00  0.00    -0.200 OA
HETATM    9  O   UNL     1      43.440 -20.004   6.273  1.00  0.00    -0.200 OA
BRANCH   7  10
HETATM   10  N   UNL     1      44.801 -19.785   4.130  1.00  0.00    -0.307 N 
HETATM   11  C   UNL     1      45.350 -21.151   4.151  1.00  0.00     0.135 C 
HETATM   12  C   UNL     1      44.399 -22.138   3.486  1.00  0.00     0.021 C 
HETATM   13  C   UNL     1      44.007 -21.676   2.087  1.00  0.00     0.003 C 
HETATM   14  C   UNL     1      43.419 -20.270   2.134  1.00  0.00     0.021 C 
HETATM   15  C   UNL     1      44.370 -19.289   2.810  1.00  0.00     0.135 C 
ENDBRANCH   7  10
ENDBRANCH   4   7
BRANCH   1  16
HETATM   16  N   UNL     1      40.580 -14.879   3.248  1.00  0.00    -0.378 N 
HETATM   17  C   UNL     1      39.701 -15.341   2.147  1.00  0.00     0.150 C 
HETATM   18  C   UNL     1      40.400 -15.156   0.783  1.00  0.00     0.254 C 
HETATM   19  N   UNL     1      40.821 -13.695   0.595  1.00  0.00    -0.072 N 
HETATM   20  C   UNL     1      41.474 -13.468  -0.735  1.00  0.00     0.269 C 
HETATM   21  H   UNL     1      39.962 -13.131   0.619  1.00  0.00     0.279 HD
HETATM   22  C   UNL     1      41.701 -13.222   1.756  1.00  0.00     0.254 C 
HETATM   23  C   UNL     1      40.992 -13.467   3.107  1.00  0.00     0.150 C 
ENDBRANCH   1  16
TORSDOF 3
ENDMDL
MODEL 2
REMARK VINA RESULT:      -7.2      2.202      2.619
REMARK  3 active torsions:
REMARK  status: ('A' for Active; 'I' for Inactive)
REMARK    1  A    between atoms: N_6  and  C_7 
REMARK    2  A    between atoms: C_10  and  S_11 
REMARK    3  A    between atoms: S_11  and  N_12 
ROOT
HETATM    1  C   UNL     1      41.185 -16.731   3.383  1.00  0.00     0.030 A 
HETATM    2  C   UNL     1      42.297 -15.876   3.468  1.00  0.00     0.031 A 
HETATM    3  C   UNL     1      43.122 -15.839   4.603  1.00  0.00     0.027 A 
HETATM    4  C   UNL     1      42.827 -16.642   5.700  1.00  0.00     0.079 A 
HETATM    5  C   UNL     1      41.721 -17.486   5.663  1.00  0.00     0.027 A 
HETATM    6  C   UNL     1      40.905 -17.507   4.526  1.00  0.00     0.031 A 
ENDROOT
BRANCH   4   7
HETATM    7  S   UNL     1      43.928 -16.683   7.098  1.00  0.00     0.260 S 
HETATM    8  O   UNL     1      44.902 -15.633   6.888  1.00  0.00    -0.200 OA
HETATM    9  O   UNL     1      43.094 -16.699   8.282  1.00  0.00    -0.200 OA
BRANCH   7  10
HETATM   10  N   UNL     1      44.691 -18.173   6.951  1.00  0.00    -0.307 N 
HETATM   11  C   UNL     1      44.303 -19.306   7.809  1.00  0.00     0.135 C 
HETATM   12  C   UNL     1      43.560 -20.372   7.012  1.00  0.00     0.021 C 
HETATM   13  C   UNL     1      44.352 -20.799   5.782  1.00  0.00     0.003 C 
HETATM   14  C   UNL     1      44.697 -19.590   4.921  1.00  0.00     0.021 C 
HETATM   15  C   UNL     1      45.431 -18.523   5.725  1.00  0.00     0.135 C 
ENDBRANCH   7  10
ENDBRANCH   4   7
BRANCH   1  16
HETATM   16  N   UNL     1      40.358 -16.805   2.257  1.00  0.00    -0.378 N 
HETATM   17  C   UNL     1      40.905 -17.481   1.056  1.00  0.00     0.150 C 
HETATM   18  C   UNL     1      41.634 -16.466   0.150  1.00  0.00     0.254 C 
HETATM   19  N   UNL     1      40.693 -15.317  -0.227  1.00  0.00    -0.072 N 
HETATM   20  C   UNL     1      41.355 -14.326  -1.136  1.00  0.00     0.269 C 
HETATM   21  H   UNL     1      39.906 -15.733  -0.742  1.00  0.00     0.279 HD
HETATM   22  C   UNL     1      40.109 -14.651   1.022  1.00  0.00     0.254 C 
HETATM   23  C   UNL     1      39.431 -15.702   1.930  1.00  0.00     0.150 C 
ENDBRANCH   1  16
TORSDOF 3
ENDMDL
MODEL 3
REMARK VINA RESULT:      -7.0      1.641      2.523
REMARK  3 active torsions:
REMARK  status: ('A' for Active; 'I' for Inactive)
REMARK    1  A    between atoms: N_6  and  C_7 
REMARK    2  A    between atoms: C_10  and  S_11 
REMARK    3  A    between atoms: S_11  and  N_12 
ROOT
HETATM    1  C   UNL     1      41.181 -14.445   1.671  1.00  0.00     0.030 A 
HETATM    2  C   UNL     1      40.501 -15.637   1.971  1.00  0.00     0.031 A 
HETATM    3  C   UNL     1      41.022 -16.588   2.862  1.00  0.00     0.027 A 
HETATM    4  C   UNL     1      42.264 -16.375   3.451  1.00  0.00     0.079 A 
HETATM    5  C   UNL     1      42.980 -15.217   3.163  1.00  0.00     0.027 A 
HETATM    6  C   UNL     1      42.448 -14.281   2.267  1.00  0.00     0.031 A 
ENDROOT
BRANCH   4   7
HETATM    7  S   UNL     1      42.884 -17.521   4.665  1.00  0.00     0.260 S 
HETATM    8  O   UNL     1      43.547 -16.730   5.680  1.00  0.00    -0.200 OA
HETATM    9  O   UNL     1      41.783 -18.397   5.007  1.00  0.00    -0.200 OA
BRANCH   7  10
HETATM   10  N   UNL     1      44.037 -18.402   3.818  1.00  0.00    -0.307 N 
HETATM   11  C   UNL     1      44.924 -19.349   4.514  1.00  0.00     0.135 C 
HETATM   12  C   UNL     1      44.562 -20.791   4.178  1.00  0.00     0.021 C 
HETATM   13  C   UNL     1      44.517 -21.016   2.671  1.00  0.00     0.003 C 
HETATM   14  C   UNL     1      43.563 -20.026   2.012  1.00  0.00     0.021 C 
HETATM   15  C   UNL     1      43.922 -18.586   2.360  1.00  0.00     0.135 C 
ENDBRANCH   7  10
ENDBRANCH   4   7
BRANCH   1  16
HETATM   16  N   UNL     1      40.676 -13.469   0.804  1.00  0.00    -0.378 N 
HETATM   17  C   UNL     1      39.527 -13.850  -0.052  1.00  0.00     0.150 C 
HETATM   18  C   UNL     1      40.022 -14.435  -1.392  1.00  0.00     0.254 C 
HETATM   19  N   UNL     1      40.947 -13.438  -2.098  1.00  0.00    -0.072 N 
HETATM   20  C   UNL     1      41.422 -13.956  -3.422  1.00  0.00     0.269 C 
HETATM   21  H   UNL     1      40.392 -12.591  -2.277  1.00  0.00     0.279 HD
HETATM   22  C   UNL     1      42.110 -13.027  -1.190  1.00  0.00     0.254 C 
HETATM   23  C   UNL     1      41.581 -12.494   0.161  1.00  0.00     0.150 C 
ENDBRANCH   1  16
TORSDOF 3
ENDMDL
MODEL 4
REMARK VINA RESULT:      -6.7      2.729      4.022
REMARK  3 active torsions:
REMARK  status: ('A' for Active; 'I' for Inactive)
REMARK    1  A    between atoms: N_6  and  C_7 
REMARK    2  A    between atoms: C_10  and  S_11 
REMARK    3  A    between atoms: S_11  and  N_12 
ROOT
HETATM    1  C   UNL     1      41.627 -14.498   5.492  1.00  0.00     0.030 A 
HETATM    2  C   UNL     1      41.039 -15.621   6.097  1.00  0.00     0.031 A 
HETATM    3  C   UNL     1      41.787 -16.756   6.446  1.00  0.00     0.027 A 
HETATM    4  C   UNL     1      43.148 -16.802   6.161  1.00  0.00     0.079 A 
HETATM    5  C   UNL     1      43.764 -15.719   5.542  1.00  0.00     0.027 A 
HETATM    6  C   UNL     1      43.002 -14.596   5.196  1.00  0.00     0.031 A 
ENDROOT
BRANCH   4   7
HETATM    7  S   UNL     1      44.125 -18.190   6.698  1.00  0.00     0.260 S 
HETATM    8  O   UNL     1      45.508 -17.843   6.450  1.00  0.00    -0.200 OA
HETATM    9  O   UNL     1      43.670 -18.526   8.031  1.00  0.00    -0.200 OA
BRANCH   7  10
HETATM   10  N   UNL     1      43.672 -19.417   5.644  1.00  0.00    -0.307 N 
HETATM   11  C   UNL     1      43.319 -19.117   4.245  1.00  0.00     0.135 C 
HETATM   12  C   UNL     1      44.394 -19.618   3.287  1.00  0.00     0.021 C 
HETATM   13  C   UNL     1      44.703 -21.093   3.520  1.00  0.00     0.003 C 
HETATM   14  C   UNL     1      45.088 -21.334   4.975  1.00  0.00     0.021 C 
HETATM   15  C   UNL     1      44.016 -20.822   5.930  1.00  0.00     0.135 C 
ENDBRANCH   7  10
ENDBRANCH   4   7
BRANCH   1  16
HETATM   16  N   UNL     1      40.911 -13.344   5.153  1.00  0.00    -0.378 N 
HETATM   17  C   UNL     1      41.633 -12.052   5.224  1.00  0.00     0.150 C 
HETATM   18  C   UNL     1      41.492 -11.430   6.631  1.00  0.00     0.254 C 
HETATM   19  N   UNL     1      40.012 -11.272   6.996  1.00  0.00    -0.072 N 
HETATM   20  C   UNL     1      39.834 -10.640   8.343  1.00  0.00     0.269 C 
HETATM   21  H   UNL     1      39.599 -10.641   6.299  1.00  0.00     0.279 HD
HETATM   22  C   UNL     1      39.273 -12.609   6.885  1.00  0.00     0.254 C 
HETATM   23  C   UNL     1      39.476 -13.226   5.483  1.00  0.00     0.150 C 
ENDBRANCH   1  16
TORSDOF 3
ENDMDL
MODEL 5
REMARK VINA RESULT:      -6.6      1.669      2.289
REMARK  3 active torsions:
REMARK  status: ('A' for Active; 'I' for Inactive)
REMARK    1  A    between atoms: N_6  and  C_7 
REMARK    2  A    between atoms: C_10  and  S_11 
REMARK    3  A    between atoms: S_11  and  N_12 
ROOT
HETATM    1  C   UNL     1      41.518 -14.019   3.848  1.00  0.00     0.030 A 
HETATM    2  C   UNL     1      42.898 -14.286   3.831  1.00  0.00     0.031 A 
HETATM    3  C   UNL     1      43.479 -15.255   4.663  1.00  0.00     0.027 A 
HETATM    4  C   UNL     1      42.685 -15.960   5.562  1.00  0.00     0.079 A 
HETATM    5  C   UNL     1      41.318 -15.709   5.626  1.00  0.00     0.027 A 
HETATM    6  C   UNL     1      40.755 -14.734   4.793  1.00  0.00     0.031 A 
ENDROOT
BRANCH   4   7
HETATM    7  S   UNL     1      43.393 -17.267   6.543  1.00  0.00     0.260 S 
HETATM    8  O   UNL     1      44.802 -16.965   6.678  1.00  0.00    -0.200 OA
HETATM    9  O   UNL     1      42.548 -17.414   7.709  1.00  0.00    -0.200 OA
BRANCH   7  10
HETATM   10  N   UNL     1      43.216 -18.625   5.569  1.00  0.00    -0.307 N 
HETATM   11  C   UNL     1      42.610 -18.519   4.230  1.00  0.00     0.135 C 
HETATM   12  C   UNL     1      43.654 -18.709   3.136  1.00  0.00     0.021 C 
HETATM   13  C   UNL     1      44.439 -20.001   3.334  1.00  0.00     0.003 C 
HETATM   14  C   UNL     1      45.064 -20.038   4.724  1.00  0.00     0.021 C 
HETATM   15  C   UNL     1      44.018 -19.837   5.814  1.00  0.00     0.135 C 
ENDBRANCH   7  10
ENDBRANCH   4   7
BRANCH   1  16
HETATM   16  N   UNL     1      40.908 -13.074   3.015  1.00  0.00    -0.378 N 
HETATM   17  C   UNL     1      39.482 -13.291   2.673  1.00  0.00     0.150 C 
HETATM   18  C   UNL     1      39.356 -14.141   1.391  1.00  0.00     0.254 C 
HETATM   19  N   UNL     1      40.120 -13.481   0.238  1.00  0.00    -0.072 N 
HETATM   20  C   UNL     1      39.994 -14.260  -1.035  1.00  0.00     0.269 C 
HETATM   21  H   UNL     1      39.689 -12.561   0.083  1.00  0.00     0.279 HD
HETATM   22  C   UNL     1      41.583 -13.232   0.618  1.00  0.00     0.254 C 
HETATM   23  C   UNL     1      41.672 -12.423   1.932  1.00  0.00     0.150 C 
ENDBRANCH   1  16
TORSDOF 3
ENDMDL
MODEL 6
REMARK VINA RESULT:      -6.6      1.726      2.556
REMARK  3 active torsions:
REMARK  status: ('A' for Active; 'I' for Inactive)
REMARK    1  A    between atoms: N_6  and  C_7 
REMARK    2  A    between atoms: C_10  and  S_11 
REMARK    3  A    between atoms: S_11  and  N_12 
ROOT
HETATM    1  C   UNL     1      41.158 -15.580   1.016  1.00  0.00     0.030 A 
HETATM    2  C   UNL     1      40.416 -16.342   1.935  1.00  0.00     0.031 A 
HETATM    3  C   UNL     1      41.034 -17.151   2.901  1.00  0.00     0.027 A 
HETATM    4  C   UNL     1      42.422 -17.239   2.945  1.00  0.00     0.079 A 
HETATM    5  C   UNL     1      43.191 -16.517   2.038  1.00  0.00     0.027 A 
HETATM    6  C   UNL     1      42.559 -15.719   1.076  1.00  0.00     0.031 A 
ENDROOT
BRANCH   4   7
HETATM    7  S   UNL     1      43.216 -18.174   4.235  1.00  0.00     0.260 S 
HETATM    8  O   UNL     1      44.065 -17.249   4.954  1.00  0.00    -0.200 OA
HETATM    9  O   UNL     1      42.171 -18.909   4.916  1.00  0.00    -0.200 OA
BRANCH   7  10
HETATM   10  N   UNL     1      44.182 -19.260   3.391  1.00  0.00    -0.307 N 
HETATM   11  C   UNL     1      45.102 -20.162   4.104  1.00  0.00     0.135 C 
HETATM   12  C   UNL     1      44.612 -21.604   4.048  1.00  0.00     0.021 C 
HETATM   13  C   UNL     1      44.338 -22.044   2.615  1.00  0.00     0.003 C 
HETATM   14  C   UNL     1      43.360 -21.089   1.941  1.00  0.00     0.021 C 
HETATM   15  C   UNL     1      43.849 -19.647   2.008  1.00  0.00     0.135 C 
ENDBRANCH   7  10
ENDBRANCH   4   7
BRANCH   1  16
HETATM   16  N   UNL     1      40.570 -14.748   0.056  1.00  0.00    -0.378 N 
HETATM   17  C   UNL     1      41.475 -13.884  -0.740  1.00  0.00     0.150 C 
HETATM   18  C   UNL     1      41.677 -12.523  -0.040  1.00  0.00     0.254 C 
HETATM   19  N   UNL     1      40.324 -11.847   0.210  1.00  0.00    -0.072 N 
HETATM   20  C   UNL     1      40.481 -10.505   0.858  1.00  0.00     0.269 C 
HETATM   21  H   UNL     1      39.891 -11.699  -0.710  1.00  0.00     0.279 HD
HETATM   22  C   UNL     1      39.389 -12.764   1.003  1.00  0.00     0.254 C 
HETATM   23  C   UNL     1      39.249 -14.134   0.302  1.00  0.00     0.150 C 
ENDBRANCH   1  16
TORSDOF 3
ENDMDL
MODEL 7
REMARK VINA RESULT:      -6.6      2.984      4.573
REMARK  3 active torsions:
REMARK  status: ('A' for Active; 'I' for Inactive)
REMARK    1  A    between atoms: N_6  and  C_7 
REMARK    2  A    between atoms: C_10  and  S_11 
REMARK    3  A    between atoms: S_11  and  N_12 
ROOT
HETATM    1  C   UNL     1      40.260 -13.896  -0.153  1.00  0.00     0.030 A 
HETATM    2  C   UNL     1      39.371 -14.412   0.806  1.00  0.00     0.031 A 
HETATM    3  C   UNL     1      39.822 -14.997   1.999  1.00  0.00     0.027 A 
HETATM    4  C   UNL     1      41.187 -15.108   2.243  1.00  0.00     0.079 A 
HETATM    5  C   UNL     1      42.099 -14.629   1.307  1.00  0.00     0.027 A 
HETATM    6  C   UNL     1      41.633 -14.053   0.120  1.00  0.00     0.031 A 
ENDROOT
BRANCH   4   7
HETATM    7  S   UNL     1      41.766 -15.749   3.800  1.00  0.00     0.260 S 
HETATM    8  O   UNL     1      43.060 -15.146   4.039  1.00  0.00    -0.200 OA
HETATM    9  O   UNL     1      40.682 -15.582   4.745  1.00  0.00    -0.200 OA
BRANCH   7  10
HETATM   10  N   UNL     1      41.974 -17.388   3.494  1.00  0.00    -0.307 N 
HETATM   11  C   UNL     1      42.074 -17.890   2.113  1.00  0.00     0.135 C 
HETATM   12  C   UNL     1      43.493 -18.345   1.794  1.00  0.00     0.021 C 
HETATM   13  C   UNL     1      44.003 -19.342   2.829  1.00  0.00     0.003 C 
HETATM   14  C   UNL     1      43.901 -18.754   4.231  1.00  0.00     0.021 C 
HETATM   15  C   UNL     1      42.483 -18.291   4.542  1.00  0.00     0.135 C 
ENDBRANCH   7  10
ENDBRANCH   4   7
BRANCH   1  16
HETATM   16  N   UNL     1      39.839 -13.287  -1.341  1.00  0.00    -0.378 N 
HETATM   17  C   UNL     1      38.388 -13.320  -1.645  1.00  0.00     0.150 C 
HETATM   18  C   UNL     1      38.034 -14.586  -2.456  1.00  0.00     0.254 C 
HETATM   19  N   UNL     1      38.881 -14.654  -3.731  1.00  0.00    -0.072 N 
HETATM   20  C   UNL     1      38.542 -15.853  -4.564  1.00  0.00     0.269 C 
HETATM   21  H   UNL     1      38.655 -13.817  -4.284  1.00  0.00     0.279 HD
HETATM   22  C   UNL     1      40.376 -14.584  -3.404  1.00  0.00     0.254 C 
HETATM   23  C   UNL     1      40.686 -13.334  -2.550  1.00  0.00     0.150 C 
ENDBRANCH   1  16
TORSDOF 3
ENDMDL
MODEL 8
REMARK VINA RESULT:      -6.4      5.187      8.050
REMARK  3 active torsions:
REMARK  status: ('A' for Active; 'I' for Inactive)
REMARK    1  A    between atoms: N_6  and  C_7 
REMARK    2  A    between atoms: C_10  and  S_11 
REMARK    3  A    between atoms: S_11  and  N_12 
ROOT
HETATM    1  C   UNL     1      40.328 -15.175   1.372  1.00  0.00     0.030 A 
HETATM    2  C   UNL     1      41.169 -15.908   0.516  1.00  0.00     0.031 A 
HETATM    3  C   UNL     1      41.236 -15.649  -0.862  1.00  0.00     0.027 A 
HETATM    4  C   UNL     1      40.429 -14.663  -1.421  1.00  0.00     0.079 A 
HETATM    5  C   UNL     1      39.567 -13.931  -0.611  1.00  0.00     0.027 A 
HETATM    6  C   UNL     1      39.508 -14.206   0.761  1.00  0.00     0.031 A 
ENDROOT
BRANCH   4   7
HETATM    7  S   UNL     1      40.587 -14.254  -3.146  1.00  0.00     0.260 S 
HETATM    8  O   UNL     1      41.424 -15.276  -3.739  1.00  0.00    -0.200 OA
HETATM    9  O   UNL     1      39.248 -14.011  -3.639  1.00  0.00    -0.200 OA
BRANCH   7  10
HETATM   10  N   UNL     1      41.430 -12.800  -3.126  1.00  0.00    -0.307 N 
HETATM   11  C   UNL     1      40.726 -11.518  -3.295  1.00  0.00     0.135 C 
HETATM   12  C   UNL     1      40.691 -10.732  -1.990  1.00  0.00     0.021 C 
HETATM   13  C   UNL     1      42.088 -10.571  -1.401  1.00  0.00     0.003 C 
HETATM   14  C   UNL     1      42.753 -11.932  -1.223  1.00  0.00     0.021 C 
HETATM   15  C   UNL     1      42.775 -12.718  -2.529  1.00  0.00     0.135 C 
ENDBRANCH   7  10
ENDBRANCH   4   7
BRANCH   1  16
HETATM   16  N   UNL     1      40.256 -15.396   2.752  1.00  0.00    -0.378 N 
HETATM   17  C   UNL     1      39.939 -14.230   3.610  1.00  0.00     0.150 C 
HETATM   18  C   UNL     1      41.233 -13.506   4.041  1.00  0.00     0.254 C 
HETATM   19  N   UNL     1      42.180 -14.485   4.744  1.00  0.00    -0.072 N 
HETATM   20  C   UNL     1      43.436 -13.811   5.208  1.00  0.00     0.269 C 
HETATM   21  H   UNL     1      41.687 -14.831   5.577  1.00  0.00     0.279 HD
HETATM   22  C   UNL     1      42.472 -15.700   3.859  1.00  0.00     0.254 C 
HETATM   23  C   UNL     1      41.155 -16.369   3.405  1.00  0.00     0.150 C 
ENDBRANCH   1  16
TORSDOF 3
ENDMDL
MODEL 9
REMARK VINA RESULT:      -6.4      4.072      7.454
REMARK  3 active torsions:
REMARK  status: ('A' for Active; 'I' for Inactive)
REMARK    1  A    between atoms: N_6  and  C_7 
REMARK    2  A    between atoms: C_10  and  S_11 
REMARK    3  A    between atoms: S_11  and  N_12 
ROOT
HETATM    1  C   UNL     1      41.337 -15.811   3.526  1.00  0.00     0.030 A 
HETATM    2  C   UNL     1      41.952 -14.603   3.155  1.00  0.00     0.031 A 
HETATM    3  C   UNL     1      41.900 -14.115   1.840  1.00  0.00     0.027 A 
HETATM    4  C   UNL     1      41.252 -14.852   0.854  1.00  0.00     0.079 A 
HETATM    5  C   UNL     1      40.651 -16.064   1.176  1.00  0.00     0.027 A 
HETATM    6  C   UNL     1      40.716 -16.539   2.492  1.00  0.00     0.031 A 
ENDROOT
BRANCH   4   7
HETATM    7  S   UNL     1      41.087 -14.189  -0.790  1.00  0.00     0.260 S 
HETATM    8  O   UNL     1      42.203 -13.288  -0.987  1.00  0.00    -0.200 OA
HETATM    9  O   UNL     1      40.878 -15.318  -1.673  1.00  0.00    -0.200 OA
BRANCH   7  10
HETATM   10  N   UNL     1      39.668 -13.293  -0.709  1.00  0.00    -0.307 N 
HETATM   11  C   UNL     1      38.354 -13.948  -0.833  1.00  0.00     0.135 C 
HETATM   12  C   UNL     1      37.619 -13.964   0.501  1.00  0.00     0.021 C 
HETATM   13  C   UNL     1      37.533 -12.568   1.106  1.00  0.00     0.003 C 
HETATM   14  C   UNL     1      38.923 -11.956   1.236  1.00  0.00     0.021 C 
HETATM   15  C   UNL     1      39.659 -11.951  -0.099  1.00  0.00     0.135 C 
ENDBRANCH   7  10
ENDBRANCH   4   7
BRANCH   1  16
HETATM   16  N   UNL     1      41.353 -16.312   4.833  1.00  0.00    -0.378 N 
HETATM   17  C   UNL     1      42.173 -15.582   5.829  1.00  0.00     0.150 C 
HETATM   18  C   UNL     1      43.612 -16.142   5.859  1.00  0.00     0.254 C 
HETATM   19  N   UNL     1      43.591 -17.649   6.138  1.00  0.00    -0.072 N 
HETATM   20  C   UNL     1      44.973 -18.224   6.208  1.00  0.00     0.269 C 
HETATM   21  H   UNL     1      43.154 -17.775   7.060  1.00  0.00     0.279 HD
HETATM   22  C   UNL     1      42.712 -18.384   5.121  1.00  0.00     0.254 C 
HETATM   23  C   UNL     1      41.296 -17.767   5.081  1.00  0.00     0.150 C 
ENDBRANCH   1  16
TORSDOF 3
ENDMDL
MODEL 10
REMARK VINA RESULT:      -6.3      2.923      4.671
REMARK  3 active torsions:
REMARK  status: ('A' for Active; 'I' for Inactive)
REMARK    1  A    between atoms: N_6  and  C_7 
REMARK    2  A    between atoms: C_10  and  S_11 
REMARK    3  A    between atoms: S_11  and  N_12 
ROOT
HETATM    1  C   UNL     1      40.999 -14.893   0.333  1.00  0.00     0.030 A 
HETATM    2  C   UNL     1      40.304 -14.855   1.554  1.00  0.00     0.031 A 
HETATM    3  C   UNL     1      40.615 -15.720   2.615  1.00  0.00     0.027 A 
HETATM    4  C   UNL     1      41.617 -16.672   2.459  1.00  0.00     0.079 A 
HETATM    5  C   UNL     1      42.313 -16.757   1.258  1.00  0.00     0.027 A 
HETATM    6  C   UNL     1      41.986 -15.890   0.208  1.00  0.00     0.031 A 
ENDROOT
BRANCH   4   7
HETATM    7  S   UNL     1      42.092 -17.699   3.834  1.00  0.00     0.260 S 
HETATM    8  O   UNL     1      40.956 -17.745   4.729  1.00  0.00    -0.200 OA
HETATM    9  O   UNL     1      42.646 -18.913   3.272  1.00  0.00    -0.200 OA
BRANCH   7  10
HETATM   10  N   UNL     1      43.328 -16.825   4.564  1.00  0.00    -0.307 N 
HETATM   11  C   UNL     1      43.295 -15.353   4.594  1.00  0.00     0.135 C 
HETATM   12  C   UNL     1      43.020 -14.837   6.001  1.00  0.00     0.021 C 
HETATM   13  C   UNL     1      43.995 -15.431   7.012  1.00  0.00     0.003 C 
HETATM   14  C   UNL     1      43.962 -16.954   6.953  1.00  0.00     0.021 C 
HETATM   15  C   UNL     1      44.228 -17.465   5.542  1.00  0.00     0.135 C 
ENDBRANCH   7  10
ENDBRANCH   4   7
BRANCH   1  16
HETATM   16  N   UNL     1      40.725 -14.029  -0.734  1.00  0.00    -0.378 N 
HETATM   17  C   UNL     1      39.458 -13.262  -0.678  1.00  0.00     0.150 C 
HETATM   18  C   UNL     1      38.316 -14.056  -1.349  1.00  0.00     0.254 C 
HETATM   19  N   UNL     1      38.695 -14.419  -2.789  1.00  0.00    -0.072 N 
HETATM   20  C   UNL     1      37.596 -15.162  -3.486  1.00  0.00     0.269 C 
HETATM   21  H   UNL     1      38.840 -13.534  -3.292  1.00  0.00     0.279 HD
HETATM   22  C   UNL     1      40.023 -15.181  -2.833  1.00  0.00     0.254 C 
HETATM   23  C   UNL     1      41.131 -14.382  -2.110  1.00  0.00     0.150 C 
ENDBRANCH   1  16
TORSDOF 3
ENDMDL
