MODEL 1
REMARK VINA RESULT:     -10.0      0.000      0.000
REMARK  7 active torsions:
REMARK  status: ('A' for Active; 'I' for Inactive)
REMARK    1  A    between atoms: C_6  and  N_7 
REMARK       I    between atoms: N_7  and  C_8 
REMARK    2  A    between atoms: C_8  and  C_9 
REMARK    3  A    between atoms: C_9  and  N_10 
REMARK    4  A    between atoms: N_13  and  C_14 
REMARK    5  A    between atoms: C_14  and  C_15 
REMARK    6  A    between atoms: C_30  and  C_31 
REMARK       I    between atoms: C_31  and  N_32 
REMARK    7  A    between atoms: N_32  and  C_33 
ROOT
HETATM    1  N   UNL     1      42.135 -13.232   3.912  1.00  0.00    -0.290 N 
HETATM    2  C   UNL     1      42.324 -13.229   2.536  1.00  0.00     0.332 C 
HETATM    3  O   UNL     1      42.894 -14.176   1.983  1.00  0.00    -0.246 OA
HETATM    4  N   UNL     1      41.815 -12.152   1.832  1.00  0.00    -0.261 N 
HETATM    5  C   UNL     1      40.983 -11.182   2.369  1.00  0.00     0.264 C 
HETATM    6  O   UNL     1      40.479 -10.269   1.720  1.00  0.00    -0.267 OA
HETATM    7  C   UNL     1      40.682 -11.288   3.806  1.00  0.00     0.059 A 
HETATM    8  C   UNL     1      41.272 -12.306   4.556  1.00  0.00     0.056 A 
HETATM    9  C   UNL     1      39.818 -10.356   4.400  1.00  0.00     0.020 A 
HETATM   10  C   UNL     1      39.517 -10.451   5.756  1.00  0.00     0.018 A 
HETATM   11  C   UNL     1      40.073 -11.479   6.519  1.00  0.00     0.034 A 
HETATM   12  C   UNL     1      40.963 -12.388   5.925  1.00  0.00     0.048 A 
ENDROOT
BRANCH   1  13
HETATM   13  C   UNL     1      42.805 -14.286   4.682  1.00  0.00     0.237 C 
BRANCH  13  14
HETATM   14  C   UNL     1      42.485 -15.686   4.153  1.00  0.00     0.240 C 
HETATM   15  N   UNL     1      43.615 -16.410   3.815  1.00  0.00    -0.325 N 
HETATM   16  H   UNL     1      44.471 -16.047   4.226  1.00  0.00     0.169 HD
HETATM   17  O   UNL     1      41.326 -16.093   4.165  1.00  0.00    -0.271 OA
BRANCH  15  18
HETATM   18  C   UNL     1      43.684 -17.727   3.296  1.00  0.00     0.046 A 
HETATM   19  C   UNL     1      43.314 -18.086   1.983  1.00  0.00    -0.034 A 
HETATM   20  C   UNL     1      43.371 -19.441   1.595  1.00  0.00     0.015 A 
HETATM   21  C   UNL     1      42.895 -17.117   0.910  1.00  0.00     0.050 C 
HETATM   22  C   UNL     1      43.836 -20.434   2.456  1.00  0.00    -0.061 A 
HETATM   23  C   UNL     1      43.929 -21.859   2.000  1.00  0.00     0.048 C 
HETATM   24  C   UNL     1      44.283 -20.062   3.722  1.00  0.00     0.015 A 
HETATM   25  C   UNL     1      44.212 -18.725   4.155  1.00  0.00    -0.034 A 
HETATM   26  C   UNL     1      44.689 -18.420   5.554  1.00  0.00     0.050 C 
ENDBRANCH  15  18
ENDBRANCH  13  14
ENDBRANCH   1  13
BRANCH   4  27
HETATM   27  C   UNL     1      42.166 -12.032   0.422  1.00  0.00     0.175 C 
BRANCH  27  28
HETATM   28  C   UNL     1      41.193 -12.804  -0.449  1.00  0.00    -0.037 A 
HETATM   29  C   UNL     1      41.636 -13.418  -1.633  1.00  0.00     0.048 A 
HETATM   30  C   UNL     1      40.729 -14.156  -2.363  1.00  0.00     0.105 A 
HETATM   31  C   UNL     1      39.423 -14.299  -1.964  1.00  0.00     0.105 A 
HETATM   32  O   UNL     1      40.995 -14.823  -3.519  1.00  0.00    -0.323 OA
HETATM   33  O   UNL     1      38.700 -15.072  -2.818  1.00  0.00    -0.323 OA
HETATM   34  C   UNL     1      38.948 -13.711  -0.812  1.00  0.00     0.040 A 
HETATM   35  C   UNL     1      39.707 -15.409  -3.796  1.00  0.00     0.352 A 
HETATM   36  C   UNL     1      39.845 -12.960  -0.047  1.00  0.00     0.012 A 
ENDBRANCH  27  28
ENDBRANCH   4  27
BRANCH  11  37
HETATM   37  C   UNL     1      39.701 -11.572   7.958  1.00  0.00     0.252 C 
HETATM   38  N   UNL     1      40.478 -10.844   8.838  1.00  0.00    -0.352 N 
HETATM   39  H   UNL     1      41.348 -10.450   8.505  1.00  0.00     0.163 HD
HETATM   40  O   UNL     1      38.779 -12.301   8.303  1.00  0.00    -0.268 OA
BRANCH  38  41
HETATM   41  C   UNL     1      40.327 -10.989  10.282  1.00  0.00     0.084 C 
HETATM   42  C   UNL     1      41.696 -11.030  10.976  1.00  0.00     0.025 C 
HETATM   43  C   UNL     1      42.403  -9.675  10.949  1.00  0.00     0.002 C 
HETATM   44  C   UNL     1      41.526  -8.574  11.536  1.00  0.00     0.000 C 
HETATM   45  C   UNL     1      40.162  -8.507  10.856  1.00  0.00     0.002 C 
HETATM   46  C   UNL     1      39.456  -9.864  10.853  1.00  0.00     0.025 C 
ENDBRANCH  38  41
ENDBRANCH  11  37
TORSDOF 7
ENDMDL
MODEL 2
REMARK VINA RESULT:     -10.0      1.722      2.285
REMARK  7 active torsions:
REMARK  status: ('A' for Active; 'I' for Inactive)
REMARK    1  A    between atoms: C_6  and  N_7 
REMARK       I    between atoms: N_7  and  C_8 
REMARK    2  A    between atoms: C_8  and  C_9 
REMARK    3  A    between atoms: C_9  and  N_10 
REMARK    4  A    between atoms: N_13  and  C_14 
REMARK    5  A    between atoms: C_14  and  C_15 
REMARK    6  A    between atoms: C_30  and  C_31 
REMARK       I    between atoms: C_31  and  N_32 
REMARK    7  A    between atoms: N_32  and  C_33 
ROOT
HETATM    1  N   UNL     1      40.712 -13.465   5.057  1.00  0.00    -0.290 N 
HETATM    2  C   UNL     1      39.928 -13.545   3.913  1.00  0.00     0.332 C 
HETATM    3  O   UNL     1      39.487 -14.636   3.536  1.00  0.00    -0.246 OA
HETATM    4  N   UNL     1      39.643 -12.360   3.259  1.00  0.00    -0.261 N 
HETATM    5  C   UNL     1      39.925 -11.097   3.759  1.00  0.00     0.264 C 
HETATM    6  O   UNL     1      39.606 -10.049   3.204  1.00  0.00    -0.267 OA
HETATM    7  C   UNL     1      40.635 -11.036   5.047  1.00  0.00     0.059 A 
HETATM    8  C   UNL     1      41.026 -12.222   5.670  1.00  0.00     0.056 A 
HETATM    9  C   UNL     1      40.918  -9.788   5.620  1.00  0.00     0.020 A 
HETATM   10  C   UNL     1      41.579  -9.716   6.842  1.00  0.00     0.018 A 
HETATM   11  C   UNL     1      41.954 -10.891   7.498  1.00  0.00     0.034 A 
HETATM   12  C   UNL     1      41.697 -12.136   6.902  1.00  0.00     0.048 A 
ENDROOT
BRANCH   1  13
HETATM   13  C   UNL     1      41.149 -14.726   5.666  1.00  0.00     0.237 C 
BRANCH  13  14
HETATM   14  C   UNL     1      42.111 -15.504   4.764  1.00  0.00     0.240 C 
HETATM   15  N   UNL     1      41.744 -16.827   4.592  1.00  0.00    -0.325 N 
HETATM   16  H   UNL     1      40.773 -17.015   4.827  1.00  0.00     0.169 HD
HETATM   17  O   UNL     1      43.029 -14.915   4.199  1.00  0.00    -0.271 OA
BRANCH  15  18
HETATM   18  C   UNL     1      42.404 -17.823   3.829  1.00  0.00     0.046 A 
HETATM   19  C   UNL     1      42.241 -17.998   2.438  1.00  0.00    -0.034 A 
HETATM   20  C   UNL     1      42.907 -19.061   1.794  1.00  0.00     0.015 A 
HETATM   21  C   UNL     1      41.433 -17.096   1.545  1.00  0.00     0.050 C 
HETATM   22  C   UNL     1      43.768 -19.916   2.482  1.00  0.00    -0.061 A 
HETATM   23  C   UNL     1      44.498 -21.008   1.760  1.00  0.00     0.048 C 
HETATM   24  C   UNL     1      43.994 -19.684   3.837  1.00  0.00     0.015 A 
HETATM   25  C   UNL     1      43.324 -18.653   4.520  1.00  0.00    -0.034 A 
HETATM   26  C   UNL     1      43.606 -18.496   5.995  1.00  0.00     0.050 C 
ENDBRANCH  15  18
ENDBRANCH  13  14
ENDBRANCH   1  13
BRANCH   4  27
HETATM   27  C   UNL     1      38.988 -12.439   1.960  1.00  0.00     0.175 C 
BRANCH  27  28
HETATM   28  C   UNL     1      39.999 -12.662   0.852  1.00  0.00    -0.037 A 
HETATM   29  C   UNL     1      39.704 -13.534  -0.210  1.00  0.00     0.048 A 
HETATM   30  C   UNL     1      40.630 -13.663  -1.223  1.00  0.00     0.105 A 
HETATM   31  C   UNL     1      41.815 -12.969  -1.215  1.00  0.00     0.105 A 
HETATM   32  O   UNL     1      40.497 -14.450  -2.326  1.00  0.00    -0.323 OA
HETATM   33  O   UNL     1      42.579 -13.231  -2.309  1.00  0.00    -0.323 OA
HETATM   34  C   UNL     1      42.143 -12.106  -0.192  1.00  0.00     0.040 A 
HETATM   35  C   UNL     1      41.731 -14.163  -3.013  1.00  0.00     0.352 A 
HETATM   36  C   UNL     1      41.222 -11.950   0.848  1.00  0.00     0.012 A 
ENDBRANCH  27  28
ENDBRANCH   4  27
BRANCH  11  37
HETATM   37  C   UNL     1      42.627 -10.778   8.821  1.00  0.00     0.252 C 
HETATM   38  N   UNL     1      41.807 -10.842   9.930  1.00  0.00    -0.352 N 
HETATM   39  H   UNL     1      40.807 -10.771   9.799  1.00  0.00     0.163 HD
HETATM   40  O   UNL     1      43.837 -10.593   8.875  1.00  0.00    -0.268 OA
BRANCH  38  41
HETATM   41  C   UNL     1      42.319 -10.569  11.269  1.00  0.00     0.084 C 
HETATM   42  C   UNL     1      42.358  -9.059  11.545  1.00  0.00     0.025 C 
HETATM   43  C   UNL     1      40.961  -8.459  11.702  1.00  0.00     0.002 C 
HETATM   44  C   UNL     1      40.155  -9.190  12.771  1.00  0.00     0.000 C 
HETATM   45  C   UNL     1      40.094 -10.692  12.514  1.00  0.00     0.002 C 
HETATM   46  C   UNL     1      41.485 -11.299  12.329  1.00  0.00     0.025 C 
ENDBRANCH  38  41
ENDBRANCH  11  37
TORSDOF 7
ENDMDL
MODEL 3
REMARK VINA RESULT:      -9.8      1.978      8.715
REMARK  7 active torsions:
REMARK  status: ('A' for Active; 'I' for Inactive)
REMARK    1  A    between atoms: C_6  and  N_7 
REMARK       I    between atoms: N_7  and  C_8 
REMARK    2  A    between atoms: C_8  and  C_9 
REMARK    3  A    between atoms: C_9  and  N_10 
REMARK    4  A    between atoms: N_13  and  C_14 
REMARK    5  A    between atoms: C_14  and  C_15 
REMARK    6  A    between atoms: C_30  and  C_31 
REMARK       I    between atoms: C_31  and  N_32 
REMARK    7  A    between atoms: N_32  and  C_33 
ROOT
HETATM    1  N   UNL     1      41.502 -13.202   3.754  1.00  0.00    -0.290 N 
HETATM    2  C   UNL     1      41.325 -13.027   5.120  1.00  0.00     0.332 C 
HETATM    3  O   UNL     1      42.225 -13.335   5.909  1.00  0.00    -0.246 OA
HETATM    4  N   UNL     1      40.131 -12.465   5.535  1.00  0.00    -0.261 N 
HETATM    5  C   UNL     1      39.188 -11.903   4.688  1.00  0.00     0.264 C 
HETATM    6  O   UNL     1      38.163 -11.344   5.070  1.00  0.00    -0.267 OA
HETATM    7  C   UNL     1      39.466 -11.976   3.244  1.00  0.00     0.059 A 
HETATM    8  C   UNL     1      40.614 -12.635   2.800  1.00  0.00     0.056 A 
HETATM    9  C   UNL     1      38.567 -11.396   2.338  1.00  0.00     0.020 A 
HETATM   10  C   UNL     1      38.823 -11.448   0.971  1.00  0.00     0.018 A 
HETATM   11  C   UNL     1      39.981 -12.076   0.506  1.00  0.00     0.034 A 
HETATM   12  C   UNL     1      40.859 -12.684   1.417  1.00  0.00     0.048 A 
ENDROOT
BRANCH   1  13
HETATM   13  C   UNL     1      42.693 -13.938   3.316  1.00  0.00     0.237 C 
BRANCH  13  14
HETATM   14  C   UNL     1      42.476 -15.453   3.327  1.00  0.00     0.240 C 
HETATM   15  N   UNL     1      43.652 -16.171   3.197  1.00  0.00    -0.325 N 
HETATM   16  H   UNL     1      44.486 -15.629   3.407  1.00  0.00     0.169 HD
HETATM   17  O   UNL     1      41.357 -15.909   3.547  1.00  0.00    -0.271 OA
BRANCH  15  18
HETATM   18  C   UNL     1      43.816 -17.578   3.167  1.00  0.00     0.046 A 
HETATM   19  C   UNL     1      44.101 -18.371   4.299  1.00  0.00    -0.034 A 
HETATM   20  C   UNL     1      44.301 -19.758   4.139  1.00  0.00     0.015 A 
HETATM   21  C   UNL     1      44.169 -17.861   5.714  1.00  0.00     0.050 C 
HETATM   22  C   UNL     1      44.170 -20.382   2.898  1.00  0.00    -0.061 A 
HETATM   23  C   UNL     1      44.341 -21.865   2.767  1.00  0.00     0.048 C 
HETATM   24  C   UNL     1      43.801 -19.609   1.800  1.00  0.00     0.015 A 
HETATM   25  C   UNL     1      43.624 -18.218   1.915  1.00  0.00    -0.034 A 
HETATM   26  C   UNL     1      43.257 -17.456   0.665  1.00  0.00     0.050 C 
ENDBRANCH  15  18
ENDBRANCH  13  14
ENDBRANCH   1  13
BRANCH   4  27
HETATM   27  C   UNL     1      39.846 -12.448   6.964  1.00  0.00     0.175 C 
BRANCH  27  28
HETATM   28  C   UNL     1      40.086 -11.071   7.552  1.00  0.00    -0.037 A 
HETATM   29  C   UNL     1      39.220 -10.558   8.532  1.00  0.00     0.048 A 
HETATM   30  C   UNL     1      39.509  -9.326   9.078  1.00  0.00     0.105 A 
HETATM   31  C   UNL     1      40.609  -8.601   8.689  1.00  0.00     0.105 A 
HETATM   32  O   UNL     1      38.787  -8.694  10.043  1.00  0.00    -0.323 OA
HETATM   33  O   UNL     1      40.717  -7.421   9.356  1.00  0.00    -0.323 OA
HETATM   34  C   UNL     1      41.482  -9.067   7.730  1.00  0.00     0.040 A 
HETATM   35  C   UNL     1      39.563  -7.492  10.220  1.00  0.00     0.352 A 
HETATM   36  C   UNL     1      41.217 -10.316   7.161  1.00  0.00     0.012 A 
ENDBRANCH  27  28
ENDBRANCH   4  27
BRANCH  11  37
HETATM   37  C   UNL     1      40.242 -12.082  -0.960  1.00  0.00     0.252 C 
HETATM   38  N   UNL     1      39.622 -13.080  -1.686  1.00  0.00    -0.352 N 
HETATM   39  H   UNL     1      39.190 -13.847  -1.187  1.00  0.00     0.163 HD
HETATM   40  O   UNL     1      41.007 -11.258  -1.445  1.00  0.00    -0.268 OA
BRANCH  38  41
HETATM   41  C   UNL     1      39.935 -13.300  -3.094  1.00  0.00     0.084 C 
HETATM   42  C   UNL     1      41.122 -14.262  -3.249  1.00  0.00     0.025 C 
HETATM   43  C   UNL     1      40.763 -15.696  -2.861  1.00  0.00     0.002 C 
HETATM   44  C   UNL     1      39.549 -16.199  -3.635  1.00  0.00     0.000 C 
HETATM   45  C   UNL     1      38.352 -15.264  -3.490  1.00  0.00     0.002 C 
HETATM   46  C   UNL     1      38.705 -13.820  -3.849  1.00  0.00     0.025 C 
ENDBRANCH  38  41
ENDBRANCH  11  37
TORSDOF 7
ENDMDL
MODEL 4
REMARK VINA RESULT:      -9.6      1.653      2.631
REMARK  7 active torsions:
REMARK  status: ('A' for Active; 'I' for Inactive)
REMARK    1  A    between atoms: C_6  and  N_7 
REMARK       I    between atoms: N_7  and  C_8 
REMARK    2  A    between atoms: C_8  and  C_9 
REMARK    3  A    between atoms: C_9  and  N_10 
REMARK    4  A    between atoms: N_13  and  C_14 
REMARK    5  A    between atoms: C_14  and  C_15 
REMARK    6  A    between atoms: C_30  and  C_31 
REMARK       I    between atoms: C_31  and  N_32 
REMARK    7  A    between atoms: N_32  and  C_33 
ROOT
HETATM    1  N   UNL     1      41.808 -13.758   4.095  1.00  0.00    -0.290 N 
HETATM    2  C   UNL     1      41.070 -14.225   3.015  1.00  0.00     0.332 C 
HETATM    3  O   UNL     1      41.397 -15.270   2.443  1.00  0.00    -0.246 OA
HETATM    4  N   UNL     1      39.954 -13.493   2.650  1.00  0.00    -0.261 N 
HETATM    5  C   UNL     1      39.422 -12.447   3.388  1.00  0.00     0.264 C 
HETATM    6  O   UNL     1      38.391 -11.849   3.092  1.00  0.00    -0.267 OA
HETATM    7  C   UNL     1      40.147 -12.061   4.610  1.00  0.00     0.059 A 
HETATM    8  C   UNL     1      41.335 -12.716   4.937  1.00  0.00     0.056 A 
HETATM    9  C   UNL     1      39.639 -11.032   5.416  1.00  0.00     0.020 A 
HETATM   10  C   UNL     1      40.308 -10.664   6.580  1.00  0.00     0.018 A 
HETATM   11  C   UNL     1      41.483 -11.326   6.942  1.00  0.00     0.034 A 
HETATM   12  C   UNL     1      42.003 -12.332   6.112  1.00  0.00     0.048 A 
ENDROOT
BRANCH   1  13
HETATM   13  C   UNL     1      43.076 -14.434   4.389  1.00  0.00     0.237 C 
BRANCH  13  14
HETATM   14  C   UNL     1      42.923 -15.956   4.445  1.00  0.00     0.240 C 
HETATM   15  N   UNL     1      43.832 -16.623   3.643  1.00  0.00    -0.325 N 
HETATM   16  H   UNL     1      44.633 -16.057   3.375  1.00  0.00     0.169 HD
HETATM   17  O   UNL     1      42.127 -16.462   5.232  1.00  0.00    -0.271 OA
BRANCH  15  18
HETATM   18  C   UNL     1      43.970 -18.021   3.457  1.00  0.00     0.046 A 
HETATM   19  C   UNL     1      44.419 -18.916   4.451  1.00  0.00    -0.034 A 
HETATM   20  C   UNL     1      44.571 -20.282   4.133  1.00  0.00     0.015 A 
HETATM   21  C   UNL     1      44.717 -18.541   5.878  1.00  0.00     0.050 C 
HETATM   22  C   UNL     1      44.236 -20.787   2.877  1.00  0.00    -0.061 A 
HETATM   23  C   UNL     1      44.364 -22.252   2.583  1.00  0.00     0.048 C 
HETATM   24  C   UNL     1      43.709 -19.915   1.927  1.00  0.00     0.015 A 
HETATM   25  C   UNL     1      43.573 -18.541   2.198  1.00  0.00    -0.034 A 
HETATM   26  C   UNL     1      43.023 -17.665   1.098  1.00  0.00     0.050 C 
ENDBRANCH  15  18
ENDBRANCH  13  14
ENDBRANCH   1  13
BRANCH   4  27
HETATM   27  C   UNL     1      39.278 -13.854   1.410  1.00  0.00     0.175 C 
BRANCH  27  28
HETATM   28  C   UNL     1      40.134 -13.514   0.204  1.00  0.00    -0.037 A 
HETATM   29  C   UNL     1      40.608 -12.204   0.019  1.00  0.00     0.048 A 
HETATM   30  C   UNL     1      41.428 -11.955  -1.060  1.00  0.00     0.105 A 
HETATM   31  C   UNL     1      41.784 -12.944  -1.944  1.00  0.00     0.105 A 
HETATM   32  O   UNL     1      41.982 -10.753  -1.376  1.00  0.00    -0.323 OA
HETATM   33  O   UNL     1      42.605 -12.490  -2.929  1.00  0.00    -0.323 OA
HETATM   34  C   UNL     1      41.339 -14.240  -1.800  1.00  0.00     0.040 A 
HETATM   35  C   UNL     1      42.734 -11.102  -2.556  1.00  0.00     0.352 A 
HETATM   36  C   UNL     1      40.509 -14.526  -0.712  1.00  0.00     0.012 A 
ENDBRANCH  27  28
ENDBRANCH   4  27
BRANCH  11  37
HETATM   37  C   UNL     1      42.154 -10.931   8.212  1.00  0.00     0.252 C 
HETATM   38  N   UNL     1      41.336 -10.423   9.202  1.00  0.00    -0.352 N 
HETATM   39  H   UNL     1      40.386 -10.170   8.964  1.00  0.00     0.163 HD
HETATM   40  O   UNL     1      43.371 -11.026   8.313  1.00  0.00    -0.268 OA
BRANCH  38  41
HETATM   41  C   UNL     1      41.890  -9.840  10.419  1.00  0.00     0.084 C 
HETATM   42  C   UNL     1      41.128  -8.567  10.815  1.00  0.00     0.025 C 
HETATM   43  C   UNL     1      39.717  -8.867  11.320  1.00  0.00     0.002 C 
HETATM   44  C   UNL     1      39.736  -9.873  12.468  1.00  0.00     0.000 C 
HETATM   45  C   UNL     1      40.480 -11.151  12.095  1.00  0.00     0.002 C 
HETATM   46  C   UNL     1      41.885 -10.862  11.563  1.00  0.00     0.025 C 
ENDBRANCH  38  41
ENDBRANCH  11  37
TORSDOF 7
ENDMDL
MODEL 5
REMARK VINA RESULT:      -9.5      1.924      2.734
REMARK  7 active torsions:
REMARK  status: ('A' for Active; 'I' for Inactive)
REMARK    1  A    between atoms: C_6  and  N_7 
REMARK       I    between atoms: N_7  and  C_8 
REMARK    2  A    between atoms: C_8  and  C_9 
REMARK    3  A    between atoms: C_9  and  N_10 
REMARK    4  A    between atoms: N_13  and  C_14 
REMARK    5  A    between atoms: C_14  and  C_15 
REMARK    6  A    between atoms: C_30  and  C_31 
REMARK       I    between atoms: C_31  and  N_32 
REMARK    7  A    between atoms: N_32  and  C_33 
ROOT
HETATM    1  N   UNL     1      40.534 -13.442   2.296  1.00  0.00    -0.290 N 
HETATM    2  C   UNL     1      40.877 -13.978   1.062  1.00  0.00     0.332 C 
HETATM    3  O   UNL     1      40.825 -15.199   0.877  1.00  0.00    -0.246 OA
HETATM    4  N   UNL     1      41.232 -13.088   0.064  1.00  0.00    -0.261 N 
HETATM    5  C   UNL     1      41.095 -11.711   0.151  1.00  0.00     0.264 C 
HETATM    6  O   UNL     1      41.348 -10.933  -0.765  1.00  0.00    -0.267 OA
HETATM    7  C   UNL     1      40.594 -11.174   1.427  1.00  0.00     0.059 A 
HETATM    8  C   UNL     1      40.331 -12.048   2.482  1.00  0.00     0.056 A 
HETATM    9  C   UNL     1      40.401  -9.791   1.564  1.00  0.00     0.020 A 
HETATM   10  C   UNL     1      39.918  -9.271   2.761  1.00  0.00     0.018 A 
HETATM   11  C   UNL     1      39.621 -10.130   3.821  1.00  0.00     0.034 A 
HETATM   12  C   UNL     1      39.847 -11.509   3.687  1.00  0.00     0.048 A 
ENDROOT
BRANCH   1  13
HETATM   13  C   UNL     1      40.309 -14.381   3.401  1.00  0.00     0.237 C 
BRANCH  13  14
HETATM   14  C   UNL     1      41.565 -15.184   3.746  1.00  0.00     0.240 C 
HETATM   15  N   UNL     1      41.423 -16.541   3.515  1.00  0.00    -0.325 N 
HETATM   16  H   UNL     1      40.650 -16.770   2.895  1.00  0.00     0.169 HD
HETATM   17  O   UNL     1      42.592 -14.599   4.081  1.00  0.00    -0.271 OA
BRANCH  15  18
HETATM   18  C   UNL     1      42.378 -17.567   3.724  1.00  0.00     0.046 A 
HETATM   19  C   UNL     1      43.201 -18.106   2.712  1.00  0.00    -0.034 A 
HETATM   20  C   UNL     1      44.077 -19.166   3.027  1.00  0.00     0.015 A 
HETATM   21  C   UNL     1      43.264 -17.606   1.294  1.00  0.00     0.050 C 
HETATM   22  C   UNL     1      44.195 -19.663   4.325  1.00  0.00    -0.061 A 
HETATM   23  C   UNL     1      45.169 -20.759   4.637  1.00  0.00     0.048 C 
HETATM   24  C   UNL     1      43.445 -19.068   5.336  1.00  0.00     0.015 A 
HETATM   25  C   UNL     1      42.538 -18.030   5.055  1.00  0.00    -0.034 A 
HETATM   26  C   UNL     1      41.744 -17.467   6.209  1.00  0.00     0.050 C 
ENDBRANCH  15  18
ENDBRANCH  13  14
ENDBRANCH   1  13
BRANCH   4  27
HETATM   27  C   UNL     1      41.777 -13.633  -1.173  1.00  0.00     0.175 C 
BRANCH  27  28
HETATM   28  C   UNL     1      40.679 -14.213  -2.044  1.00  0.00    -0.037 A 
HETATM   29  C   UNL     1      39.486 -13.498  -2.248  1.00  0.00     0.048 A 
HETATM   30  C   UNL     1      38.539 -14.038  -3.091  1.00  0.00     0.105 A 
HETATM   31  C   UNL     1      38.735 -15.241  -3.726  1.00  0.00     0.105 A 
HETATM   32  O   UNL     1      37.342 -13.474  -3.408  1.00  0.00    -0.323 OA
HETATM   33  O   UNL     1      37.686 -15.587  -4.519  1.00  0.00    -0.323 OA
HETATM   34  C   UNL     1      39.889 -15.973  -3.551  1.00  0.00     0.040 A 
HETATM   35  C   UNL     1      36.812 -14.456  -4.319  1.00  0.00     0.352 A 
HETATM   36  C   UNL     1      40.870 -15.449  -2.704  1.00  0.00     0.012 A 
ENDBRANCH  27  28
ENDBRANCH   4  27
BRANCH  11  37
HETATM   37  C   UNL     1      39.071  -9.543   5.074  1.00  0.00     0.252 C 
HETATM   38  N   UNL     1      39.961  -9.393   6.120  1.00  0.00    -0.352 N 
HETATM   39  H   UNL     1      40.863  -9.847   6.058  1.00  0.00     0.163 HD
HETATM   40  O   UNL     1      37.879  -9.267   5.146  1.00  0.00    -0.268 OA
BRANCH  38  41
HETATM   41  C   UNL     1      39.510  -8.997   7.449  1.00  0.00     0.084 C 
HETATM   42  C   UNL     1      38.941 -10.198   8.217  1.00  0.00     0.025 C 
HETATM   43  C   UNL     1      40.025 -11.195   8.625  1.00  0.00     0.002 C 
HETATM   44  C   UNL     1      41.139 -10.517   9.418  1.00  0.00     0.000 C 
HETATM   45  C   UNL     1      41.727  -9.325   8.671  1.00  0.00     0.002 C 
HETATM   46  C   UNL     1      40.648  -8.333   8.234  1.00  0.00     0.025 C 
ENDBRANCH  38  41
ENDBRANCH  11  37
TORSDOF 7
ENDMDL
MODEL 6
REMARK VINA RESULT:      -9.4      2.239      8.658
REMARK  7 active torsions:
REMARK  status: ('A' for Active; 'I' for Inactive)
REMARK    1  A    between atoms: C_6  and  N_7 
REMARK       I    between atoms: N_7  and  C_8 
REMARK    2  A    between atoms: C_8  and  C_9 
REMARK    3  A    between atoms: C_9  and  N_10 
REMARK    4  A    between atoms: N_13  and  C_14 
REMARK    5  A    between atoms: C_14  and  C_15 
REMARK    6  A    between atoms: C_30  and  C_31 
REMARK       I    between atoms: C_31  and  N_32 
REMARK    7  A    between atoms: N_32  and  C_33 
ROOT
HETATM    1  N   UNL     1      39.750 -12.554   4.921  1.00  0.00    -0.290 N 
HETATM    2  C   UNL     1      39.613 -12.078   6.219  1.00  0.00     0.332 C 
HETATM    3  O   UNL     1      39.442 -12.866   7.156  1.00  0.00    -0.246 OA
HETATM    4  N   UNL     1      39.716 -10.711   6.404  1.00  0.00    -0.261 N 
HETATM    5  C   UNL     1      40.124  -9.813   5.429  1.00  0.00     0.264 C 
HETATM    6  O   UNL     1      40.280  -8.610   5.622  1.00  0.00    -0.267 OA
HETATM    7  C   UNL     1      40.401 -10.364   4.093  1.00  0.00     0.059 A 
HETATM    8  C   UNL     1      40.199 -11.725   3.858  1.00  0.00     0.056 A 
HETATM    9  C   UNL     1      40.850  -9.511   3.075  1.00  0.00     0.020 A 
HETATM   10  C   UNL     1      41.126 -10.021   1.809  1.00  0.00     0.018 A 
HETATM   11  C   UNL     1      40.959 -11.385   1.560  1.00  0.00     0.034 A 
HETATM   12  C   UNL     1      40.478 -12.227   2.575  1.00  0.00     0.048 A 
ENDROOT
BRANCH   1  13
HETATM   13  C   UNL     1      39.487 -13.979   4.693  1.00  0.00     0.237 C 
BRANCH  13  14
HETATM   14  C   UNL     1      40.774 -14.801   4.604  1.00  0.00     0.240 C 
HETATM   15  N   UNL     1      40.586 -16.044   4.025  1.00  0.00    -0.325 N 
HETATM   16  H   UNL     1      39.725 -16.119   3.490  1.00  0.00     0.169 HD
HETATM   17  O   UNL     1      41.846 -14.297   4.931  1.00  0.00    -0.271 OA
BRANCH  15  18
HETATM   18  C   UNL     1      41.554 -17.053   3.791  1.00  0.00     0.046 A 
HETATM   19  C   UNL     1      42.274 -17.717   4.807  1.00  0.00    -0.034 A 
HETATM   20  C   UNL     1      43.255 -18.665   4.450  1.00  0.00     0.015 A 
HETATM   21  C   UNL     1      42.050 -17.531   6.283  1.00  0.00     0.050 C 
HETATM   22  C   UNL     1      43.499 -19.009   3.121  1.00  0.00    -0.061 A 
HETATM   23  C   UNL     1      44.515 -20.055   2.776  1.00  0.00     0.048 C 
HETATM   24  C   UNL     1      42.723 -18.415   2.127  1.00  0.00     0.015 A 
HETATM   25  C   UNL     1      41.757 -17.442   2.442  1.00  0.00    -0.034 A 
HETATM   26  C   UNL     1      40.987 -16.830   1.297  1.00  0.00     0.050 C 
ENDBRANCH  15  18
ENDBRANCH  13  14
ENDBRANCH   1  13
BRANCH   4  27
HETATM   27  C   UNL     1      39.387 -10.174   7.718  1.00  0.00     0.175 C 
BRANCH  27  28
HETATM   28  C   UNL     1      40.474 -10.496   8.726  1.00  0.00    -0.037 A 
HETATM   29  C   UNL     1      41.828 -10.383   8.367  1.00  0.00     0.048 A 
HETATM   30  C   UNL     1      42.781 -10.630   9.332  1.00  0.00     0.105 A 
HETATM   31  C   UNL     1      42.439 -10.980  10.616  1.00  0.00     0.105 A 
HETATM   32  O   UNL     1      44.128 -10.553   9.157  1.00  0.00    -0.323 OA
HETATM   33  O   UNL     1      43.526 -11.169  11.410  1.00  0.00    -0.323 OA
HETATM   34  C   UNL     1      41.123 -11.104  11.007  1.00  0.00     0.040 A 
HETATM   35  C   UNL     1      44.593 -10.887  10.480  1.00  0.00     0.352 A 
HETATM   36  C   UNL     1      40.134 -10.854  10.052  1.00  0.00     0.012 A 
ENDBRANCH  27  28
ENDBRANCH   4  27
BRANCH  11  37
HETATM   37  C   UNL     1      41.299 -11.902   0.206  1.00  0.00     0.252 C 
HETATM   38  N   UNL     1      40.245 -12.385  -0.545  1.00  0.00    -0.352 N 
HETATM   39  H   UNL     1      39.354 -12.539  -0.089  1.00  0.00     0.163 HD
HETATM   40  O   UNL     1      42.467 -11.923  -0.164  1.00  0.00    -0.268 OA
BRANCH  38  41
HETATM   41  C   UNL     1      40.468 -13.078  -1.810  1.00  0.00     0.084 C 
HETATM   42  C   UNL     1      39.623 -14.357  -1.892  1.00  0.00     0.025 C 
HETATM   43  C   UNL     1      38.131 -14.060  -2.048  1.00  0.00     0.002 C 
HETATM   44  C   UNL     1      37.863 -13.149  -3.242  1.00  0.00     0.000 C 
HETATM   45  C   UNL     1      38.686 -11.866  -3.178  1.00  0.00     0.002 C 
HETATM   46  C   UNL     1      40.178 -12.150  -2.996  1.00  0.00     0.025 C 
ENDBRANCH  38  41
ENDBRANCH  11  37
TORSDOF 7
ENDMDL
MODEL 7
REMARK VINA RESULT:      -9.2      1.980      3.021
REMARK  7 active torsions:
REMARK  status: ('A' for Active; 'I' for Inactive)
REMARK    1  A    between atoms: C_6  and  N_7 
REMARK       I    between atoms: N_7  and  C_8 
REMARK    2  A    between atoms: C_8  and  C_9 
REMARK    3  A    between atoms: C_9  and  N_10 
REMARK    4  A    between atoms: N_13  and  C_14 
REMARK    5  A    between atoms: C_14  and  C_15 
REMARK    6  A    between atoms: C_30  and  C_31 
REMARK       I    between atoms: C_31  and  N_32 
REMARK    7  A    between atoms: N_32  and  C_33 
ROOT
HETATM    1  N   UNL     1      40.401 -13.217   5.152  1.00  0.00    -0.290 N 
HETATM    2  C   UNL     1      39.702 -13.560   4.002  1.00  0.00     0.332 C 
HETATM    3  O   UNL     1      39.400 -14.738   3.785  1.00  0.00    -0.246 OA
HETATM    4  N   UNL     1      39.338 -12.528   3.154  1.00  0.00    -0.261 N 
HETATM    5  C   UNL     1      39.457 -11.181   3.457  1.00  0.00     0.264 C 
HETATM    6  O   UNL     1      39.067 -10.273   2.727  1.00  0.00    -0.267 OA
HETATM    7  C   UNL     1      40.075 -10.843   4.749  1.00  0.00     0.059 A 
HETATM    8  C   UNL     1      40.546 -11.867   5.572  1.00  0.00     0.056 A 
HETATM    9  C   UNL     1      40.192  -9.497   5.127  1.00  0.00     0.020 A 
HETATM   10  C   UNL     1      40.764  -9.164   6.351  1.00  0.00     0.018 A 
HETATM   11  C   UNL     1      41.216 -10.174   7.203  1.00  0.00     0.034 A 
HETATM   12  C   UNL     1      41.126 -11.517   6.803  1.00  0.00     0.048 A 
ENDROOT
BRANCH   1  13
HETATM   13  C   UNL     1      40.926 -14.312   5.974  1.00  0.00     0.237 C 
BRANCH  13  14
HETATM   14  C   UNL     1      41.997 -15.126   5.243  1.00  0.00     0.240 C 
HETATM   15  N   UNL     1      41.684 -16.470   5.144  1.00  0.00    -0.325 N 
HETATM   16  H   UNL     1      40.699 -16.672   5.294  1.00  0.00     0.169 HD
HETATM   17  O   UNL     1      42.953 -14.553   4.728  1.00  0.00    -0.271 OA
BRANCH  15  18
HETATM   18  C   UNL     1      42.445 -17.500   4.538  1.00  0.00     0.046 A 
HETATM   19  C   UNL     1      43.381 -18.306   5.221  1.00  0.00    -0.034 A 
HETATM   20  C   UNL     1      44.124 -19.264   4.500  1.00  0.00     0.015 A 
HETATM   21  C   UNL     1      43.634 -18.265   6.704  1.00  0.00     0.050 C 
HETATM   22  C   UNL     1      43.921 -19.479   3.137  1.00  0.00    -0.061 A 
HETATM   23  C   UNL     1      44.692 -20.538   2.407  1.00  0.00     0.048 C 
HETATM   24  C   UNL     1      42.934 -18.742   2.486  1.00  0.00     0.015 A 
HETATM   25  C   UNL     1      42.195 -17.756   3.165  1.00  0.00    -0.034 A 
HETATM   26  C   UNL     1      41.169 -16.985   2.371  1.00  0.00     0.050 C 
ENDBRANCH  15  18
ENDBRANCH  13  14
ENDBRANCH   1  13
BRANCH   4  27
HETATM   27  C   UNL     1      38.777 -12.880   1.855  1.00  0.00     0.175 C 
BRANCH  27  28
HETATM   28  C   UNL     1      39.863 -12.983   0.802  1.00  0.00    -0.037 A 
HETATM   29  C   UNL     1      39.617 -13.661  -0.404  1.00  0.00     0.048 A 
HETATM   30  C   UNL     1      40.615 -13.681  -1.356  1.00  0.00     0.105 A 
HETATM   31  C   UNL     1      41.824 -13.063  -1.151  1.00  0.00     0.105 A 
HETATM   32  O   UNL     1      40.537 -14.277  -2.576  1.00  0.00    -0.323 OA
HETATM   33  O   UNL     1      42.662 -13.194  -2.215  1.00  0.00    -0.323 OA
HETATM   34  C   UNL     1      42.106 -12.391   0.018  1.00  0.00     0.040 A 
HETATM   35  C   UNL     1      41.834 -13.956  -3.118  1.00  0.00     0.352 A 
HETATM   36  C   UNL     1      41.112 -12.348   1.000  1.00  0.00     0.012 A 
ENDBRANCH  27  28
ENDBRANCH   4  27
BRANCH  11  37
HETATM   37  C   UNL     1      41.790  -9.784   8.520  1.00  0.00     0.252 C 
HETATM   38  N   UNL     1      42.727 -10.645   9.057  1.00  0.00    -0.352 N 
HETATM   39  H   UNL     1      42.838 -11.561   8.643  1.00  0.00     0.163 HD
HETATM   40  O   UNL     1      41.390  -8.772   9.083  1.00  0.00    -0.268 OA
BRANCH  38  41
HETATM   41  C   UNL     1      43.231 -10.468  10.415  1.00  0.00     0.084 C 
HETATM   42  C   UNL     1      43.176 -11.787  11.197  1.00  0.00     0.025 C 
HETATM   43  C   UNL     1      44.203 -12.804  10.698  1.00  0.00     0.002 C 
HETATM   44  C   UNL     1      45.613 -12.223  10.703  1.00  0.00     0.000 C 
HETATM   45  C   UNL     1      45.696 -10.915   9.923  1.00  0.00     0.002 C 
HETATM   46  C   UNL     1      44.655  -9.899  10.396  1.00  0.00     0.025 C 
ENDBRANCH  38  41
ENDBRANCH  11  37
TORSDOF 7
ENDMDL
MODEL 8
REMARK VINA RESULT:      -9.0      2.768      3.924
REMARK  7 active torsions:
REMARK  status: ('A' for Active; 'I' for Inactive)
REMARK    1  A    between atoms: C_6  and  N_7 
REMARK       I    between atoms: N_7  and  C_8 
REMARK    2  A    between atoms: C_8  and  C_9 
REMARK    3  A    between atoms: C_9  and  N_10 
REMARK    4  A    between atoms: N_13  and  C_14 
REMARK    5  A    between atoms: C_14  and  C_15 
REMARK    6  A    between atoms: C_30  and  C_31 
REMARK       I    between atoms: C_31  and  N_32 
REMARK    7  A    between atoms: N_32  and  C_33 
ROOT
HETATM    1  N   UNL     1      39.696 -12.361   5.443  1.00  0.00    -0.290 N 
HETATM    2  C   UNL     1      39.555 -12.282   4.063  1.00  0.00     0.332 C 
HETATM    3  O   UNL     1      39.271 -13.289   3.407  1.00  0.00    -0.246 OA
HETATM    4  N   UNL     1      39.708 -11.034   3.485  1.00  0.00    -0.261 N 
HETATM    5  C   UNL     1      39.807  -9.845   4.191  1.00  0.00     0.264 C 
HETATM    6  O   UNL     1      39.872  -8.736   3.668  1.00  0.00    -0.267 OA
HETATM    7  C   UNL     1      39.812  -9.944   5.660  1.00  0.00     0.059 A 
HETATM    8  C   UNL     1      39.767 -11.203   6.261  1.00  0.00     0.056 A 
HETATM    9  C   UNL     1      39.876  -8.773   6.430  1.00  0.00     0.020 A 
HETATM   10  C   UNL     1      39.871  -8.852   7.819  1.00  0.00     0.018 A 
HETATM   11  C   UNL     1      39.797 -10.099   8.443  1.00  0.00     0.034 A 
HETATM   12  C   UNL     1      39.767 -11.268   7.665  1.00  0.00     0.048 A 
ENDROOT
BRANCH   1  13
HETATM   13  C   UNL     1      39.693 -13.699   6.045  1.00  0.00     0.237 C 
BRANCH  13  14
HETATM   14  C   UNL     1      40.914 -14.524   5.635  1.00  0.00     0.240 C 
HETATM   15  N   UNL     1      40.583 -15.756   5.099  1.00  0.00    -0.325 N 
HETATM   16  H   UNL     1      39.617 -15.819   4.787  1.00  0.00     0.169 HD
HETATM   17  O   UNL     1      42.037 -14.029   5.701  1.00  0.00    -0.271 OA
BRANCH  15  18
HETATM   18  C   UNL     1      41.457 -16.764   4.623  1.00  0.00     0.046 A 
HETATM   19  C   UNL     1      42.318 -17.524   5.443  1.00  0.00    -0.034 A 
HETATM   20  C   UNL     1      43.188 -18.463   4.849  1.00  0.00     0.015 A 
HETATM   21  C   UNL     1      42.362 -17.454   6.945  1.00  0.00     0.050 C 
HETATM   22  C   UNL     1      43.183 -18.704   3.475  1.00  0.00    -0.061 A 
HETATM   23  C   UNL     1      44.086 -19.742   2.879  1.00  0.00     0.048 C 
HETATM   24  C   UNL     1      42.269 -18.014   2.681  1.00  0.00     0.015 A 
HETATM   25  C   UNL     1      41.409 -17.048   3.233  1.00  0.00    -0.034 A 
HETATM   26  C   UNL     1      40.474 -16.328   2.292  1.00  0.00     0.050 C 
ENDBRANCH  15  18
ENDBRANCH  13  14
ENDBRANCH   1  13
BRANCH   4  27
HETATM   27  C   UNL     1      39.754 -10.958   2.030  1.00  0.00     0.175 C 
BRANCH  27  28
HETATM   28  C   UNL     1      38.365 -11.078   1.433  1.00  0.00    -0.037 A 
HETATM   29  C   UNL     1      37.282 -10.403   2.021  1.00  0.00     0.048 A 
HETATM   30  C   UNL     1      36.049 -10.495   1.412  1.00  0.00     0.105 A 
HETATM   31  C   UNL     1      35.861 -11.223   0.262  1.00  0.00     0.105 A 
HETATM   32  O   UNL     1      34.905  -9.895   1.839  1.00  0.00    -0.323 OA
HETATM   33  O   UNL     1      34.575 -11.175  -0.179  1.00  0.00    -0.323 OA
HETATM   34  C   UNL     1      36.896 -11.901  -0.344  1.00  0.00     0.040 A 
HETATM   35  C   UNL     1      33.978 -10.323   0.821  1.00  0.00     0.352 A 
HETATM   36  C   UNL     1      38.160 -11.823   0.247  1.00  0.00     0.012 A 
ENDBRANCH  27  28
ENDBRANCH   4  27
BRANCH  11  37
HETATM   37  C   UNL     1      39.757 -10.145   9.930  1.00  0.00     0.252 C 
HETATM   38  N   UNL     1      40.950 -10.430  10.564  1.00  0.00    -0.352 N 
HETATM   39  H   UNL     1      41.725 -10.772  10.011  1.00  0.00     0.163 HD
HETATM   40  O   UNL     1      38.694  -9.978  10.516  1.00  0.00    -0.268 OA
BRANCH  38  41
HETATM   41  C   UNL     1      41.006 -10.676  12.002  1.00  0.00     0.084 C 
HETATM   42  C   UNL     1      42.238 -11.515  12.368  1.00  0.00     0.025 C 
HETATM   43  C   UNL     1      43.542 -10.732  12.214  1.00  0.00     0.002 C 
HETATM   44  C   UNL     1      43.512  -9.431  13.008  1.00  0.00     0.000 C 
HETATM   45  C   UNL     1      42.300  -8.574  12.655  1.00  0.00     0.002 C 
HETATM   46  C   UNL     1      40.990  -9.354  12.780  1.00  0.00     0.025 C 
ENDBRANCH  38  41
ENDBRANCH  11  37
TORSDOF 7
ENDMDL
MODEL 9
REMARK VINA RESULT:      -9.0      2.518      3.109
REMARK  7 active torsions:
REMARK  status: ('A' for Active; 'I' for Inactive)
REMARK    1  A    between atoms: C_6  and  N_7 
REMARK       I    between atoms: N_7  and  C_8 
REMARK    2  A    between atoms: C_8  and  C_9 
REMARK    3  A    between atoms: C_9  and  N_10 
REMARK    4  A    between atoms: N_13  and  C_14 
REMARK    5  A    between atoms: C_14  and  C_15 
REMARK    6  A    between atoms: C_30  and  C_31 
REMARK       I    between atoms: C_31  and  N_32 
REMARK    7  A    between atoms: N_32  and  C_33 
ROOT
HETATM    1  N   UNL     1      40.370 -14.246   1.326  1.00  0.00    -0.290 N 
HETATM    2  C   UNL     1      40.843 -14.283   0.021  1.00  0.00     0.332 C 
HETATM    3  O   UNL     1      40.481 -15.180  -0.747  1.00  0.00    -0.246 OA
HETATM    4  N   UNL     1      41.689 -13.261  -0.373  1.00  0.00    -0.261 N 
HETATM    5  C   UNL     1      41.948 -12.122   0.373  1.00  0.00     0.264 C 
HETATM    6  O   UNL     1      42.646 -11.188  -0.015  1.00  0.00    -0.267 OA
HETATM    7  C   UNL     1      41.320 -12.041   1.702  1.00  0.00     0.059 A 
HETATM    8  C   UNL     1      40.549 -13.110   2.161  1.00  0.00     0.056 A 
HETATM    9  C   UNL     1      41.517 -10.897   2.489  1.00  0.00     0.020 A 
HETATM   10  C   UNL     1      40.920 -10.803   3.743  1.00  0.00     0.018 A 
HETATM   11  C   UNL     1      40.121 -11.849   4.210  1.00  0.00     0.034 A 
HETATM   12  C   UNL     1      39.955 -13.004   3.430  1.00  0.00     0.048 A 
ENDROOT
BRANCH   1  13
HETATM   13  C   UNL     1      39.603 -15.403   1.799  1.00  0.00     0.237 C 
BRANCH  13  14
HETATM   14  C   UNL     1      40.469 -16.657   1.940  1.00  0.00     0.240 C 
HETATM   15  N   UNL     1      41.442 -16.538   2.916  1.00  0.00    -0.325 N 
HETATM   16  H   UNL     1      41.265 -15.789   3.580  1.00  0.00     0.169 HD
HETATM   17  O   UNL     1      40.194 -17.665   1.294  1.00  0.00    -0.271 OA
BRANCH  15  18
HETATM   18  C   UNL     1      42.410 -17.498   3.306  1.00  0.00     0.046 A 
HETATM   19  C   UNL     1      43.436 -17.981   2.465  1.00  0.00    -0.034 A 
HETATM   20  C   UNL     1      44.307 -18.980   2.945  1.00  0.00     0.015 A 
HETATM   21  C   UNL     1      43.721 -17.477   1.076  1.00  0.00     0.050 C 
HETATM   22  C   UNL     1      44.221 -19.469   4.248  1.00  0.00    -0.061 A 
HETATM   23  C   UNL     1      45.193 -20.498   4.744  1.00  0.00     0.048 C 
HETATM   24  C   UNL     1      43.264 -18.926   5.101  1.00  0.00     0.015 A 
HETATM   25  C   UNL     1      42.356 -17.950   4.650  1.00  0.00    -0.034 A 
HETATM   26  C   UNL     1      41.332 -17.442   5.635  1.00  0.00     0.050 C 
ENDBRANCH  15  18
ENDBRANCH  13  14
ENDBRANCH   1  13
BRANCH   4  27
HETATM   27  C   UNL     1      42.346 -13.381  -1.669  1.00  0.00     0.175 C 
BRANCH  27  28
HETATM   28  C   UNL     1      41.675 -12.498  -2.703  1.00  0.00    -0.037 A 
HETATM   29  C   UNL     1      42.448 -11.670  -3.536  1.00  0.00     0.048 A 
HETATM   30  C   UNL     1      41.800 -10.928  -4.499  1.00  0.00     0.105 A 
HETATM   31  C   UNL     1      40.436 -10.979  -4.659  1.00  0.00     0.105 A 
HETATM   32  O   UNL     1      42.396 -10.091  -5.391  1.00  0.00    -0.323 OA
HETATM   33  O   UNL     1      40.001 -10.180  -5.669  1.00  0.00    -0.323 OA
HETATM   34  C   UNL     1      39.643 -11.776  -3.863  1.00  0.00     0.040 A 
HETATM   35  C   UNL     1      41.250  -9.628  -6.135  1.00  0.00     0.352 A 
HETATM   36  C   UNL     1      40.272 -12.545  -2.879  1.00  0.00     0.012 A 
ENDBRANCH  27  28
ENDBRANCH   4  27
BRANCH  11  37
HETATM   37  C   UNL     1      39.468 -11.700   5.540  1.00  0.00     0.252 C 
HETATM   38  N   UNL     1      39.964 -10.701   6.355  1.00  0.00    -0.352 N 
HETATM   39  H   UNL     1      40.838 -10.259   6.103  1.00  0.00     0.163 HD
HETATM   40  O   UNL     1      38.575 -12.471   5.871  1.00  0.00    -0.268 OA
BRANCH  38  41
HETATM   41  C   UNL     1      39.531 -10.568   7.742  1.00  0.00     0.084 C 
HETATM   42  C   UNL     1      40.718 -10.712   8.704  1.00  0.00     0.025 C 
HETATM   43  C   UNL     1      41.668  -9.515   8.640  1.00  0.00     0.002 C 
HETATM   44  C   UNL     1      40.929  -8.201   8.875  1.00  0.00     0.000 C 
HETATM   45  C   UNL     1      39.749  -8.031   7.924  1.00  0.00     0.002 C 
HETATM   46  C   UNL     1      38.806  -9.235   7.960  1.00  0.00     0.025 C 
ENDBRANCH  38  41
ENDBRANCH  11  37
TORSDOF 7
ENDMDL
MODEL 10
REMARK VINA RESULT:      -9.0      2.600      8.569
REMARK  7 active torsions:
REMARK  status: ('A' for Active; 'I' for Inactive)
REMARK    1  A    between atoms: C_6  and  N_7 
REMARK       I    between atoms: N_7  and  C_8 
REMARK    2  A    between atoms: C_8  and  C_9 
REMARK    3  A    between atoms: C_9  and  N_10 
REMARK    4  A    between atoms: N_13  and  C_14 
REMARK    5  A    between atoms: C_14  and  C_15 
REMARK    6  A    between atoms: C_30  and  C_31 
REMARK       I    between atoms: C_31  and  N_32 
REMARK    7  A    between atoms: N_32  and  C_33 
ROOT
HETATM    1  N   UNL     1      39.442 -12.118   5.605  1.00  0.00    -0.290 N 
HETATM    2  C   UNL     1      39.466 -11.811   6.959  1.00  0.00     0.332 C 
HETATM    3  O   UNL     1      39.431 -12.714   7.802  1.00  0.00    -0.246 OA
HETATM    4  N   UNL     1      39.570 -10.475   7.302  1.00  0.00    -0.261 N 
HETATM    5  C   UNL     1      39.833  -9.450   6.406  1.00  0.00     0.264 C 
HETATM    6  O   UNL     1      39.993  -8.276   6.729  1.00  0.00    -0.267 OA
HETATM    7  C   UNL     1      39.944  -9.822   4.986  1.00  0.00     0.059 A 
HETATM    8  C   UNL     1      39.735 -11.149   4.608  1.00  0.00     0.056 A 
HETATM    9  C   UNL     1      40.243  -8.835   4.036  1.00  0.00     0.020 A 
HETATM   10  C   UNL     1      40.361  -9.174   2.691  1.00  0.00     0.018 A 
HETATM   11  C   UNL     1      40.185 -10.501   2.294  1.00  0.00     0.034 A 
HETATM   12  C   UNL     1      39.853 -11.478   3.246  1.00  0.00     0.048 A 
ENDROOT
BRANCH   1  13
HETATM   13  C   UNL     1      39.174 -13.511   5.232  1.00  0.00     0.237 C 
BRANCH  13  14
HETATM   14  C   UNL     1      40.459 -14.327   5.071  1.00  0.00     0.240 C 
HETATM   15  N   UNL     1      40.236 -15.599   4.575  1.00  0.00    -0.325 N 
HETATM   16  H   UNL     1      39.331 -15.709   4.123  1.00  0.00     0.169 HD
HETATM   17  O   UNL     1      41.548 -13.797   5.275  1.00  0.00    -0.271 OA
BRANCH  15  18
HETATM   18  C   UNL     1      41.191 -16.611   4.307  1.00  0.00     0.046 A 
HETATM   19  C   UNL     1      41.971 -17.250   5.294  1.00  0.00    -0.034 A 
HETATM   20  C   UNL     1      42.933 -18.204   4.902  1.00  0.00     0.015 A 
HETATM   21  C   UNL     1      41.834 -17.033   6.777  1.00  0.00     0.050 C 
HETATM   22  C   UNL     1      43.100 -18.578   3.569  1.00  0.00    -0.061 A 
HETATM   23  C   UNL     1      44.098 -19.630   3.189  1.00  0.00     0.048 C 
HETATM   24  C   UNL     1      42.266 -18.008   2.609  1.00  0.00     0.015 A 
HETATM   25  C   UNL     1      41.317 -17.030   2.958  1.00  0.00    -0.034 A 
HETATM   26  C   UNL     1      40.479 -16.445   1.847  1.00  0.00     0.050 C 
ENDBRANCH  15  18
ENDBRANCH  13  14
ENDBRANCH   1  13
BRANCH   4  27
HETATM   27  C   UNL     1      39.405 -10.117   8.705  1.00  0.00     0.175 C 
BRANCH  27  28
HETATM   28  C   UNL     1      40.640 -10.477   9.508  1.00  0.00    -0.037 A 
HETATM   29  C   UNL     1      41.916 -10.382   8.926  1.00  0.00     0.048 A 
HETATM   30  C   UNL     1      43.013 -10.665   9.711  1.00  0.00     0.105 A 
HETATM   31  C   UNL     1      42.887 -11.033  11.028  1.00  0.00     0.105 A 
HETATM   32  O   UNL     1      44.312 -10.610   9.310  1.00  0.00    -0.323 OA
HETATM   33  O   UNL     1      44.089 -11.257  11.623  1.00  0.00    -0.323 OA
HETATM   34  C   UNL     1      41.655 -11.139  11.636  1.00  0.00     0.040 A 
HETATM   35  C   UNL     1      44.988 -10.977  10.530  1.00  0.00     0.352 A 
HETATM   36  C   UNL     1      40.523 -10.854  10.867  1.00  0.00     0.012 A 
ENDBRANCH  27  28
ENDBRANCH   4  27
BRANCH  11  37
HETATM   37  C   UNL     1      40.354 -10.835   0.853  1.00  0.00     0.252 C 
HETATM   38  N   UNL     1      41.548 -10.454   0.274  1.00  0.00    -0.352 N 
HETATM   39  H   UNL     1      42.153  -9.820   0.780  1.00  0.00     0.163 HD
HETATM   40  O   UNL     1      39.441 -11.377   0.242  1.00  0.00    -0.268 OA
BRANCH  38  41
HETATM   41  C   UNL     1      41.764 -10.565  -1.165  1.00  0.00     0.084 C 
HETATM   42  C   UNL     1      41.136  -9.377  -1.908  1.00  0.00     0.025 C 
HETATM   43  C   UNL     1      41.889  -8.071  -1.659  1.00  0.00     0.002 C 
HETATM   44  C   UNL     1      43.371  -8.206  -1.997  1.00  0.00     0.000 C 
HETATM   45  C   UNL     1      44.020  -9.375  -1.263  1.00  0.00     0.002 C 
HETATM   46  C   UNL     1      43.259 -10.683  -1.483  1.00  0.00     0.025 C 
ENDBRANCH  38  41
ENDBRANCH  11  37
TORSDOF 7
ENDMDL
