MODEL 1
REMARK VINA RESULT:      -8.9      0.000      0.000
REMARK  6 active torsions:
REMARK  status: ('A' for Active; 'I' for Inactive)
REMARK    1  A    between atoms: C_4  and  C_5 
REMARK    2  A    between atoms: C_5  and  N_6 
REMARK    3  A    between atoms: C_5  and  C_20 
REMARK       I    between atoms: N_6  and  C_7 
REMARK    4  A    between atoms: C_7  and  C_8 
REMARK    5  A    between atoms: C_8  and  N_9 
REMARK    6  A    between atoms: C_21  and  O_22 
ROOT
HETATM    1  C   UNL     1      42.513 -16.979   4.499  1.00  0.00     0.154 C 
ENDROOT
BRANCH   1   2
HETATM    2  C   UNL     1      43.259 -15.951   5.354  1.00  0.00    -0.031 A 
HETATM    3  C   UNL     1      43.636 -14.735   4.744  1.00  0.00     0.009 A 
HETATM    4  C   UNL     1      44.318 -13.745   5.454  1.00  0.00     0.001 A 
HETATM    5  C   UNL     1      44.638 -13.948   6.793  1.00  0.00     0.000 A 
HETATM    6  C   UNL     1      44.278 -15.139   7.416  1.00  0.00     0.001 A 
HETATM    7  C   UNL     1      43.600 -16.134   6.704  1.00  0.00     0.009 A 
ENDBRANCH   1   2
BRANCH   1   8
HETATM    8  N   UNL     1      41.717 -16.445   3.410  1.00  0.00    -0.347 N 
HETATM    9  C   UNL     1      40.600 -15.671   3.653  1.00  0.00     0.236 C 
HETATM   10  O   UNL     1      40.222 -15.375   4.787  1.00  0.00    -0.272 OA
HETATM   11  H   UNL     1      42.145 -16.348   2.491  1.00  0.00     0.163 HD
BRANCH   9  12
HETATM   12  C   UNL     1      39.842 -15.255   2.389  1.00  0.00     0.236 C 
BRANCH  12  13
HETATM   13  N   UNL     1      40.720 -15.030   1.268  1.00  0.00    -0.289 N 
HETATM   14  C   UNL     1      41.199 -16.048   0.420  1.00  0.00     0.328 A 
HETATM   15  O   UNL     1      41.077 -17.251   0.587  1.00  0.00    -0.247 OA
HETATM   16  N   UNL     1      41.822 -15.420  -0.661  1.00  0.00    -0.306 N 
HETATM   17  C   UNL     1      41.660 -14.044  -0.535  1.00  0.00     0.063 A 
HETATM   18  H   UNL     1      42.245 -15.910  -1.433  1.00  0.00     0.171 HD
HETATM   19  C   UNL     1      40.968 -13.793   0.653  1.00  0.00     0.066 A 
HETATM   20  C   UNL     1      42.037 -13.048  -1.405  1.00  0.00     0.032 A 
HETATM   21  C   UNL     1      40.619 -12.510   1.015  1.00  0.00     0.032 A 
HETATM   22  C   UNL     1      40.984 -11.476   0.143  1.00  0.00     0.002 A 
HETATM   23  C   UNL     1      41.686 -11.741  -1.053  1.00  0.00     0.002 A 
ENDBRANCH  12  13
ENDBRANCH   9  12
ENDBRANCH   1   8
BRANCH   1  24
HETATM   24  C   UNL     1      43.405 -18.129   4.010  1.00  0.00     0.013 C 
HETATM   25  C   UNL     1      43.929 -18.061   2.704  1.00  0.00     0.075 C 
HETATM   26  C   UNL     1      44.589 -19.131   2.117  1.00  0.00     0.038 C 
HETATM   27  C   UNL     1      44.806 -20.287   2.856  1.00  0.00     0.015 C 
HETATM   28  C   UNL     1      44.403 -20.367   4.194  1.00  0.00    -0.025 A 
HETATM   29  C   UNL     1      43.707 -19.284   4.799  1.00  0.00    -0.015 A 
HETATM   30  C   UNL     1      44.704 -21.523   4.934  1.00  0.00     0.012 A 
HETATM   31  C   UNL     1      43.383 -19.428   6.169  1.00  0.00     0.013 A 
HETATM   32  C   UNL     1      43.701 -20.577   6.898  1.00  0.00     0.001 A 
HETATM   33  C   UNL     1      44.356 -21.629   6.279  1.00  0.00     0.001 A 
BRANCH  25  34
HETATM   34  O   UNL     1      43.866 -16.912   1.962  1.00  0.00    -0.360 OA
HETATM   35  H   UNL     1      44.626 -16.953   1.337  1.00  0.00     0.217 HD
ENDBRANCH  25  34
ENDBRANCH   1  24
TORSDOF 6
ENDMDL
MODEL 2
REMARK VINA RESULT:      -8.9      2.241      7.841
REMARK  6 active torsions:
REMARK  status: ('A' for Active; 'I' for Inactive)
REMARK    1  A    between atoms: C_4  and  C_5 
REMARK    2  A    between atoms: C_5  and  N_6 
REMARK    3  A    between atoms: C_5  and  C_20 
REMARK       I    between atoms: N_6  and  C_7 
REMARK    4  A    between atoms: C_7  and  C_8 
REMARK    5  A    between atoms: C_8  and  N_9 
REMARK    6  A    between atoms: C_21  and  O_22 
ROOT
HETATM    1  C   UNL     1      40.383 -15.394   2.216  1.00  0.00     0.154 C 
ENDROOT
BRANCH   1   2
HETATM    2  C   UNL     1      39.627 -14.759   1.045  1.00  0.00    -0.031 A 
HETATM    3  C   UNL     1      38.261 -14.454   1.230  1.00  0.00     0.009 A 
HETATM    4  C   UNL     1      37.501 -13.873   0.214  1.00  0.00     0.001 A 
HETATM    5  C   UNL     1      38.089 -13.582  -1.013  1.00  0.00     0.000 A 
HETATM    6  C   UNL     1      39.434 -13.875  -1.220  1.00  0.00     0.001 A 
HETATM    7  C   UNL     1      40.195 -14.463  -0.204  1.00  0.00     0.009 A 
ENDBRANCH   1   2
BRANCH   1   8
HETATM    8  N   UNL     1      41.685 -15.952   1.906  1.00  0.00    -0.347 N 
HETATM    9  C   UNL     1      41.825 -17.270   1.519  1.00  0.00     0.236 C 
HETATM   10  O   UNL     1      40.870 -18.039   1.398  1.00  0.00    -0.272 OA
HETATM   11  H   UNL     1      42.441 -15.321   1.647  1.00  0.00     0.163 HD
BRANCH   9  12
HETATM   12  C   UNL     1      43.276 -17.707   1.304  1.00  0.00     0.236 C 
BRANCH  12  13
HETATM   13  N   UNL     1      43.829 -18.370   2.459  1.00  0.00    -0.289 N 
HETATM   14  C   UNL     1      43.885 -17.801   3.746  1.00  0.00     0.328 A 
HETATM   15  O   UNL     1      43.629 -16.645   4.043  1.00  0.00    -0.247 OA
HETATM   16  N   UNL     1      44.271 -18.817   4.626  1.00  0.00    -0.306 N 
HETATM   17  C   UNL     1      44.368 -20.009   3.917  1.00  0.00     0.063 A 
HETATM   18  H   UNL     1      44.378 -18.693   5.620  1.00  0.00     0.171 HD
HETATM   19  C   UNL     1      44.085 -19.745   2.574  1.00  0.00     0.066 A 
HETATM   20  C   UNL     1      44.636 -21.274   4.389  1.00  0.00     0.032 A 
HETATM   21  C   UNL     1      44.057 -20.758   1.640  1.00  0.00     0.032 A 
HETATM   22  C   UNL     1      44.320 -22.057   2.095  1.00  0.00     0.002 A 
HETATM   23  C   UNL     1      44.607 -22.312   3.453  1.00  0.00     0.002 A 
ENDBRANCH  12  13
ENDBRANCH   9  12
ENDBRANCH   1   8
BRANCH   1  24
HETATM   24  C   UNL     1      40.458 -14.491   3.455  1.00  0.00     0.013 C 
HETATM   25  C   UNL     1      40.409 -15.093   4.727  1.00  0.00     0.075 C 
HETATM   26  C   UNL     1      40.286 -14.349   5.892  1.00  0.00     0.038 C 
HETATM   27  C   UNL     1      40.280 -12.962   5.818  1.00  0.00     0.015 C 
HETATM   28  C   UNL     1      40.437 -12.310   4.590  1.00  0.00    -0.025 A 
HETATM   29  C   UNL     1      40.542 -13.063   3.387  1.00  0.00    -0.015 A 
HETATM   30  C   UNL     1      40.500 -10.906   4.559  1.00  0.00     0.012 A 
HETATM   31  C   UNL     1      40.750 -12.327   2.197  1.00  0.00     0.013 A 
HETATM   32  C   UNL     1      40.826 -10.931   2.182  1.00  0.00     0.001 A 
HETATM   33  C   UNL     1      40.694 -10.220   3.363  1.00  0.00     0.001 A 
BRANCH  25  34
HETATM   34  O   UNL     1      40.538 -16.446   4.888  1.00  0.00    -0.360 OA
HETATM   35  H   UNL     1      40.930 -16.575   5.783  1.00  0.00     0.217 HD
ENDBRANCH  25  34
ENDBRANCH   1  24
TORSDOF 6
ENDMDL
MODEL 3
REMARK VINA RESULT:      -8.9      1.276      2.168
REMARK  6 active torsions:
REMARK  status: ('A' for Active; 'I' for Inactive)
REMARK    1  A    between atoms: C_4  and  C_5 
REMARK    2  A    between atoms: C_5  and  N_6 
REMARK    3  A    between atoms: C_5  and  C_20 
REMARK       I    between atoms: N_6  and  C_7 
REMARK    4  A    between atoms: C_7  and  C_8 
REMARK    5  A    between atoms: C_8  and  N_9 
REMARK    6  A    between atoms: C_21  and  O_22 
ROOT
HETATM    1  C   UNL     1      42.303 -16.424   4.448  1.00  0.00     0.154 C 
ENDROOT
BRANCH   1   2
HETATM    2  C   UNL     1      43.156 -15.601   5.419  1.00  0.00    -0.031 A 
HETATM    3  C   UNL     1      43.240 -16.041   6.757  1.00  0.00     0.009 A 
HETATM    4  C   UNL     1      43.997 -15.349   7.705  1.00  0.00     0.001 A 
HETATM    5  C   UNL     1      44.691 -14.201   7.334  1.00  0.00     0.000 A 
HETATM    6  C   UNL     1      44.622 -13.747   6.020  1.00  0.00     0.001 A 
HETATM    7  C   UNL     1      43.859 -14.436   5.072  1.00  0.00     0.009 A 
ENDBRANCH   1   2
BRANCH   1   8
HETATM    8  N   UNL     1      41.427 -15.669   3.573  1.00  0.00    -0.347 N 
HETATM    9  C   UNL     1      40.355 -14.958   4.074  1.00  0.00     0.236 C 
HETATM   10  O   UNL     1      40.086 -14.906   5.275  1.00  0.00    -0.272 OA
HETATM   11  H   UNL     1      41.773 -15.382   2.659  1.00  0.00     0.163 HD
BRANCH   9  12
HETATM   12  C   UNL     1      39.497 -14.283   3.000  1.00  0.00     0.236 C 
BRANCH  12  13
HETATM   13  N   UNL     1      40.238 -13.315   2.230  1.00  0.00    -0.289 N 
HETATM   14  C   UNL     1      40.888 -12.194   2.783  1.00  0.00     0.328 A 
HETATM   15  O   UNL     1      40.799 -11.794   3.933  1.00  0.00    -0.247 OA
HETATM   16  N   UNL     1      41.673 -11.636   1.770  1.00  0.00    -0.306 N 
HETATM   17  C   UNL     1      41.582 -12.440   0.639  1.00  0.00     0.063 A 
HETATM   18  H   UNL     1      42.260 -10.827   1.891  1.00  0.00     0.171 HD
HETATM   19  C   UNL     1      40.704 -13.490   0.917  1.00  0.00     0.066 A 
HETATM   20  C   UNL     1      42.247 -12.321  -0.560  1.00  0.00     0.032 A 
HETATM   21  C   UNL     1      40.458 -14.478  -0.011  1.00  0.00     0.032 A 
HETATM   22  C   UNL     1      41.128 -14.385  -1.238  1.00  0.00     0.002 A 
HETATM   23  C   UNL     1      42.011 -13.318  -1.510  1.00  0.00     0.002 A 
ENDBRANCH  12  13
ENDBRANCH   9  12
ENDBRANCH   1   8
BRANCH   1  24
HETATM   24  C   UNL     1      43.111 -17.457   3.651  1.00  0.00     0.013 C 
HETATM   25  C   UNL     1      43.369 -17.202   2.290  1.00  0.00     0.075 C 
HETATM   26  C   UNL     1      43.928 -18.157   1.453  1.00  0.00     0.038 C 
HETATM   27  C   UNL     1      44.314 -19.384   1.979  1.00  0.00     0.015 C 
HETATM   28  C   UNL     1      44.182 -19.649   3.347  1.00  0.00    -0.025 A 
HETATM   29  C   UNL     1      43.591 -18.685   4.211  1.00  0.00    -0.015 A 
HETATM   30  C   UNL     1      44.651 -20.871   3.858  1.00  0.00     0.012 A 
HETATM   31  C   UNL     1      43.544 -19.014   5.586  1.00  0.00     0.013 A 
HETATM   32  C   UNL     1      44.027 -20.227   6.084  1.00  0.00     0.001 A 
HETATM   33  C   UNL     1      44.575 -21.160   5.218  1.00  0.00     0.001 A 
BRANCH  25  34
HETATM   34  O   UNL     1      43.133 -15.975   1.732  1.00  0.00    -0.360 OA
HETATM   35  H   UNL     1      43.163 -15.330   2.476  1.00  0.00     0.217 HD
ENDBRANCH  25  34
ENDBRANCH   1  24
TORSDOF 6
ENDMDL
MODEL 4
REMARK VINA RESULT:      -8.8      2.069      8.579
REMARK  6 active torsions:
REMARK  status: ('A' for Active; 'I' for Inactive)
REMARK    1  A    between atoms: C_4  and  C_5 
REMARK    2  A    between atoms: C_5  and  N_6 
REMARK    3  A    between atoms: C_5  and  C_20 
REMARK       I    between atoms: N_6  and  C_7 
REMARK    4  A    between atoms: C_7  and  C_8 
REMARK    5  A    between atoms: C_8  and  N_9 
REMARK    6  A    between atoms: C_21  and  O_22 
ROOT
HETATM    1  C   UNL     1      40.928 -14.804   0.136  1.00  0.00     0.154 C 
ENDROOT
BRANCH   1   2
HETATM    2  C   UNL     1      40.259 -14.840  -1.242  1.00  0.00    -0.031 A 
HETATM    3  C   UNL     1      40.866 -15.621  -2.249  1.00  0.00     0.009 A 
HETATM    4  C   UNL     1      40.319 -15.708  -3.531  1.00  0.00     0.001 A 
HETATM    5  C   UNL     1      39.151 -15.017  -3.835  1.00  0.00     0.000 A 
HETATM    6  C   UNL     1      38.535 -14.238  -2.859  1.00  0.00     0.001 A 
HETATM    7  C   UNL     1      39.086 -14.145  -1.576  1.00  0.00     0.009 A 
ENDBRANCH   1   2
BRANCH   1   8
HETATM    8  N   UNL     1      42.108 -15.633   0.293  1.00  0.00    -0.347 N 
HETATM    9  C   UNL     1      42.025 -16.902   0.829  1.00  0.00     0.236 C 
HETATM   10  O   UNL     1      40.963 -17.411   1.187  1.00  0.00    -0.272 OA
HETATM   11  H   UNL     1      42.926 -15.435  -0.280  1.00  0.00     0.163 HD
BRANCH   9  12
HETATM   12  C   UNL     1      43.378 -17.602   0.988  1.00  0.00     0.236 C 
BRANCH  12  13
HETATM   13  N   UNL     1      43.756 -17.762   2.370  1.00  0.00    -0.289 N 
HETATM   14  C   UNL     1      43.510 -16.804   3.374  1.00  0.00     0.328 A 
HETATM   15  O   UNL     1      43.095 -15.668   3.210  1.00  0.00    -0.247 OA
HETATM   16  N   UNL     1      43.811 -17.408   4.598  1.00  0.00    -0.306 N 
HETATM   17  C   UNL     1      44.153 -18.737   4.369  1.00  0.00     0.063 A 
HETATM   18  H   UNL     1      43.712 -16.954   5.491  1.00  0.00     0.171 HD
HETATM   19  C   UNL     1      44.111 -18.969   2.992  1.00  0.00     0.066 A 
HETATM   20  C   UNL     1      44.441 -19.723   5.284  1.00  0.00     0.032 A 
HETATM   21  C   UNL     1      44.357 -20.222   2.474  1.00  0.00     0.032 A 
HETATM   22  C   UNL     1      44.646 -21.247   3.384  1.00  0.00     0.002 A 
HETATM   23  C   UNL     1      44.689 -21.000   4.773  1.00  0.00     0.002 A 
ENDBRANCH  12  13
ENDBRANCH   9  12
ENDBRANCH   1   8
BRANCH   1  24
HETATM   24  C   UNL     1      41.187 -13.382   0.652  1.00  0.00     0.013 C 
HETATM   25  C   UNL     1      40.797 -13.064   1.967  1.00  0.00     0.075 C 
HETATM   26  C   UNL     1      40.824 -11.764   2.451  1.00  0.00     0.038 C 
HETATM   27  C   UNL     1      41.315 -10.746   1.645  1.00  0.00     0.015 C 
HETATM   28  C   UNL     1      41.819 -11.023   0.369  1.00  0.00    -0.025 A 
HETATM   29  C   UNL     1      41.776 -12.349  -0.146  1.00  0.00    -0.015 A 
HETATM   30  C   UNL     1      42.376  -9.981  -0.391  1.00  0.00     0.012 A 
HETATM   31  C   UNL     1      42.353 -12.549  -1.422  1.00  0.00     0.013 A 
HETATM   32  C   UNL     1      42.918 -11.507  -2.162  1.00  0.00     0.001 A 
HETATM   33  C   UNL     1      42.923 -10.220  -1.649  1.00  0.00     0.001 A 
BRANCH  25  34
HETATM   34  O   UNL     1      40.423 -14.032   2.860  1.00  0.00    -0.360 OA
HETATM   35  H   UNL     1      40.829 -14.869   2.536  1.00  0.00     0.217 HD
ENDBRANCH  25  34
ENDBRANCH   1  24
TORSDOF 6
ENDMDL
MODEL 5
REMARK VINA RESULT:      -8.7      2.162      8.007
REMARK  6 active torsions:
REMARK  status: ('A' for Active; 'I' for Inactive)
REMARK    1  A    between atoms: C_4  and  C_5 
REMARK    2  A    between atoms: C_5  and  N_6 
REMARK    3  A    between atoms: C_5  and  C_20 
REMARK       I    between atoms: N_6  and  C_7 
REMARK    4  A    between atoms: C_7  and  C_8 
REMARK    5  A    between atoms: C_8  and  N_9 
REMARK    6  A    between atoms: C_21  and  O_22 
ROOT
HETATM    1  C   UNL     1      40.424 -13.505   1.187  1.00  0.00     0.154 C 
ENDROOT
BRANCH   1   2
HETATM    2  C   UNL     1      39.771 -12.423   2.054  1.00  0.00    -0.031 A 
HETATM    3  C   UNL     1      39.558 -12.713   3.419  1.00  0.00     0.009 A 
HETATM    4  C   UNL     1      38.970 -11.782   4.277  1.00  0.00     0.001 A 
HETATM    5  C   UNL     1      38.584 -10.538   3.791  1.00  0.00     0.000 A 
HETATM    6  C   UNL     1      38.782 -10.229   2.448  1.00  0.00     0.001 A 
HETATM    7  C   UNL     1      39.365 -11.164   1.586  1.00  0.00     0.009 A 
ENDBRANCH   1   2
BRANCH   1   8
HETATM    8  N   UNL     1      40.358 -14.860   1.701  1.00  0.00    -0.347 N 
HETATM    9  C   UNL     1      41.281 -15.814   1.322  1.00  0.00     0.236 C 
HETATM   10  O   UNL     1      42.212 -15.579   0.551  1.00  0.00    -0.272 OA
HETATM   11  H   UNL     1      39.861 -15.030   2.573  1.00  0.00     0.163 HD
BRANCH   9  12
HETATM   12  C   UNL     1      41.014 -17.205   1.904  1.00  0.00     0.236 C 
BRANCH  12  13
HETATM   13  N   UNL     1      41.906 -17.529   2.990  1.00  0.00    -0.289 N 
HETATM   14  C   UNL     1      41.752 -17.056   4.308  1.00  0.00     0.328 A 
HETATM   15  O   UNL     1      40.963 -16.207   4.689  1.00  0.00    -0.247 OA
HETATM   16  N   UNL     1      42.662 -17.759   5.103  1.00  0.00    -0.306 N 
HETATM   17  C   UNL     1      43.305 -18.707   4.315  1.00  0.00     0.063 A 
HETATM   18  H   UNL     1      42.759 -17.632   6.097  1.00  0.00     0.171 HD
HETATM   19  C   UNL     1      42.836 -18.581   3.005  1.00  0.00     0.066 A 
HETATM   20  C   UNL     1      44.213 -19.669   4.692  1.00  0.00     0.032 A 
HETATM   21  C   UNL     1      43.265 -19.431   2.010  1.00  0.00     0.032 A 
HETATM   22  C   UNL     1      44.184 -20.425   2.369  1.00  0.00     0.002 A 
HETATM   23  C   UNL     1      44.654 -20.542   3.694  1.00  0.00     0.002 A 
ENDBRANCH  12  13
ENDBRANCH   9  12
ENDBRANCH   1   8
BRANCH   1  24
HETATM   24  C   UNL     1      39.983 -13.456  -0.282  1.00  0.00     0.013 C 
HETATM   25  C   UNL     1      38.724 -13.990  -0.622  1.00  0.00     0.075 C 
HETATM   26  C   UNL     1      38.324 -14.155  -1.940  1.00  0.00     0.038 C 
HETATM   27  C   UNL     1      39.153 -13.718  -2.965  1.00  0.00     0.015 C 
HETATM   28  C   UNL     1      40.366 -13.081  -2.681  1.00  0.00    -0.025 A 
HETATM   29  C   UNL     1      40.797 -12.926  -1.334  1.00  0.00    -0.015 A 
HETATM   30  C   UNL     1      41.147 -12.586  -3.740  1.00  0.00     0.012 A 
HETATM   31  C   UNL     1      42.009 -12.224  -1.135  1.00  0.00     0.013 A 
HETATM   32  C   UNL     1      42.769 -11.724  -2.196  1.00  0.00     0.001 A 
HETATM   33  C   UNL     1      42.341 -11.911  -3.500  1.00  0.00     0.001 A 
BRANCH  25  34
HETATM   34  O   UNL     1      37.803 -14.323   0.334  1.00  0.00    -0.360 OA
HETATM   35  H   UNL     1      37.016 -14.657  -0.155  1.00  0.00     0.217 HD
ENDBRANCH  25  34
ENDBRANCH   1  24
TORSDOF 6
ENDMDL
MODEL 6
REMARK VINA RESULT:      -8.7      2.206      7.585
REMARK  6 active torsions:
REMARK  status: ('A' for Active; 'I' for Inactive)
REMARK    1  A    between atoms: C_4  and  C_5 
REMARK    2  A    between atoms: C_5  and  N_6 
REMARK    3  A    between atoms: C_5  and  C_20 
REMARK       I    between atoms: N_6  and  C_7 
REMARK    4  A    between atoms: C_7  and  C_8 
REMARK    5  A    between atoms: C_8  and  N_9 
REMARK    6  A    between atoms: C_21  and  O_22 
ROOT
HETATM    1  C   UNL     1      41.019 -13.524   1.306  1.00  0.00     0.154 C 
ENDROOT
BRANCH   1   2
HETATM    2  C   UNL     1      41.712 -12.782   0.158  1.00  0.00    -0.031 A 
HETATM    3  C   UNL     1      41.915 -13.481  -1.051  1.00  0.00     0.009 A 
HETATM    4  C   UNL     1      42.537 -12.876  -2.145  1.00  0.00     0.001 A 
HETATM    5  C   UNL     1      42.970 -11.558  -2.056  1.00  0.00     0.000 A 
HETATM    6  C   UNL     1      42.783 -10.848  -0.873  1.00  0.00     0.001 A 
HETATM    7  C   UNL     1      42.165 -11.455   0.226  1.00  0.00     0.009 A 
ENDBRANCH   1   2
BRANCH   1   8
HETATM    8  N   UNL     1      41.293 -14.945   1.403  1.00  0.00    -0.347 N 
HETATM    9  C   UNL     1      40.285 -15.851   1.666  1.00  0.00     0.236 C 
HETATM   10  O   UNL     1      39.108 -15.521   1.816  1.00  0.00    -0.272 OA
HETATM   11  H   UNL     1      42.131 -15.315   0.959  1.00  0.00     0.163 HD
BRANCH   9  12
HETATM   12  C   UNL     1      40.768 -17.297   1.806  1.00  0.00     0.236 C 
BRANCH  12  13
HETATM   13  N   UNL     1      41.749 -17.452   2.852  1.00  0.00    -0.289 N 
HETATM   14  C   UNL     1      41.660 -16.840   4.117  1.00  0.00     0.328 A 
HETATM   15  O   UNL     1      40.852 -15.992   4.461  1.00  0.00    -0.247 OA
HETATM   16  N   UNL     1      42.660 -17.403   4.915  1.00  0.00    -0.306 N 
HETATM   17  C   UNL     1      43.300 -18.403   4.191  1.00  0.00     0.063 A 
HETATM   18  H   UNL     1      42.818 -17.159   5.879  1.00  0.00     0.171 HD
HETATM   19  C   UNL     1      42.735 -18.449   2.914  1.00  0.00     0.066 A 
HETATM   20  C   UNL     1      44.285 -19.271   4.603  1.00  0.00     0.032 A 
HETATM   21  C   UNL     1      43.142 -19.386   1.989  1.00  0.00     0.032 A 
HETATM   22  C   UNL     1      44.138 -20.287   2.385  1.00  0.00     0.002 A 
HETATM   23  C   UNL     1      44.705 -20.229   3.677  1.00  0.00     0.002 A 
ENDBRANCH  12  13
ENDBRANCH   9  12
ENDBRANCH   1   8
BRANCH   1  24
HETATM   24  C   UNL     1      41.196 -12.840   2.669  1.00  0.00     0.013 C 
HETATM   25  C   UNL     1      42.363 -13.111   3.409  1.00  0.00     0.075 C 
HETATM   26  C   UNL     1      42.521 -12.686   4.720  1.00  0.00     0.038 C 
HETATM   27  C   UNL     1      41.534 -11.907   5.309  1.00  0.00     0.015 C 
HETATM   28  C   UNL     1      40.404 -11.515   4.582  1.00  0.00    -0.025 A 
HETATM   29  C   UNL     1      40.220 -11.963   3.244  1.00  0.00    -0.015 A 
HETATM   30  C   UNL     1      39.460 -10.666   5.185  1.00  0.00     0.012 A 
HETATM   31  C   UNL     1      39.078 -11.478   2.566  1.00  0.00     0.013 A 
HETATM   32  C   UNL     1      38.154 -10.622   3.172  1.00  0.00     0.001 A 
HETATM   33  C   UNL     1      38.341 -10.221   4.485  1.00  0.00     0.001 A 
BRANCH  25  34
HETATM   34  O   UNL     1      43.431 -13.763   2.853  1.00  0.00    -0.360 OA
HETATM   35  H   UNL     1      44.230 -13.265   3.142  1.00  0.00     0.217 HD
ENDBRANCH  25  34
ENDBRANCH   1  24
TORSDOF 6
ENDMDL
MODEL 7
REMARK VINA RESULT:      -8.5      2.192      8.311
REMARK  6 active torsions:
REMARK  status: ('A' for Active; 'I' for Inactive)
REMARK    1  A    between atoms: C_4  and  C_5 
REMARK    2  A    between atoms: C_5  and  N_6 
REMARK    3  A    between atoms: C_5  and  C_20 
REMARK       I    between atoms: N_6  and  C_7 
REMARK    4  A    between atoms: C_7  and  C_8 
REMARK    5  A    between atoms: C_8  and  N_9 
REMARK    6  A    between atoms: C_21  and  O_22 
ROOT
HETATM    1  C   UNL     1      40.941 -14.412   0.939  1.00  0.00     0.154 C 
ENDROOT
BRANCH   1   2
HETATM    2  C   UNL     1      41.214 -14.388  -0.569  1.00  0.00    -0.031 A 
HETATM    3  C   UNL     1      40.830 -15.515  -1.327  1.00  0.00     0.009 A 
HETATM    4  C   UNL     1      41.041 -15.571  -2.705  1.00  0.00     0.001 A 
HETATM    5  C   UNL     1      41.641 -14.500  -3.360  1.00  0.00     0.000 A 
HETATM    6  C   UNL     1      42.030 -13.378  -2.634  1.00  0.00     0.001 A 
HETATM    7  C   UNL     1      41.824 -13.323  -1.251  1.00  0.00     0.009 A 
ENDBRANCH   1   2
BRANCH   1   8
HETATM    8  N   UNL     1      41.989 -14.978   1.766  1.00  0.00    -0.347 N 
HETATM    9  C   UNL     1      41.714 -15.958   2.699  1.00  0.00     0.236 C 
HETATM   10  O   UNL     1      40.586 -16.419   2.875  1.00  0.00    -0.272 OA
HETATM   11  H   UNL     1      42.955 -14.911   1.450  1.00  0.00     0.163 HD
BRANCH   9  12
HETATM   12  C   UNL     1      42.926 -16.384   3.533  1.00  0.00     0.236 C 
BRANCH  12  13
HETATM   13  N   UNL     1      43.360 -17.725   3.229  1.00  0.00    -0.289 N 
HETATM   14  C   UNL     1      43.871 -18.128   1.980  1.00  0.00     0.328 A 
HETATM   15  O   UNL     1      43.880 -17.471   0.951  1.00  0.00    -0.247 OA
HETATM   16  N   UNL     1      44.385 -19.417   2.145  1.00  0.00    -0.306 N 
HETATM   17  C   UNL     1      44.276 -19.774   3.484  1.00  0.00     0.063 A 
HETATM   18  H   UNL     1      44.828 -19.947   1.412  1.00  0.00     0.171 HD
HETATM   19  C   UNL     1      43.652 -18.727   4.168  1.00  0.00     0.066 A 
HETATM   20  C   UNL     1      44.726 -20.912   4.113  1.00  0.00     0.032 A 
HETATM   21  C   UNL     1      43.456 -18.783   5.531  1.00  0.00     0.032 A 
HETATM   22  C   UNL     1      43.911 -19.929   6.197  1.00  0.00     0.002 A 
HETATM   23  C   UNL     1      44.537 -20.982   5.496  1.00  0.00     0.002 A 
ENDBRANCH  12  13
ENDBRANCH   9  12
ENDBRANCH   1   8
BRANCH   1  24
HETATM   24  C   UNL     1      40.475 -13.061   1.496  1.00  0.00     0.013 C 
HETATM   25  C   UNL     1      41.390 -12.290   2.239  1.00  0.00     0.075 C 
HETATM   26  C   UNL     1      41.006 -11.151   2.931  1.00  0.00     0.038 C 
HETATM   27  C   UNL     1      39.693 -10.707   2.839  1.00  0.00     0.015 C 
HETATM   28  C   UNL     1      38.768 -11.372   2.026  1.00  0.00    -0.025 A 
HETATM   29  C   UNL     1      39.146 -12.554   1.328  1.00  0.00    -0.015 A 
HETATM   30  C   UNL     1      37.468 -10.853   1.897  1.00  0.00     0.012 A 
HETATM   31  C   UNL     1      38.165 -13.132   0.489  1.00  0.00     0.013 A 
HETATM   32  C   UNL     1      36.881 -12.599   0.357  1.00  0.00     0.001 A 
HETATM   33  C   UNL     1      36.529 -11.462   1.067  1.00  0.00     0.001 A 
BRANCH  25  34
HETATM   34  O   UNL     1      42.725 -12.594   2.273  1.00  0.00    -0.360 OA
HETATM   35  H   UNL     1      42.973 -12.613   3.226  1.00  0.00     0.217 HD
ENDBRANCH  25  34
ENDBRANCH   1  24
TORSDOF 6
ENDMDL
MODEL 8
REMARK VINA RESULT:      -8.5      2.133      7.659
REMARK  6 active torsions:
REMARK  status: ('A' for Active; 'I' for Inactive)
REMARK    1  A    between atoms: C_4  and  C_5 
REMARK    2  A    between atoms: C_5  and  N_6 
REMARK    3  A    between atoms: C_5  and  C_20 
REMARK       I    between atoms: N_6  and  C_7 
REMARK    4  A    between atoms: C_7  and  C_8 
REMARK    5  A    between atoms: C_8  and  N_9 
REMARK    6  A    between atoms: C_21  and  O_22 
ROOT
HETATM    1  C   UNL     1      40.906 -13.413   2.290  1.00  0.00     0.154 C 
ENDROOT
BRANCH   1   2
HETATM    2  C   UNL     1      39.868 -12.375   2.732  1.00  0.00    -0.031 A 
HETATM    3  C   UNL     1      39.960 -11.871   4.047  1.00  0.00     0.009 A 
HETATM    4  C   UNL     1      39.055 -10.922   4.527  1.00  0.00     0.001 A 
HETATM    5  C   UNL     1      38.038 -10.454   3.701  1.00  0.00     0.000 A 
HETATM    6  C   UNL     1      37.926 -10.938   2.401  1.00  0.00     0.001 A 
HETATM    7  C   UNL     1      38.829 -11.893   1.921  1.00  0.00     0.009 A 
ENDBRANCH   1   2
BRANCH   1   8
HETATM    8  N   UNL     1      40.795 -14.724   2.900  1.00  0.00    -0.347 N 
HETATM    9  C   UNL     1      41.915 -15.419   3.310  1.00  0.00     0.236 C 
HETATM   10  O   UNL     1      43.058 -14.973   3.202  1.00  0.00    -0.272 OA
HETATM   11  H   UNL     1      39.912 -14.993   3.330  1.00  0.00     0.163 HD
BRANCH   9  12
HETATM   12  C   UNL     1      41.616 -16.815   3.863  1.00  0.00     0.236 C 
BRANCH  12  13
HETATM   13  N   UNL     1      42.815 -17.558   4.163  1.00  0.00    -0.289 N 
HETATM   14  C   UNL     1      43.516 -17.469   5.382  1.00  0.00     0.328 A 
HETATM   15  O   UNL     1      43.317 -16.667   6.280  1.00  0.00    -0.247 OA
HETATM   16  N   UNL     1      44.471 -18.489   5.378  1.00  0.00    -0.306 N 
HETATM   17  C   UNL     1      44.311 -19.249   4.225  1.00  0.00     0.063 A 
HETATM   18  H   UNL     1      45.108 -18.670   6.138  1.00  0.00     0.171 HD
HETATM   19  C   UNL     1      43.279 -18.686   3.469  1.00  0.00     0.066 A 
HETATM   20  C   UNL     1      44.974 -20.394   3.847  1.00  0.00     0.032 A 
HETATM   21  C   UNL     1      42.864 -19.264   2.289  1.00  0.00     0.032 A 
HETATM   22  C   UNL     1      43.517 -20.435   1.885  1.00  0.00     0.002 A 
HETATM   23  C   UNL     1      44.561 -20.993   2.653  1.00  0.00     0.002 A 
ENDBRANCH  12  13
ENDBRANCH   9  12
ENDBRANCH   1   8
BRANCH   1  24
HETATM   24  C   UNL     1      41.039 -13.530   0.765  1.00  0.00     0.013 C 
HETATM   25  C   UNL     1      40.433 -14.626   0.121  1.00  0.00     0.075 C 
HETATM   26  C   UNL     1      40.654 -14.910  -1.219  1.00  0.00     0.038 C 
HETATM   27  C   UNL     1      41.443 -14.054  -1.977  1.00  0.00     0.015 C 
HETATM   28  C   UNL     1      41.980 -12.891  -1.414  1.00  0.00    -0.025 A 
HETATM   29  C   UNL     1      41.777 -12.600  -0.036  1.00  0.00    -0.015 A 
HETATM   30  C   UNL     1      42.711 -12.008  -2.228  1.00  0.00     0.012 A 
HETATM   31  C   UNL     1      42.311 -11.378   0.437  1.00  0.00     0.013 A 
HETATM   32  C   UNL     1      43.024 -10.502  -0.386  1.00  0.00     0.001 A 
HETATM   33  C   UNL     1      43.230 -10.821  -1.718  1.00  0.00     0.001 A 
BRANCH  25  34
HETATM   34  O   UNL     1      39.543 -15.439   0.771  1.00  0.00    -0.360 OA
HETATM   35  H   UNL     1      39.532 -15.133   1.707  1.00  0.00     0.217 HD
ENDBRANCH  25  34
ENDBRANCH   1  24
TORSDOF 6
ENDMDL
MODEL 9
REMARK VINA RESULT:      -8.5      2.750      8.604
REMARK  6 active torsions:
REMARK  status: ('A' for Active; 'I' for Inactive)
REMARK    1  A    between atoms: C_4  and  C_5 
REMARK    2  A    between atoms: C_5  and  N_6 
REMARK    3  A    between atoms: C_5  and  C_20 
REMARK       I    between atoms: N_6  and  C_7 
REMARK    4  A    between atoms: C_7  and  C_8 
REMARK    5  A    between atoms: C_8  and  N_9 
REMARK    6  A    between atoms: C_21  and  O_22 
ROOT
HETATM    1  C   UNL     1      40.679 -14.667  -1.349  1.00  0.00     0.154 C 
ENDROOT
BRANCH   1   2
HETATM    2  C   UNL     1      41.478 -13.364  -1.240  1.00  0.00    -0.031 A 
HETATM    3  C   UNL     1      42.041 -12.836  -2.422  1.00  0.00     0.009 A 
HETATM    4  C   UNL     1      42.782 -11.653  -2.409  1.00  0.00     0.001 A 
HETATM    5  C   UNL     1      42.975 -10.968  -1.214  1.00  0.00     0.000 A 
HETATM    6  C   UNL     1      42.431 -11.470  -0.035  1.00  0.00     0.001 A 
HETATM    7  C   UNL     1      41.693 -12.659  -0.046  1.00  0.00     0.009 A 
ENDBRANCH   1   2
BRANCH   1   8
HETATM    8  N   UNL     1      40.359 -15.325  -0.096  1.00  0.00    -0.347 N 
HETATM    9  C   UNL     1      41.193 -16.285   0.440  1.00  0.00     0.236 C 
HETATM   10  O   UNL     1      42.249 -16.630  -0.091  1.00  0.00    -0.272 OA
HETATM   11  H   UNL     1      39.722 -14.865   0.551  1.00  0.00     0.163 HD
BRANCH   9  12
HETATM   12  C   UNL     1      40.662 -16.925   1.726  1.00  0.00     0.236 C 
BRANCH  12  13
HETATM   13  N   UNL     1      41.676 -17.035   2.746  1.00  0.00    -0.289 N 
HETATM   14  C   UNL     1      41.686 -16.283   3.937  1.00  0.00     0.328 A 
HETATM   15  O   UNL     1      40.955 -15.344   4.211  1.00  0.00    -0.247 OA
HETATM   16  N   UNL     1      42.679 -16.827   4.755  1.00  0.00    -0.306 N 
HETATM   17  C   UNL     1      43.215 -17.946   4.126  1.00  0.00     0.063 A 
HETATM   18  H   UNL     1      42.897 -16.491   5.680  1.00  0.00     0.171 HD
HETATM   19  C   UNL     1      42.592 -18.090   2.884  1.00  0.00     0.066 A 
HETATM   20  C   UNL     1      44.154 -18.834   4.597  1.00  0.00     0.032 A 
HETATM   21  C   UNL     1      42.890 -19.151   2.056  1.00  0.00     0.032 A 
HETATM   22  C   UNL     1      43.838 -20.074   2.516  1.00  0.00     0.002 A 
HETATM   23  C   UNL     1      44.464 -19.917   3.771  1.00  0.00     0.002 A 
ENDBRANCH  12  13
ENDBRANCH   9  12
ENDBRANCH   1   8
BRANCH   1  24
HETATM   24  C   UNL     1      39.432 -14.545  -2.235  1.00  0.00     0.013 C 
HETATM   25  C   UNL     1      39.185 -15.554  -3.187  1.00  0.00     0.075 C 
HETATM   26  C   UNL     1      38.191 -15.435  -4.148  1.00  0.00     0.038 C 
HETATM   27  C   UNL     1      37.361 -14.321  -4.137  1.00  0.00     0.015 C 
HETATM   28  C   UNL     1      37.491 -13.342  -3.146  1.00  0.00    -0.025 A 
HETATM   29  C   UNL     1      38.521 -13.442  -2.169  1.00  0.00    -0.015 A 
HETATM   30  C   UNL     1      36.588 -12.265  -3.120  1.00  0.00     0.012 A 
HETATM   31  C   UNL     1      38.548 -12.437  -1.173  1.00  0.00     0.013 A 
HETATM   32  C   UNL     1      37.634 -11.380  -1.150  1.00  0.00     0.001 A 
HETATM   33  C   UNL     1      36.658 -11.290  -2.129  1.00  0.00     0.001 A 
BRANCH  25  34
HETATM   34  O   UNL     1      39.877 -16.735  -3.179  1.00  0.00    -0.360 OA
HETATM   35  H   UNL     1      40.719 -16.556  -3.657  1.00  0.00     0.217 HD
ENDBRANCH  25  34
ENDBRANCH   1  24
TORSDOF 6
ENDMDL
MODEL 10
REMARK VINA RESULT:      -8.3      1.985      4.280
REMARK  6 active torsions:
REMARK  status: ('A' for Active; 'I' for Inactive)
REMARK    1  A    between atoms: C_4  and  C_5 
REMARK    2  A    between atoms: C_5  and  N_6 
REMARK    3  A    between atoms: C_5  and  C_20 
REMARK       I    between atoms: N_6  and  C_7 
REMARK    4  A    between atoms: C_7  and  C_8 
REMARK    5  A    between atoms: C_8  and  N_9 
REMARK    6  A    between atoms: C_21  and  O_22 
ROOT
HETATM    1  C   UNL     1      43.049 -17.498   3.234  1.00  0.00     0.154 C 
ENDROOT
BRANCH   1   2
HETATM    2  C   UNL     1      43.591 -18.891   2.900  1.00  0.00    -0.031 A 
HETATM    3  C   UNL     1      42.769 -19.752   2.140  1.00  0.00     0.009 A 
HETATM    4  C   UNL     1      43.188 -21.038   1.792  1.00  0.00     0.001 A 
HETATM    5  C   UNL     1      44.440 -21.492   2.194  1.00  0.00     0.000 A 
HETATM    6  C   UNL     1      45.268 -20.662   2.945  1.00  0.00     0.001 A 
HETATM    7  C   UNL     1      44.846 -19.376   3.300  1.00  0.00     0.009 A 
ENDBRANCH   1   2
BRANCH   1   8
HETATM    8  N   UNL     1      41.652 -17.265   2.922  1.00  0.00    -0.347 N 
HETATM    9  C   UNL     1      41.276 -16.342   1.967  1.00  0.00     0.236 C 
HETATM   10  O   UNL     1      42.087 -15.679   1.319  1.00  0.00    -0.272 OA
HETATM   11  H   UNL     1      40.972 -17.989   3.145  1.00  0.00     0.163 HD
BRANCH   9  12
HETATM   12  C   UNL     1      39.761 -16.174   1.823  1.00  0.00     0.236 C 
BRANCH  12  13
HETATM   13  N   UNL     1      39.308 -14.872   2.244  1.00  0.00    -0.289 N 
HETATM   14  C   UNL     1      39.684 -14.256   3.453  1.00  0.00     0.328 A 
HETATM   15  O   UNL     1      40.302 -14.771   4.371  1.00  0.00    -0.247 OA
HETATM   16  N   UNL     1      39.233 -12.934   3.396  1.00  0.00    -0.306 N 
HETATM   17  C   UNL     1      38.666 -12.708   2.147  1.00  0.00     0.063 A 
HETATM   18  H   UNL     1      39.378 -12.256   4.127  1.00  0.00     0.171 HD
HETATM   19  C   UNL     1      38.718 -13.900   1.420  1.00  0.00     0.066 A 
HETATM   20  C   UNL     1      38.171 -11.536   1.624  1.00  0.00     0.032 A 
HETATM   21  C   UNL     1      38.270 -13.960   0.118  1.00  0.00     0.032 A 
HETATM   22  C   UNL     1      37.767 -12.779  -0.442  1.00  0.00     0.002 A 
HETATM   23  C   UNL     1      37.717 -11.581   0.303  1.00  0.00     0.002 A 
ENDBRANCH  12  13
ENDBRANCH   9  12
ENDBRANCH   1   8
BRANCH   1  24
HETATM   24  C   UNL     1      43.372 -17.046   4.665  1.00  0.00     0.013 C 
HETATM   25  C   UNL     1      43.546 -15.670   4.910  1.00  0.00     0.075 C 
HETATM   26  C   UNL     1      44.017 -15.190   6.124  1.00  0.00     0.038 C 
HETATM   27  C   UNL     1      44.260 -16.081   7.162  1.00  0.00     0.015 C 
HETATM   28  C   UNL     1      43.999 -17.447   7.008  1.00  0.00    -0.025 A 
HETATM   29  C   UNL     1      43.537 -17.953   5.761  1.00  0.00    -0.015 A 
HETATM   30  C   UNL     1      44.186 -18.310   8.102  1.00  0.00     0.012 A 
HETATM   31  C   UNL     1      43.248 -19.337   5.708  1.00  0.00     0.013 A 
HETATM   32  C   UNL     1      43.425 -20.182   6.807  1.00  0.00     0.001 A 
HETATM   33  C   UNL     1      43.901 -19.669   8.003  1.00  0.00     0.001 A 
BRANCH  25  34
HETATM   34  O   UNL     1      43.206 -14.725   3.980  1.00  0.00    -0.360 OA
HETATM   35  H   UNL     1      42.364 -14.324   4.299  1.00  0.00     0.217 HD
ENDBRANCH  25  34
ENDBRANCH   1  24
TORSDOF 6
ENDMDL
