MODEL 1
REMARK VINA RESULT:      -9.9      0.000      0.000
REMARK  1 active torsions:
REMARK  status: ('A' for Active; 'I' for Inactive)
REMARK    1  A    between atoms: C_8  and  C_9 
ROOT
HETATM    1  C   UNL     1      42.700 -17.479   7.489  1.00  0.00     0.073 C 
HETATM    2  C   UNL     1      41.711 -16.812   6.599  1.00  0.00     0.062 A 
HETATM    3  N   UNL     1      40.467 -16.617   7.039  1.00  0.00    -0.178 NA
HETATM    4  N   UNL     1      39.871 -15.972   6.035  1.00  0.00    -0.262 N 
HETATM    5  H   UNL     1      38.903 -15.699   6.158  1.00  0.00     0.191 HD
HETATM    6  C   UNL     1      40.659 -15.792   4.927  1.00  0.00     0.134 A 
HETATM    7  C   UNL     1      41.901 -16.312   5.262  1.00  0.00     0.032 A 
HETATM    8  C   UNL     1      43.215 -16.297   4.541  1.00  0.00     0.119 C 
HETATM    9  S   UNL     1      43.330 -15.290   3.048  1.00  0.00    -0.141 SA
HETATM   10  C   UNL     1      41.854 -15.861   2.156  1.00  0.00     0.136 C 
HETATM   11  C   UNL     1      42.125 -15.714   0.658  1.00  0.00     0.031 C 
HETATM   12  C   UNL     1      40.633 -15.049   2.569  1.00  0.00     0.236 C 
HETATM   13  O   UNL     1      40.000 -14.355   1.769  1.00  0.00    -0.272 OA
HETATM   14  N   UNL     1      40.124 -15.154   3.833  1.00  0.00    -0.311 N 
HETATM   15  H   UNL     1      39.233 -14.676   3.923  1.00  0.00     0.170 HD
ENDROOT
BRANCH   8  16
HETATM   16  C   UNL     1      43.701 -17.729   4.350  1.00  0.00    -0.039 A 
HETATM   17  C   UNL     1      43.234 -18.449   3.230  1.00  0.00     0.021 A 
HETATM   18  C   UNL     1      43.670 -19.757   2.951  1.00  0.00    -0.025 A 
HETATM   19  C   UNL     1      44.580 -20.381   3.829  1.00  0.00    -0.026 A 
HETATM   20  C   UNL     1      43.229 -20.448   1.811  1.00  0.00     0.012 A 
HETATM   21  C   UNL     1      45.026 -19.683   4.960  1.00  0.00     0.013 A 
HETATM   22  C   UNL     1      45.025 -21.683   3.545  1.00  0.00     0.012 A 
HETATM   23  C   UNL     1      44.596 -18.377   5.215  1.00  0.00     0.009 A 
HETATM   24  C   UNL     1      44.580 -22.356   2.406  1.00  0.00     0.001 A 
HETATM   25  C   UNL     1      43.685 -21.739   1.538  1.00  0.00     0.001 A 
ENDBRANCH   8  16
TORSDOF 1
ENDMDL
MODEL 2
REMARK VINA RESULT:      -8.9      1.493      2.450
REMARK  1 active torsions:
REMARK  status: ('A' for Active; 'I' for Inactive)
REMARK    1  A    between atoms: C_8  and  C_9 
ROOT
HETATM    1  C   UNL     1      45.485 -18.026   6.403  1.00  0.00     0.073 C 
HETATM    2  C   UNL     1      44.189 -17.348   6.682  1.00  0.00     0.062 A 
HETATM    3  N   UNL     1      43.697 -17.369   7.921  1.00  0.00    -0.178 NA
HETATM    4  N   UNL     1      42.577 -16.650   7.833  1.00  0.00    -0.262 N 
HETATM    5  H   UNL     1      42.036 -16.513   8.678  1.00  0.00     0.191 HD
HETATM    6  C   UNL     1      42.284 -16.209   6.568  1.00  0.00     0.134 A 
HETATM    7  C   UNL     1      43.339 -16.627   5.770  1.00  0.00     0.032 A 
HETATM    8  C   UNL     1      43.677 -16.348   4.336  1.00  0.00     0.119 C 
HETATM    9  S   UNL     1      42.681 -15.114   3.475  1.00  0.00    -0.141 SA
HETATM   10  C   UNL     1      41.011 -15.707   3.877  1.00  0.00     0.136 C 
HETATM   11  C   UNL     1      40.081 -15.298   2.734  1.00  0.00     0.031 C 
HETATM   12  C   UNL     1      40.539 -15.116   5.199  1.00  0.00     0.236 C 
HETATM   13  O   UNL     1      39.548 -14.384   5.279  1.00  0.00    -0.272 OA
HETATM   14  N   UNL     1      41.138 -15.474   6.374  1.00  0.00    -0.311 N 
HETATM   15  H   UNL     1      40.631 -15.123   7.180  1.00  0.00     0.170 HD
ENDROOT
BRANCH   8  16
HETATM   16  C   UNL     1      43.802 -17.667   3.582  1.00  0.00    -0.039 A 
HETATM   17  C   UNL     1      44.210 -18.811   4.301  1.00  0.00     0.021 A 
HETATM   18  C   UNL     1      44.303 -20.076   3.695  1.00  0.00    -0.025 A 
HETATM   19  C   UNL     1      44.006 -20.206   2.322  1.00  0.00    -0.026 A 
HETATM   20  C   UNL     1      44.671 -21.215   4.430  1.00  0.00     0.012 A 
HETATM   21  C   UNL     1      43.629 -19.068   1.595  1.00  0.00     0.013 A 
HETATM   22  C   UNL     1      44.088 -21.472   1.718  1.00  0.00     0.012 A 
HETATM   23  C   UNL     1      43.525 -17.819   2.215  1.00  0.00     0.009 A 
HETATM   24  C   UNL     1      44.451 -22.595   2.462  1.00  0.00     0.001 A 
HETATM   25  C   UNL     1      44.741 -22.468   3.817  1.00  0.00     0.001 A 
ENDBRANCH   8  16
TORSDOF 1
ENDMDL
MODEL 3
REMARK VINA RESULT:      -8.8      2.570      4.198
REMARK  1 active torsions:
REMARK  status: ('A' for Active; 'I' for Inactive)
REMARK    1  A    between atoms: C_8  and  C_9 
ROOT
HETATM    1  C   UNL     1      41.715 -15.192   1.467  1.00  0.00     0.073 C 
HETATM    2  C   UNL     1      42.439 -14.617   2.634  1.00  0.00     0.062 A 
HETATM    3  N   UNL     1      43.082 -13.457   2.493  1.00  0.00    -0.178 NA
HETATM    4  N   UNL     1      43.572 -13.213   3.709  1.00  0.00    -0.262 N 
HETATM    5  H   UNL     1      44.092 -12.355   3.846  1.00  0.00     0.191 HD
HETATM    6  C   UNL     1      43.326 -14.200   4.629  1.00  0.00     0.134 A 
HETATM    7  C   UNL     1      42.553 -15.145   3.969  1.00  0.00     0.032 A 
HETATM    8  C   UNL     1      41.855 -16.379   4.455  1.00  0.00     0.119 C 
HETATM    9  S   UNL     1      41.812 -16.658   6.238  1.00  0.00    -0.141 SA
HETATM   10  C   UNL     1      43.568 -16.435   6.644  1.00  0.00     0.136 C 
HETATM   11  C   UNL     1      43.879 -17.292   7.871  1.00  0.00     0.031 C 
HETATM   12  C   UNL     1      43.871 -14.967   6.915  1.00  0.00     0.236 C 
HETATM   13  O   UNL     1      44.281 -14.569   8.010  1.00  0.00    -0.272 OA
HETATM   14  N   UNL     1      43.808 -14.046   5.908  1.00  0.00    -0.311 N 
HETATM   15  H   UNL     1      44.175 -13.144   6.195  1.00  0.00     0.170 HD
ENDROOT
BRANCH   8  16
HETATM   16  C   UNL     1      42.345 -17.582   3.660  1.00  0.00    -0.039 A 
HETATM   17  C   UNL     1      43.239 -18.477   4.286  1.00  0.00     0.021 A 
HETATM   18  C   UNL     1      43.702 -19.639   3.644  1.00  0.00    -0.025 A 
HETATM   19  C   UNL     1      43.284 -19.908   2.324  1.00  0.00    -0.026 A 
HETATM   20  C   UNL     1      44.559 -20.543   4.292  1.00  0.00     0.012 A 
HETATM   21  C   UNL     1      42.420 -19.009   1.684  1.00  0.00     0.013 A 
HETATM   22  C   UNL     1      43.737 -21.074   1.684  1.00  0.00     0.012 A 
HETATM   23  C   UNL     1      41.955 -17.866   2.342  1.00  0.00     0.009 A 
HETATM   24  C   UNL     1      44.586 -21.965   2.343  1.00  0.00     0.001 A 
HETATM   25  C   UNL     1      44.995 -21.701   3.646  1.00  0.00     0.001 A 
ENDBRANCH   8  16
TORSDOF 1
ENDMDL
MODEL 4
REMARK VINA RESULT:      -8.5      2.063      2.718
REMARK  1 active torsions:
REMARK  status: ('A' for Active; 'I' for Inactive)
REMARK    1  A    between atoms: C_8  and  C_9 
ROOT
HETATM    1  C   UNL     1      44.874 -14.588   6.750  1.00  0.00     0.073 C 
HETATM    2  C   UNL     1      43.617 -13.972   6.243  1.00  0.00     0.062 A 
HETATM    3  N   UNL     1      43.087 -12.939   6.901  1.00  0.00    -0.178 NA
HETATM    4  N   UNL     1      42.020 -12.610   6.173  1.00  0.00    -0.262 N 
HETATM    5  H   UNL     1      41.463 -11.821   6.480  1.00  0.00     0.191 HD
HETATM    6  C   UNL     1      41.794 -13.427   5.094  1.00  0.00     0.134 A 
HETATM    7  C   UNL     1      42.844 -14.334   5.084  1.00  0.00     0.032 A 
HETATM    8  C   UNL     1      43.242 -15.387   4.094  1.00  0.00     0.119 C 
HETATM    9  S   UNL     1      42.354 -15.425   2.523  1.00  0.00    -0.141 SA
HETATM   10  C   UNL     1      40.638 -15.395   3.119  1.00  0.00     0.136 C 
HETATM   11  C   UNL     1      39.772 -16.120   2.089  1.00  0.00     0.031 C 
HETATM   12  C   UNL     1      40.166 -13.960   3.312  1.00  0.00     0.236 C 
HETATM   13  O   UNL     1      39.222 -13.483   2.673  1.00  0.00    -0.272 OA
HETATM   14  N   UNL     1      40.704 -13.176   4.294  1.00  0.00    -0.311 N 
HETATM   15  H   UNL     1      40.197 -12.304   4.404  1.00  0.00     0.170 HD
ENDROOT
BRANCH   8  16
HETATM   16  C   UNL     1      43.303 -16.739   4.794  1.00  0.00    -0.039 A 
HETATM   17  C   UNL     1      43.972 -17.798   4.143  1.00  0.00     0.021 A 
HETATM   18  C   UNL     1      44.119 -19.063   4.739  1.00  0.00    -0.025 A 
HETATM   19  C   UNL     1      43.559 -19.294   6.012  1.00  0.00    -0.026 A 
HETATM   20  C   UNL     1      44.822 -20.097   4.098  1.00  0.00     0.012 A 
HETATM   21  C   UNL     1      42.867 -18.256   6.652  1.00  0.00     0.013 A 
HETATM   22  C   UNL     1      43.715 -20.554   6.613  1.00  0.00     0.012 A 
HETATM   23  C   UNL     1      42.743 -16.998   6.054  1.00  0.00     0.009 A 
HETATM   24  C   UNL     1      44.420 -21.570   5.966  1.00  0.00     0.001 A 
HETATM   25  C   UNL     1      44.975 -21.342   4.711  1.00  0.00     0.001 A 
ENDBRANCH   8  16
TORSDOF 1
ENDMDL
MODEL 5
REMARK VINA RESULT:      -8.4      3.661      6.826
REMARK  1 active torsions:
REMARK  status: ('A' for Active; 'I' for Inactive)
REMARK    1  A    between atoms: C_8  and  C_9 
ROOT
HETATM    1  C   UNL     1      43.551 -16.642   1.743  1.00  0.00     0.073 C 
HETATM    2  C   UNL     1      43.730 -18.057   2.169  1.00  0.00     0.062 A 
HETATM    3  N   UNL     1      43.615 -19.029   1.263  1.00  0.00    -0.178 NA
HETATM    4  N   UNL     1      43.871 -20.141   1.952  1.00  0.00    -0.262 N 
HETATM    5  H   UNL     1      43.859 -21.021   1.451  1.00  0.00     0.191 HD
HETATM    6  C   UNL     1      44.090 -19.941   3.292  1.00  0.00     0.134 A 
HETATM    7  C   UNL     1      44.032 -18.568   3.481  1.00  0.00     0.032 A 
HETATM    8  C   UNL     1      44.319 -17.713   4.679  1.00  0.00     0.119 C 
HETATM    9  S   UNL     1      45.047 -18.522   6.118  1.00  0.00    -0.141 SA
HETATM   10  C   UNL     1      43.918 -19.932   6.305  1.00  0.00     0.136 C 
HETATM   11  C   UNL     1      43.884 -20.313   7.786  1.00  0.00     0.031 C 
HETATM   12  C   UNL     1      44.383 -21.106   5.453  1.00  0.00     0.236 C 
HETATM   13  O   UNL     1      44.710 -22.190   5.944  1.00  0.00    -0.272 OA
HETATM   14  N   UNL     1      44.345 -21.032   4.088  1.00  0.00    -0.311 N 
HETATM   15  H   UNL     1      44.541 -21.929   3.655  1.00  0.00     0.170 HD
ENDROOT
BRANCH   8  16
HETATM   16  C   UNL     1      43.088 -16.876   5.006  1.00  0.00    -0.039 A 
HETATM   17  C   UNL     1      43.254 -15.486   5.183  1.00  0.00     0.021 A 
HETATM   18  C   UNL     1      42.166 -14.632   5.437  1.00  0.00    -0.025 A 
HETATM   19  C   UNL     1      40.872 -15.182   5.548  1.00  0.00    -0.026 A 
HETATM   20  C   UNL     1      42.339 -13.245   5.570  1.00  0.00     0.012 A 
HETATM   21  C   UNL     1      40.703 -16.566   5.405  1.00  0.00     0.013 A 
HETATM   22  C   UNL     1      39.783 -14.329   5.792  1.00  0.00     0.012 A 
HETATM   23  C   UNL     1      41.793 -17.399   5.135  1.00  0.00     0.009 A 
HETATM   24  C   UNL     1      39.969 -12.951   5.918  1.00  0.00     0.001 A 
HETATM   25  C   UNL     1      41.245 -12.409   5.805  1.00  0.00     0.001 A 
ENDBRANCH   8  16
TORSDOF 1
ENDMDL
MODEL 6
REMARK VINA RESULT:      -8.1      2.983      6.100
REMARK  1 active torsions:
REMARK  status: ('A' for Active; 'I' for Inactive)
REMARK    1  A    between atoms: C_8  and  C_9 
ROOT
HETATM    1  C   UNL     1      40.420 -12.705   5.041  1.00  0.00     0.073 C 
HETATM    2  C   UNL     1      41.597 -13.457   5.559  1.00  0.00     0.062 A 
HETATM    3  N   UNL     1      42.500 -12.819   6.304  1.00  0.00    -0.178 NA
HETATM    4  N   UNL     1      43.375 -13.771   6.631  1.00  0.00    -0.262 N 
HETATM    5  H   UNL     1      44.154 -13.513   7.224  1.00  0.00     0.191 HD
HETATM    6  C   UNL     1      43.112 -14.998   6.076  1.00  0.00     0.134 A 
HETATM    7  C   UNL     1      41.925 -14.847   5.374  1.00  0.00     0.032 A 
HETATM    8  C   UNL     1      41.050 -15.839   4.670  1.00  0.00     0.119 C 
HETATM    9  S   UNL     1      41.446 -17.587   4.878  1.00  0.00    -0.141 SA
HETATM   10  C   UNL     1      43.221 -17.566   4.495  1.00  0.00     0.136 C 
HETATM   11  C   UNL     1      43.592 -18.932   3.916  1.00  0.00     0.031 C 
HETATM   12  C   UNL     1      44.035 -17.268   5.747  1.00  0.00     0.236 C 
HETATM   13  O   UNL     1      44.850 -18.070   6.212  1.00  0.00    -0.272 OA
HETATM   14  N   UNL     1      43.971 -16.039   6.342  1.00  0.00    -0.311 N 
HETATM   15  H   UNL     1      44.669 -15.934   7.071  1.00  0.00     0.170 HD
ENDROOT
BRANCH   8  16
HETATM   16  C   UNL     1      40.883 -15.420   3.214  1.00  0.00    -0.039 A 
HETATM   17  C   UNL     1      39.588 -15.091   2.759  1.00  0.00     0.021 A 
HETATM   18  C   UNL     1      39.352 -14.646   1.446  1.00  0.00    -0.025 A 
HETATM   19  C   UNL     1      40.434 -14.551   0.546  1.00  0.00    -0.026 A 
HETATM   20  C   UNL     1      38.065 -14.283   1.016  1.00  0.00     0.012 A 
HETATM   21  C   UNL     1      41.718 -14.905   0.982  1.00  0.00     0.013 A 
HETATM   22  C   UNL     1      40.200 -14.097  -0.763  1.00  0.00     0.012 A 
HETATM   23  C   UNL     1      41.940 -15.330   2.296  1.00  0.00     0.009 A 
HETATM   24  C   UNL     1      38.917 -13.736  -1.174  1.00  0.00     0.001 A 
HETATM   25  C   UNL     1      37.850 -13.827  -0.286  1.00  0.00     0.001 A 
ENDBRANCH   8  16
TORSDOF 1
ENDMDL
MODEL 7
REMARK VINA RESULT:      -8.0      3.285      6.553
REMARK  1 active torsions:
REMARK  status: ('A' for Active; 'I' for Inactive)
REMARK    1  A    between atoms: C_8  and  C_9 
ROOT
HETATM    1  C   UNL     1      43.729 -17.834   0.699  1.00  0.00     0.073 C 
HETATM    2  C   UNL     1      43.878 -18.642   1.941  1.00  0.00     0.062 A 
HETATM    3  N   UNL     1      44.175 -19.938   1.841  1.00  0.00    -0.178 NA
HETATM    4  N   UNL     1      44.277 -20.341   3.109  1.00  0.00    -0.262 N 
HETATM    5  H   UNL     1      44.521 -21.309   3.278  1.00  0.00     0.191 HD
HETATM    6  C   UNL     1      43.996 -19.371   4.037  1.00  0.00     0.134 A 
HETATM    7  C   UNL     1      43.748 -18.215   3.310  1.00  0.00     0.032 A 
HETATM    8  C   UNL     1      43.519 -16.798   3.739  1.00  0.00     0.119 C 
HETATM    9  S   UNL     1      43.772 -16.409   5.483  1.00  0.00    -0.141 SA
HETATM   10  C   UNL     1      42.783 -17.722   6.256  1.00  0.00     0.136 C 
HETATM   11  C   UNL     1      42.271 -17.197   7.597  1.00  0.00     0.031 C 
HETATM   12  C   UNL     1      43.623 -18.978   6.449  1.00  0.00     0.236 C 
HETATM   13  O   UNL     1      43.856 -19.451   7.566  1.00  0.00    -0.272 OA
HETATM   14  N   UNL     1      44.056 -19.698   5.371  1.00  0.00    -0.311 N 
HETATM   15  H   UNL     1      44.473 -20.581   5.648  1.00  0.00     0.170 HD
ENDROOT
BRANCH   8  16
HETATM   16  C   UNL     1      42.180 -16.316   3.194  1.00  0.00    -0.039 A 
HETATM   17  C   UNL     1      42.024 -14.940   2.926  1.00  0.00     0.021 A 
HETATM   18  C   UNL     1      40.841 -14.418   2.375  1.00  0.00    -0.025 A 
HETATM   19  C   UNL     1      39.765 -15.288   2.106  1.00  0.00    -0.026 A 
HETATM   20  C   UNL     1      40.712 -13.051   2.076  1.00  0.00     0.012 A 
HETATM   21  C   UNL     1      39.901 -16.653   2.397  1.00  0.00     0.013 A 
HETATM   22  C   UNL     1      38.585 -14.770   1.545  1.00  0.00     0.012 A 
HETATM   23  C   UNL     1      41.090 -17.160   2.929  1.00  0.00     0.009 A 
HETATM   24  C   UNL     1      38.474 -13.411   1.249  1.00  0.00     0.001 A 
HETATM   25  C   UNL     1      39.536 -12.552   1.512  1.00  0.00     0.001 A 
ENDBRANCH   8  16
TORSDOF 1
ENDMDL
MODEL 8
REMARK VINA RESULT:      -7.9      3.515      6.292
REMARK  1 active torsions:
REMARK  status: ('A' for Active; 'I' for Inactive)
REMARK    1  A    between atoms: C_8  and  C_9 
ROOT
HETATM    1  C   UNL     1      42.056 -16.831   3.099  1.00  0.00     0.073 C 
HETATM    2  C   UNL     1      41.336 -16.262   4.271  1.00  0.00     0.062 A 
HETATM    3  N   UNL     1      40.886 -17.084   5.220  1.00  0.00    -0.178 NA
HETATM    4  N   UNL     1      40.344 -16.264   6.122  1.00  0.00    -0.262 N 
HETATM    5  H   UNL     1      39.947 -16.677   6.957  1.00  0.00     0.191 HD
HETATM    6  C   UNL     1      40.366 -14.939   5.770  1.00  0.00     0.134 A 
HETATM    7  C   UNL     1      41.039 -14.883   4.558  1.00  0.00     0.032 A 
HETATM    8  C   UNL     1      41.505 -13.724   3.729  1.00  0.00     0.119 C 
HETATM    9  S   UNL     1      41.364 -12.077   4.453  1.00  0.00    -0.141 SA
HETATM   10  C   UNL     1      39.634 -12.112   5.006  1.00  0.00     0.136 C 
HETATM   11  C   UNL     1      39.104 -10.678   4.976  1.00  0.00     0.031 C 
HETATM   12  C   UNL     1      39.533 -12.700   6.407  1.00  0.00     0.236 C 
HETATM   13  O   UNL     1      39.102 -12.052   7.365  1.00  0.00    -0.272 OA
HETATM   14  N   UNL     1      39.813 -14.019   6.630  1.00  0.00    -0.311 N 
HETATM   15  H   UNL     1      39.563 -14.306   7.570  1.00  0.00     0.170 HD
ENDROOT
BRANCH   8  16
HETATM   16  C   UNL     1      40.905 -13.830   2.332  1.00  0.00    -0.039 A 
HETATM   17  C   UNL     1      41.725 -13.515   1.228  1.00  0.00     0.021 A 
HETATM   18  C   UNL     1      41.268 -13.634  -0.097  1.00  0.00    -0.025 A 
HETATM   19  C   UNL     1      39.942 -14.054  -0.332  1.00  0.00    -0.026 A 
HETATM   20  C   UNL     1      42.106 -13.356  -1.189  1.00  0.00     0.012 A 
HETATM   21  C   UNL     1      39.113 -14.340   0.760  1.00  0.00     0.013 A 
HETATM   22  C   UNL     1      39.488 -14.183  -1.655  1.00  0.00     0.012 A 
HETATM   23  C   UNL     1      39.586 -14.233   2.071  1.00  0.00     0.009 A 
HETATM   24  C   UNL     1      40.334 -13.907  -2.731  1.00  0.00     0.001 A 
HETATM   25  C   UNL     1      41.642 -13.496  -2.498  1.00  0.00     0.001 A 
ENDBRANCH   8  16
TORSDOF 1
ENDMDL
MODEL 9
REMARK VINA RESULT:      -7.8      3.086      6.279
REMARK  1 active torsions:
REMARK  status: ('A' for Active; 'I' for Inactive)
REMARK    1  A    between atoms: C_8  and  C_9 
ROOT
HETATM    1  C   UNL     1      42.600 -18.060   1.558  1.00  0.00     0.073 C 
HETATM    2  C   UNL     1      42.980 -17.895   2.988  1.00  0.00     0.062 A 
HETATM    3  N   UNL     1      43.150 -18.980   3.745  1.00  0.00    -0.178 NA
HETATM    4  N   UNL     1      43.521 -18.489   4.928  1.00  0.00    -0.262 N 
HETATM    5  H   UNL     1      43.727 -19.148   5.669  1.00  0.00     0.191 HD
HETATM    6  C   UNL     1      43.540 -17.119   4.994  1.00  0.00     0.134 A 
HETATM    7  C   UNL     1      43.211 -16.677   3.720  1.00  0.00     0.032 A 
HETATM    8  C   UNL     1      43.195 -15.306   3.114  1.00  0.00     0.119 C 
HETATM    9  S   UNL     1      43.882 -13.958   4.096  1.00  0.00    -0.141 SA
HETATM   10  C   UNL     1      43.013 -14.225   5.669  1.00  0.00     0.136 C 
HETATM   11  C   UNL     1      42.873 -12.870   6.364  1.00  0.00     0.031 C 
HETATM   12  C   UNL     1      43.781 -15.207   6.543  1.00  0.00     0.236 C 
HETATM   13  O   UNL     1      44.238 -14.892   7.646  1.00  0.00    -0.272 OA
HETATM   14  N   UNL     1      43.892 -16.521   6.181  1.00  0.00    -0.311 N 
HETATM   15  H   UNL     1      44.297 -17.085   6.921  1.00  0.00     0.170 HD
ENDROOT
BRANCH   8  16
HETATM   16  C   UNL     1      41.803 -15.015   2.566  1.00  0.00    -0.039 A 
HETATM   17  C   UNL     1      41.696 -14.491   1.260  1.00  0.00     0.021 A 
HETATM   18  C   UNL     1      40.450 -14.240   0.658  1.00  0.00    -0.025 A 
HETATM   19  C   UNL     1      39.270 -14.493   1.388  1.00  0.00    -0.026 A 
HETATM   20  C   UNL     1      40.356 -13.757  -0.657  1.00  0.00     0.012 A 
HETATM   21  C   UNL     1      39.369 -14.985   2.696  1.00  0.00     0.013 A 
HETATM   22  C   UNL     1      38.025 -14.253   0.784  1.00  0.00     0.012 A 
HETATM   23  C   UNL     1      40.615 -15.245   3.276  1.00  0.00     0.009 A 
HETATM   24  C   UNL     1      37.947 -13.776  -0.526  1.00  0.00     0.001 A 
HETATM   25  C   UNL     1      39.111 -13.530  -1.247  1.00  0.00     0.001 A 
ENDBRANCH   8  16
TORSDOF 1
ENDMDL
MODEL 10
REMARK VINA RESULT:      -7.8      2.656      4.225
REMARK  1 active torsions:
REMARK  status: ('A' for Active; 'I' for Inactive)
REMARK    1  A    between atoms: C_8  and  C_9 
ROOT
HETATM    1  C   UNL     1      41.550 -16.313  -0.141  1.00  0.00     0.073 C 
HETATM    2  C   UNL     1      41.650 -14.922   0.379  1.00  0.00     0.062 A 
HETATM    3  N   UNL     1      42.012 -13.942  -0.451  1.00  0.00    -0.178 NA
HETATM    4  N   UNL     1      41.960 -12.846   0.308  1.00  0.00    -0.262 N 
HETATM    5  H   UNL     1      42.182 -11.959  -0.128  1.00  0.00     0.191 HD
HETATM    6  C   UNL     1      41.638 -13.078   1.621  1.00  0.00     0.134 A 
HETATM    7  C   UNL     1      41.398 -14.442   1.713  1.00  0.00     0.032 A 
HETATM    8  C   UNL     1      40.879 -15.289   2.835  1.00  0.00     0.119 C 
HETATM    9  S   UNL     1      40.265 -14.436   4.302  1.00  0.00    -0.141 SA
HETATM   10  C   UNL     1      41.655 -13.313   4.630  1.00  0.00     0.136 C 
HETATM   11  C   UNL     1      41.694 -13.041   6.134  1.00  0.00     0.031 C 
HETATM   12  C   UNL     1      41.488 -12.016   3.848  1.00  0.00     0.236 C 
HETATM   13  O   UNL     1      41.372 -10.920   4.404  1.00  0.00    -0.272 OA
HETATM   14  N   UNL     1      41.578 -12.010   2.484  1.00  0.00    -0.311 N 
HETATM   15  H   UNL     1      41.596 -11.067   2.110  1.00  0.00     0.170 HD
ENDROOT
BRANCH   8  16
HETATM   16  C   UNL     1      41.889 -16.388   3.145  1.00  0.00    -0.039 A 
HETATM   17  C   UNL     1      41.830 -17.581   2.394  1.00  0.00     0.021 A 
HETATM   18  C   UNL     1      42.754 -18.624   2.580  1.00  0.00    -0.025 A 
HETATM   19  C   UNL     1      43.754 -18.490   3.565  1.00  0.00    -0.026 A 
HETATM   20  C   UNL     1      42.709 -19.790   1.798  1.00  0.00     0.012 A 
HETATM   21  C   UNL     1      43.801 -17.321   4.336  1.00  0.00     0.013 A 
HETATM   22  C   UNL     1      44.684 -19.528   3.744  1.00  0.00     0.012 A 
HETATM   23  C   UNL     1      42.885 -16.285   4.128  1.00  0.00     0.009 A 
HETATM   24  C   UNL     1      44.630 -20.679   2.957  1.00  0.00     0.001 A 
HETATM   25  C   UNL     1      43.645 -20.809   1.983  1.00  0.00     0.001 A 
ENDBRANCH   8  16
TORSDOF 1
ENDMDL
