MODEL 1
REMARK VINA RESULT:      -7.7      0.000      0.000
REMARK  9 active torsions:
REMARK  status: ('A' for Active; 'I' for Inactive)
REMARK       I    between atoms: N_2  and  C_3 
REMARK    1  A    between atoms: C_3  and  C_4 
REMARK    2  A    between atoms: C_7  and  N_8 
REMARK       I    between atoms: N_8  and  C_9 
REMARK    3  A    between atoms: C_9  and  C_10 
REMARK    4  A    between atoms: C_10  and  O_11 
REMARK    5  A    between atoms: O_11  and  C_12 
REMARK    6  A    between atoms: C_12  and  C_13 
REMARK    7  A    between atoms: C_14  and  N_15 
REMARK    8  A    between atoms: N_15  and  C_16 
REMARK    9  A    between atoms: C_16  and  C_17 
ROOT
HETATM    1  O   UNL     1      45.092 -18.597   5.709  1.00  0.00    -0.308 OA
ENDROOT
BRANCH   1   2
HETATM    2  C   UNL     1      45.074 -17.780   6.885  1.00  0.00     0.282 C 
BRANCH   2   3
HETATM    3  C   UNL     1      44.351 -16.454   6.631  1.00  0.00     0.246 C 
HETATM    4  N   UNL     1      43.457 -16.521   5.576  1.00  0.00    -0.325 N 
HETATM    5  H   UNL     1      43.473 -17.382   5.028  1.00  0.00     0.169 HD
HETATM    6  O   UNL     1      44.579 -15.469   7.328  1.00  0.00    -0.271 OA
BRANCH   4   7
HETATM    7  C   UNL     1      42.488 -15.571   5.204  1.00  0.00     0.034 A 
HETATM    8  C   UNL     1      41.135 -15.659   5.546  1.00  0.00     0.030 A 
HETATM    9  C   UNL     1      40.227 -14.693   5.102  1.00  0.00     0.019 A 
HETATM   10  C   UNL     1      40.674 -13.623   4.321  1.00  0.00     0.032 A 
HETATM   11  C   UNL     1      42.017 -13.538   3.953  1.00  0.00     0.019 A 
HETATM   12  C   UNL     1      42.921 -14.504   4.404  1.00  0.00     0.030 A 
BRANCH  10  13
HETATM   13  C   UNL     1      39.725 -12.609   3.811  1.00  0.00     0.253 C 
HETATM   14  N   UNL     1      39.390 -11.531   4.626  1.00  0.00    -0.357 N 
HETATM   15  C   UNL     1      38.338 -10.629   4.189  1.00  0.00     0.152 C 
HETATM   16  C   UNL     1      40.118 -11.134   5.824  1.00  0.00     0.152 C 
HETATM   17  O   UNL     1      39.270 -12.779   2.682  1.00  0.00    -0.267 OA
ENDBRANCH  10  13
ENDBRANCH   4   7
ENDBRANCH   2   3
ENDBRANCH   1   2
BRANCH   1  18
HETATM   18  C   UNL     1      44.321 -19.709   5.763  1.00  0.00     0.295 C 
HETATM   19  O   UNL     1      43.734 -20.125   6.751  1.00  0.00    -0.259 OA
BRANCH  18  20
HETATM   20  C   UNL     1      44.354 -20.416   4.467  1.00  0.00     0.060 A 
HETATM   21  C   UNL     1      43.989 -19.749   3.277  1.00  0.00     0.025 A 
HETATM   22  C   UNL     1      44.038 -20.503   2.093  1.00  0.00     0.024 A 
HETATM   23  C   UNL     1      44.358 -21.867   2.100  1.00  0.00     0.002 A 
HETATM   24  C   UNL     1      44.672 -22.510   3.292  1.00  0.00     0.001 A 
HETATM   25  C   UNL     1      44.678 -21.785   4.477  1.00  0.00     0.019 A 
BRANCH  21  26
HETATM   26  N   UNL     1      43.748 -18.365   3.277  1.00  0.00    -0.286 NA
HETATM   27  H   UNL     1      42.961 -18.123   3.885  1.00  0.00     0.128 HD
BRANCH  26  28
HETATM   28  C   UNL     1      43.699 -17.615   2.022  1.00  0.00     0.157 C 
BRANCH  28  29
HETATM   29  C   UNL     1      42.389 -16.948   1.765  1.00  0.00     0.065 A 
HETATM   30  O   UNL     1      42.416 -15.819   0.999  1.00  0.00    -0.326 OA
HETATM   31  C   UNL     1      41.140 -15.364   0.916  1.00  0.00     0.142 A 
HETATM   32  C   UNL     1      40.290 -16.183   1.620  1.00  0.00     0.027 A 
HETATM   33  C   UNL     1      41.095 -17.208   2.171  1.00  0.00     0.036 A 
ENDBRANCH  28  29
ENDBRANCH  26  28
ENDBRANCH  21  26
ENDBRANCH  18  20
ENDBRANCH   1  18
TORSDOF 9
ENDMDL
MODEL 2
REMARK VINA RESULT:      -7.3      4.364      7.836
REMARK  9 active torsions:
REMARK  status: ('A' for Active; 'I' for Inactive)
REMARK       I    between atoms: N_2  and  C_3 
REMARK    1  A    between atoms: C_3  and  C_4 
REMARK    2  A    between atoms: C_7  and  N_8 
REMARK       I    between atoms: N_8  and  C_9 
REMARK    3  A    between atoms: C_9  and  C_10 
REMARK    4  A    between atoms: C_10  and  O_11 
REMARK    5  A    between atoms: O_11  and  C_12 
REMARK    6  A    between atoms: C_12  and  C_13 
REMARK    7  A    between atoms: C_14  and  N_15 
REMARK    8  A    between atoms: N_15  and  C_16 
REMARK    9  A    between atoms: C_16  and  C_17 
ROOT
HETATM    1  O   UNL     1      44.864 -12.901   8.937  1.00  0.00    -0.308 OA
ENDROOT
BRANCH   1   2
HETATM    2  C   UNL     1      45.358 -13.396   7.688  1.00  0.00     0.282 C 
BRANCH   2   3
HETATM    3  C   UNL     1      44.270 -14.147   6.916  1.00  0.00     0.246 C 
HETATM    4  N   UNL     1      43.331 -13.302   6.349  1.00  0.00    -0.325 N 
HETATM    5  H   UNL     1      43.399 -12.318   6.608  1.00  0.00     0.169 HD
HETATM    6  O   UNL     1      44.286 -15.372   6.837  1.00  0.00    -0.271 OA
BRANCH   4   7
HETATM    7  C   UNL     1      42.329 -13.627   5.415  1.00  0.00     0.034 A 
HETATM    8  C   UNL     1      41.056 -14.090   5.763  1.00  0.00     0.030 A 
HETATM    9  C   UNL     1      40.131 -14.431   4.772  1.00  0.00     0.019 A 
HETATM   10  C   UNL     1      40.474 -14.297   3.423  1.00  0.00     0.032 A 
HETATM   11  C   UNL     1      41.749 -13.861   3.064  1.00  0.00     0.019 A 
HETATM   12  C   UNL     1      42.668 -13.517   4.059  1.00  0.00     0.030 A 
BRANCH  10  13
HETATM   13  C   UNL     1      39.522 -14.685   2.359  1.00  0.00     0.253 C 
HETATM   14  N   UNL     1      38.640 -13.728   1.862  1.00  0.00    -0.357 N 
HETATM   15  C   UNL     1      37.602 -14.153   0.938  1.00  0.00     0.152 C 
HETATM   16  C   UNL     1      38.765 -12.292   2.072  1.00  0.00     0.152 C 
HETATM   17  O   UNL     1      39.556 -15.851   1.969  1.00  0.00    -0.267 OA
ENDBRANCH  10  13
ENDBRANCH   4   7
ENDBRANCH   2   3
ENDBRANCH   1   2
BRANCH   1  18
HETATM   18  C   UNL     1      45.143 -11.601   9.198  1.00  0.00     0.295 C 
HETATM   19  O   UNL     1      46.136 -10.994   8.825  1.00  0.00    -0.259 OA
BRANCH  18  20
HETATM   20  C   UNL     1      44.112 -11.026  10.085  1.00  0.00     0.060 A 
HETATM   21  C   UNL     1      42.809 -10.775   9.600  1.00  0.00     0.025 A 
HETATM   22  C   UNL     1      41.898 -10.216  10.510  1.00  0.00     0.024 A 
HETATM   23  C   UNL     1      42.279  -9.853  11.809  1.00  0.00     0.002 A 
HETATM   24  C   UNL     1      43.581 -10.071  12.247  1.00  0.00     0.001 A 
HETATM   25  C   UNL     1      44.498 -10.665  11.389  1.00  0.00     0.019 A 
BRANCH  21  26
HETATM   26  N   UNL     1      42.422 -11.216   8.324  1.00  0.00    -0.286 NA
HETATM   27  H   UNL     1      43.183 -11.114   7.647  1.00  0.00     0.128 HD
BRANCH  26  28
HETATM   28  C   UNL     1      41.141 -10.807   7.749  1.00  0.00     0.157 C 
BRANCH  28  29
HETATM   29  C   UNL     1      41.265 -10.053   6.467  1.00  0.00     0.065 A 
HETATM   30  O   UNL     1      41.865  -8.828   6.534  1.00  0.00    -0.326 OA
HETATM   31  C   UNL     1      41.847  -8.308   5.280  1.00  0.00     0.142 A 
HETATM   32  C   UNL     1      41.243  -9.180   4.405  1.00  0.00     0.027 A 
HETATM   33  C   UNL     1      40.865 -10.308   5.171  1.00  0.00     0.036 A 
ENDBRANCH  28  29
ENDBRANCH  26  28
ENDBRANCH  21  26
ENDBRANCH  18  20
ENDBRANCH   1  18
TORSDOF 9
ENDMDL
MODEL 3
REMARK VINA RESULT:      -7.2      2.013      7.179
REMARK  9 active torsions:
REMARK  status: ('A' for Active; 'I' for Inactive)
REMARK       I    between atoms: N_2  and  C_3 
REMARK    1  A    between atoms: C_3  and  C_4 
REMARK    2  A    between atoms: C_7  and  N_8 
REMARK       I    between atoms: N_8  and  C_9 
REMARK    3  A    between atoms: C_9  and  C_10 
REMARK    4  A    between atoms: C_10  and  O_11 
REMARK    5  A    between atoms: O_11  and  C_12 
REMARK    6  A    between atoms: C_12  and  C_13 
REMARK    7  A    between atoms: C_14  and  N_15 
REMARK    8  A    between atoms: N_15  and  C_16 
REMARK    9  A    between atoms: C_16  and  C_17 
ROOT
HETATM    1  O   UNL     1      41.256 -12.581   4.693  1.00  0.00    -0.308 OA
ENDROOT
BRANCH   1   2
HETATM    2  C   UNL     1      42.290 -12.817   5.655  1.00  0.00     0.282 C 
BRANCH   2   3
HETATM    3  C   UNL     1      42.994 -14.153   5.401  1.00  0.00     0.246 C 
HETATM    4  N   UNL     1      42.838 -15.051   6.444  1.00  0.00    -0.325 N 
HETATM    5  H   UNL     1      42.392 -14.687   7.286  1.00  0.00     0.169 HD
HETATM    6  O   UNL     1      43.613 -14.351   4.360  1.00  0.00    -0.271 OA
BRANCH   4   7
HETATM    7  C   UNL     1      43.166 -16.420   6.461  1.00  0.00     0.034 A 
HETATM    8  C   UNL     1      44.292 -16.946   7.101  1.00  0.00     0.030 A 
HETATM    9  C   UNL     1      44.569 -18.315   7.037  1.00  0.00     0.019 A 
HETATM   10  C   UNL     1      43.710 -19.168   6.337  1.00  0.00     0.032 A 
HETATM   11  C   UNL     1      42.597 -18.651   5.674  1.00  0.00     0.019 A 
HETATM   12  C   UNL     1      42.322 -17.282   5.746  1.00  0.00     0.030 A 
BRANCH  10  13
HETATM   13  C   UNL     1      44.004 -20.613   6.227  1.00  0.00     0.253 C 
HETATM   14  N   UNL     1      44.679 -21.079   5.101  1.00  0.00    -0.357 N 
HETATM   15  C   UNL     1      44.820 -22.514   4.920  1.00  0.00     0.152 C 
HETATM   16  C   UNL     1      45.400 -20.238   4.155  1.00  0.00     0.152 C 
HETATM   17  O   UNL     1      43.624 -21.338   7.144  1.00  0.00    -0.267 OA
ENDBRANCH  10  13
ENDBRANCH   4   7
ENDBRANCH   2   3
ENDBRANCH   1   2
BRANCH   1  18
HETATM   18  C   UNL     1      40.203 -13.431   4.753  1.00  0.00     0.295 C 
HETATM   19  O   UNL     1      39.892 -14.118   5.715  1.00  0.00    -0.259 OA
BRANCH  18  20
HETATM   20  C   UNL     1      39.517 -13.485   3.447  1.00  0.00     0.060 A 
HETATM   21  C   UNL     1      39.596 -14.644   2.644  1.00  0.00     0.025 A 
HETATM   22  C   UNL     1      38.923 -14.602   1.412  1.00  0.00     0.024 A 
HETATM   23  C   UNL     1      38.271 -13.444   0.966  1.00  0.00     0.002 A 
HETATM   24  C   UNL     1      38.246 -12.302   1.758  1.00  0.00     0.001 A 
HETATM   25  C   UNL     1      38.862 -12.322   3.003  1.00  0.00     0.019 A 
BRANCH  21  26
HETATM   26  N   UNL     1      40.185 -15.820   3.139  1.00  0.00    -0.286 NA
HETATM   27  H   UNL     1      41.026 -15.615   3.684  1.00  0.00     0.128 HD
BRANCH  26  28
HETATM   28  C   UNL     1      40.384 -16.979   2.268  1.00  0.00     0.157 C 
BRANCH  28  29
HETATM   29  C   UNL     1      41.817 -17.348   2.072  1.00  0.00     0.065 A 
HETATM   30  O   UNL     1      42.716 -16.322   2.047  1.00  0.00    -0.326 OA
HETATM   31  C   UNL     1      43.939 -16.870   1.830  1.00  0.00     0.142 A 
HETATM   32  C   UNL     1      43.841 -18.236   1.713  1.00  0.00     0.027 A 
HETATM   33  C   UNL     1      42.470 -18.548   1.868  1.00  0.00     0.036 A 
ENDBRANCH  28  29
ENDBRANCH  26  28
ENDBRANCH  21  26
ENDBRANCH  18  20
ENDBRANCH   1  18
TORSDOF 9
ENDMDL
MODEL 4
REMARK VINA RESULT:      -7.2      1.767      3.916
REMARK  9 active torsions:
REMARK  status: ('A' for Active; 'I' for Inactive)
REMARK       I    between atoms: N_2  and  C_3 
REMARK    1  A    between atoms: C_3  and  C_4 
REMARK    2  A    between atoms: C_7  and  N_8 
REMARK       I    between atoms: N_8  and  C_9 
REMARK    3  A    between atoms: C_9  and  C_10 
REMARK    4  A    between atoms: C_10  and  O_11 
REMARK    5  A    between atoms: O_11  and  C_12 
REMARK    6  A    between atoms: C_12  and  C_13 
REMARK    7  A    between atoms: C_14  and  N_15 
REMARK    8  A    between atoms: N_15  and  C_16 
REMARK    9  A    between atoms: C_16  and  C_17 
ROOT
HETATM    1  O   UNL     1      42.450 -17.969   2.801  1.00  0.00    -0.308 OA
ENDROOT
BRANCH   1   2
HETATM    2  C   UNL     1      41.534 -17.459   1.825  1.00  0.00     0.282 C 
BRANCH   2   3
HETATM    3  C   UNL     1      40.671 -16.335   2.405  1.00  0.00     0.246 C 
HETATM    4  N   UNL     1      41.228 -15.755   3.532  1.00  0.00    -0.325 N 
HETATM    5  H   UNL     1      42.060 -16.211   3.907  1.00  0.00     0.169 HD
HETATM    6  O   UNL     1      39.608 -16.021   1.876  1.00  0.00    -0.271 OA
BRANCH   4   7
HETATM    7  C   UNL     1      40.820 -14.578   4.188  1.00  0.00     0.034 A 
HETATM    8  C   UNL     1      40.054 -14.561   5.358  1.00  0.00     0.030 A 
HETATM    9  C   UNL     1      39.655 -13.348   5.926  1.00  0.00     0.019 A 
HETATM   10  C   UNL     1      40.032 -12.141   5.330  1.00  0.00     0.032 A 
HETATM   11  C   UNL     1      40.775 -12.146   4.149  1.00  0.00     0.019 A 
HETATM   12  C   UNL     1      41.176 -13.362   3.588  1.00  0.00     0.030 A 
BRANCH  10  13
HETATM   13  C   UNL     1      39.591 -10.847   5.894  1.00  0.00     0.253 C 
HETATM   14  N   UNL     1      40.325 -10.281   6.934  1.00  0.00    -0.357 N 
HETATM   15  C   UNL     1      39.799  -9.097   7.592  1.00  0.00     0.152 C 
HETATM   16  C   UNL     1      41.669 -10.686   7.321  1.00  0.00     0.152 C 
HETATM   17  O   UNL     1      38.580 -10.337   5.415  1.00  0.00    -0.267 OA
ENDBRANCH  10  13
ENDBRANCH   4   7
ENDBRANCH   2   3
ENDBRANCH   1   2
BRANCH   1  18
HETATM   18  C   UNL     1      43.663 -18.336   2.323  1.00  0.00     0.295 C 
HETATM   19  O   UNL     1      44.398 -17.645   1.632  1.00  0.00    -0.259 OA
BRANCH  18  20
HETATM   20  C   UNL     1      43.948 -19.740   2.678  1.00  0.00     0.060 A 
HETATM   21  C   UNL     1      44.559 -20.058   3.910  1.00  0.00     0.025 A 
HETATM   22  C   UNL     1      44.804 -21.418   4.158  1.00  0.00     0.024 A 
HETATM   23  C   UNL     1      44.528 -22.404   3.202  1.00  0.00     0.002 A 
HETATM   24  C   UNL     1      43.967 -22.059   1.978  1.00  0.00     0.001 A 
HETATM   25  C   UNL     1      43.669 -20.728   1.715  1.00  0.00     0.019 A 
BRANCH  21  26
HETATM   26  N   UNL     1      44.756 -19.068   4.888  1.00  0.00    -0.286 NA
HETATM   27  H   UNL     1      45.684 -19.142   5.312  1.00  0.00     0.128 HD
BRANCH  26  28
HETATM   28  C   UNL     1      43.730 -18.801   5.897  1.00  0.00     0.157 C 
BRANCH  28  29
HETATM   29  C   UNL     1      43.713 -17.390   6.383  1.00  0.00     0.065 A 
HETATM   30  O   UNL     1      43.750 -16.413   5.429  1.00  0.00    -0.326 OA
HETATM   31  C   UNL     1      43.757 -15.222   6.081  1.00  0.00     0.142 A 
HETATM   32  C   UNL     1      43.726 -15.416   7.441  1.00  0.00     0.027 A 
HETATM   33  C   UNL     1      43.699 -16.817   7.639  1.00  0.00     0.036 A 
ENDBRANCH  28  29
ENDBRANCH  26  28
ENDBRANCH  21  26
ENDBRANCH  18  20
ENDBRANCH   1  18
TORSDOF 9
ENDMDL
MODEL 5
REMARK VINA RESULT:      -7.1      4.002      8.506
REMARK  9 active torsions:
REMARK  status: ('A' for Active; 'I' for Inactive)
REMARK       I    between atoms: N_2  and  C_3 
REMARK    1  A    between atoms: C_3  and  C_4 
REMARK    2  A    between atoms: C_7  and  N_8 
REMARK       I    between atoms: N_8  and  C_9 
REMARK    3  A    between atoms: C_9  and  C_10 
REMARK    4  A    between atoms: C_10  and  O_11 
REMARK    5  A    between atoms: O_11  and  C_12 
REMARK    6  A    between atoms: C_12  and  C_13 
REMARK    7  A    between atoms: C_14  and  N_15 
REMARK    8  A    between atoms: N_15  and  C_16 
REMARK    9  A    between atoms: C_16  and  C_17 
ROOT
HETATM    1  O   UNL     1      44.603 -11.569   9.196  1.00  0.00    -0.308 OA
ENDROOT
BRANCH   1   2
HETATM    2  C   UNL     1      45.840 -12.139   8.757  1.00  0.00     0.282 C 
BRANCH   2   3
HETATM    3  C   UNL     1      45.624 -13.120   7.601  1.00  0.00     0.246 C 
HETATM    4  N   UNL     1      44.545 -13.964   7.806  1.00  0.00    -0.325 N 
HETATM    5  H   UNL     1      44.110 -13.921   8.728  1.00  0.00     0.169 HD
HETATM    6  O   UNL     1      46.360 -13.108   6.618  1.00  0.00    -0.271 OA
BRANCH   4   7
HETATM    7  C   UNL     1      43.940 -14.832   6.878  1.00  0.00     0.034 A 
HETATM    8  C   UNL     1      44.254 -16.190   6.758  1.00  0.00     0.030 A 
HETATM    9  C   UNL     1      43.635 -16.976   5.781  1.00  0.00     0.019 A 
HETATM   10  C   UNL     1      42.687 -16.407   4.925  1.00  0.00     0.032 A 
HETATM   11  C   UNL     1      42.385 -15.049   5.020  1.00  0.00     0.019 A 
HETATM   12  C   UNL     1      43.003 -14.269   6.001  1.00  0.00     0.030 A 
BRANCH  10  13
HETATM   13  C   UNL     1      42.047 -17.213   3.863  1.00  0.00     0.253 C 
HETATM   14  N   UNL     1      42.551 -17.139   2.566  1.00  0.00    -0.357 N 
HETATM   15  C   UNL     1      41.822 -17.802   1.498  1.00  0.00     0.152 C 
HETATM   16  C   UNL     1      43.846 -16.578   2.206  1.00  0.00     0.152 C 
HETATM   17  O   UNL     1      41.086 -17.908   4.183  1.00  0.00    -0.267 OA
ENDBRANCH  10  13
ENDBRANCH   4   7
ENDBRANCH   2   3
ENDBRANCH   1   2
BRANCH   1  18
HETATM   18  C   UNL     1      44.193 -11.950  10.429  1.00  0.00     0.295 C 
HETATM   19  O   UNL     1      44.391 -13.041  10.944  1.00  0.00    -0.259 OA
BRANCH  18  20
HETATM   20  C   UNL     1      43.382 -10.883  11.049  1.00  0.00     0.060 A 
HETATM   21  C   UNL     1      42.204 -10.422  10.422  1.00  0.00     0.025 A 
HETATM   22  C   UNL     1      41.502  -9.397  11.077  1.00  0.00     0.024 A 
HETATM   23  C   UNL     1      41.986  -8.807  12.252  1.00  0.00     0.002 A 
HETATM   24  C   UNL     1      43.172  -9.250  12.826  1.00  0.00     0.001 A 
HETATM   25  C   UNL     1      43.869 -10.294  12.231  1.00  0.00     0.019 A 
BRANCH  21  26
HETATM   26  N   UNL     1      41.693 -11.077   9.288  1.00  0.00    -0.286 NA
HETATM   27  H   UNL     1      42.434 -11.301   8.621  1.00  0.00     0.128 HD
BRANCH  26  28
HETATM   28  C   UNL     1      40.499 -10.572   8.609  1.00  0.00     0.157 C 
BRANCH  28  29
HETATM   29  C   UNL     1      40.212 -11.247   7.309  1.00  0.00     0.065 A 
HETATM   30  O   UNL     1      39.183 -12.144   7.299  1.00  0.00    -0.326 OA
HETATM   31  C   UNL     1      39.114 -12.656   6.044  1.00  0.00     0.142 A 
HETATM   32  C   UNL     1      40.085 -12.103   5.244  1.00  0.00     0.027 A 
HETATM   33  C   UNL     1      40.797 -11.193   6.060  1.00  0.00     0.036 A 
ENDBRANCH  28  29
ENDBRANCH  26  28
ENDBRANCH  21  26
ENDBRANCH  18  20
ENDBRANCH   1  18
TORSDOF 9
ENDMDL
MODEL 6
REMARK VINA RESULT:      -7.0      3.445      5.626
REMARK  9 active torsions:
REMARK  status: ('A' for Active; 'I' for Inactive)
REMARK       I    between atoms: N_2  and  C_3 
REMARK    1  A    between atoms: C_3  and  C_4 
REMARK    2  A    between atoms: C_7  and  N_8 
REMARK       I    between atoms: N_8  and  C_9 
REMARK    3  A    between atoms: C_9  and  C_10 
REMARK    4  A    between atoms: C_10  and  O_11 
REMARK    5  A    between atoms: O_11  and  C_12 
REMARK    6  A    between atoms: C_12  and  C_13 
REMARK    7  A    between atoms: C_14  and  N_15 
REMARK    8  A    between atoms: N_15  and  C_16 
REMARK    9  A    between atoms: C_16  and  C_17 
ROOT
HETATM    1  O   UNL     1      42.079 -18.221   1.656  1.00  0.00    -0.308 OA
ENDROOT
BRANCH   1   2
HETATM    2  C   UNL     1      41.134 -17.405   2.358  1.00  0.00     0.282 C 
BRANCH   2   3
HETATM    3  C   UNL     1      40.725 -16.185   1.528  1.00  0.00     0.246 C 
HETATM    4  N   UNL     1      41.607 -15.917   0.494  1.00  0.00    -0.325 N 
HETATM    5  H   UNL     1      42.465 -16.469   0.481  1.00  0.00     0.169 HD
HETATM    6  O   UNL     1      39.707 -15.553   1.796  1.00  0.00    -0.271 OA
BRANCH   4   7
HETATM    7  C   UNL     1      41.437 -15.017  -0.574  1.00  0.00     0.034 A 
HETATM    8  C   UNL     1      41.009 -15.392  -1.852  1.00  0.00     0.030 A 
HETATM    9  C   UNL     1      40.905 -14.441  -2.872  1.00  0.00     0.019 A 
HETATM   10  C   UNL     1      41.217 -13.103  -2.612  1.00  0.00     0.032 A 
HETATM   11  C   UNL     1      41.668 -12.722  -1.349  1.00  0.00     0.019 A 
HETATM   12  C   UNL     1      41.766 -13.676  -0.331  1.00  0.00     0.030 A 
BRANCH  10  13
HETATM   13  C   UNL     1      41.147 -12.087  -3.685  1.00  0.00     0.253 C 
HETATM   14  N   UNL     1      39.916 -11.509  -3.986  1.00  0.00    -0.357 N 
HETATM   15  C   UNL     1      39.822 -10.637  -5.144  1.00  0.00     0.152 C 
HETATM   16  C   UNL     1      38.734 -11.580  -3.139  1.00  0.00     0.152 C 
HETATM   17  O   UNL     1      42.193 -11.810  -4.269  1.00  0.00    -0.267 OA
ENDBRANCH  10  13
ENDBRANCH   4   7
ENDBRANCH   2   3
ENDBRANCH   1   2
BRANCH   1  18
HETATM   18  C   UNL     1      43.350 -18.166   2.119  1.00  0.00     0.295 C 
HETATM   19  O   UNL     1      44.091 -17.195   2.060  1.00  0.00    -0.259 OA
BRANCH  18  20
HETATM   20  C   UNL     1      43.763 -19.486   2.635  1.00  0.00     0.060 A 
HETATM   21  C   UNL     1      44.316 -19.608   3.929  1.00  0.00     0.025 A 
HETATM   22  C   UNL     1      44.692 -20.900   4.331  1.00  0.00     0.024 A 
HETATM   23  C   UNL     1      44.597 -21.999   3.468  1.00  0.00     0.002 A 
HETATM   24  C   UNL     1      44.089 -21.843   2.183  1.00  0.00     0.001 A 
HETATM   25  C   UNL     1      43.665 -20.588   1.766  1.00  0.00     0.019 A 
BRANCH  21  26
HETATM   26  N   UNL     1      44.331 -18.513   4.808  1.00  0.00    -0.286 NA
HETATM   27  H   UNL     1      45.278 -18.315   5.141  1.00  0.00     0.128 HD
BRANCH  26  28
HETATM   28  C   UNL     1      43.354 -18.412   5.892  1.00  0.00     0.157 C 
BRANCH  28  29
HETATM   29  C   UNL     1      42.445 -17.233   5.781  1.00  0.00     0.065 A 
HETATM   30  O   UNL     1      42.957 -16.121   5.176  1.00  0.00    -0.326 OA
HETATM   31  C   UNL     1      41.987 -15.171   5.206  1.00  0.00     0.142 A 
HETATM   32  C   UNL     1      40.859 -15.654   5.824  1.00  0.00     0.027 A 
HETATM   33  C   UNL     1      41.152 -16.986   6.198  1.00  0.00     0.036 A 
ENDBRANCH  28  29
ENDBRANCH  26  28
ENDBRANCH  21  26
ENDBRANCH  18  20
ENDBRANCH   1  18
TORSDOF 9
ENDMDL
MODEL 7
REMARK VINA RESULT:      -6.7      1.949      8.067
REMARK  9 active torsions:
REMARK  status: ('A' for Active; 'I' for Inactive)
REMARK       I    between atoms: N_2  and  C_3 
REMARK    1  A    between atoms: C_3  and  C_4 
REMARK    2  A    between atoms: C_7  and  N_8 
REMARK       I    between atoms: N_8  and  C_9 
REMARK    3  A    between atoms: C_9  and  C_10 
REMARK    4  A    between atoms: C_10  and  O_11 
REMARK    5  A    between atoms: O_11  and  C_12 
REMARK    6  A    between atoms: C_12  and  C_13 
REMARK    7  A    between atoms: C_14  and  N_15 
REMARK    8  A    between atoms: N_15  and  C_16 
REMARK    9  A    between atoms: C_16  and  C_17 
ROOT
HETATM    1  O   UNL     1      41.150 -13.652   1.627  1.00  0.00    -0.308 OA
ENDROOT
BRANCH   1   2
HETATM    2  C   UNL     1      41.346 -14.062   0.269  1.00  0.00     0.282 C 
BRANCH   2   3
HETATM    3  C   UNL     1      41.716 -15.546   0.182  1.00  0.00     0.246 C 
HETATM    4  N   UNL     1      42.536 -15.958   1.219  1.00  0.00    -0.325 N 
HETATM    5  H   UNL     1      42.889 -15.223   1.832  1.00  0.00     0.169 HD
HETATM    6  O   UNL     1      41.294 -16.247  -0.733  1.00  0.00    -0.271 OA
BRANCH   4   7
HETATM    7  C   UNL     1      42.894 -17.275   1.566  1.00  0.00     0.034 A 
HETATM    8  C   UNL     1      41.974 -18.311   1.752  1.00  0.00     0.030 A 
HETATM    9  C   UNL     1      42.408 -19.584   2.136  1.00  0.00     0.019 A 
HETATM   10  C   UNL     1      43.772 -19.827   2.324  1.00  0.00     0.032 A 
HETATM   11  C   UNL     1      44.696 -18.795   2.165  1.00  0.00     0.019 A 
HETATM   12  C   UNL     1      44.257 -17.526   1.777  1.00  0.00     0.030 A 
BRANCH  10  13
HETATM   13  C   UNL     1      44.250 -21.156   2.764  1.00  0.00     0.253 C 
HETATM   14  N   UNL     1      44.622 -21.331   4.095  1.00  0.00    -0.357 N 
HETATM   15  C   UNL     1      45.242 -22.586   4.484  1.00  0.00     0.152 C 
HETATM   16  C   UNL     1      44.298 -20.413   5.178  1.00  0.00     0.152 C 
HETATM   17  O   UNL     1      44.302 -22.046   1.918  1.00  0.00    -0.267 OA
ENDBRANCH  10  13
ENDBRANCH   4   7
ENDBRANCH   2   3
ENDBRANCH   1   2
BRANCH   1  18
HETATM   18  C   UNL     1      39.881 -13.760   2.089  1.00  0.00     0.295 C 
HETATM   19  O   UNL     1      38.894 -14.015   1.414  1.00  0.00    -0.259 OA
BRANCH  18  20
HETATM   20  C   UNL     1      39.832 -13.433   3.528  1.00  0.00     0.060 A 
HETATM   21  C   UNL     1      40.326 -14.346   4.486  1.00  0.00     0.025 A 
HETATM   22  C   UNL     1      40.228 -13.957   5.832  1.00  0.00     0.024 A 
HETATM   23  C   UNL     1      39.602 -12.762   6.211  1.00  0.00     0.002 A 
HETATM   24  C   UNL     1      39.085 -11.902   5.249  1.00  0.00     0.001 A 
HETATM   25  C   UNL     1      39.205 -12.232   3.905  1.00  0.00     0.019 A 
BRANCH  21  26
HETATM   26  N   UNL     1      41.020 -15.500   4.086  1.00  0.00    -0.286 NA
HETATM   27  H   UNL     1      40.831 -15.727   3.106  1.00  0.00     0.128 HD
BRANCH  26  28
HETATM   28  C   UNL     1      41.015 -16.701   4.921  1.00  0.00     0.157 C 
BRANCH  28  29
HETATM   29  C   UNL     1      42.247 -16.869   5.747  1.00  0.00     0.065 A 
HETATM   30  O   UNL     1      42.064 -17.086   7.082  1.00  0.00    -0.326 OA
HETATM   31  C   UNL     1      43.297 -17.179   7.642  1.00  0.00     0.142 A 
HETATM   32  C   UNL     1      44.273 -17.022   6.687  1.00  0.00     0.027 A 
HETATM   33  C   UNL     1      43.597 -16.820   5.461  1.00  0.00     0.036 A 
ENDBRANCH  28  29
ENDBRANCH  26  28
ENDBRANCH  21  26
ENDBRANCH  18  20
ENDBRANCH   1  18
TORSDOF 9
ENDMDL
MODEL 8
REMARK VINA RESULT:      -6.7      2.985      4.311
REMARK  9 active torsions:
REMARK  status: ('A' for Active; 'I' for Inactive)
REMARK       I    between atoms: N_2  and  C_3 
REMARK    1  A    between atoms: C_3  and  C_4 
REMARK    2  A    between atoms: C_7  and  N_8 
REMARK       I    between atoms: N_8  and  C_9 
REMARK    3  A    between atoms: C_9  and  C_10 
REMARK    4  A    between atoms: C_10  and  O_11 
REMARK    5  A    between atoms: O_11  and  C_12 
REMARK    6  A    between atoms: C_12  and  C_13 
REMARK    7  A    between atoms: C_14  and  N_15 
REMARK    8  A    between atoms: N_15  and  C_16 
REMARK    9  A    between atoms: C_16  and  C_17 
ROOT
HETATM    1  O   UNL     1      41.260 -16.559   4.792  1.00  0.00    -0.308 OA
ENDROOT
BRANCH   1   2
HETATM    2  C   UNL     1      40.667 -15.569   5.639  1.00  0.00     0.282 C 
BRANCH   2   3
HETATM    3  C   UNL     1      39.988 -14.466   4.820  1.00  0.00     0.246 C 
HETATM    4  N   UNL     1      40.153 -14.631   3.455  1.00  0.00    -0.325 N 
HETATM    5  H   UNL     1      40.791 -15.373   3.166  1.00  0.00     0.169 HD
HETATM    6  O   UNL     1      39.372 -13.560   5.373  1.00  0.00    -0.271 OA
BRANCH   4   7
HETATM    7  C   UNL     1      39.502 -13.938   2.418  1.00  0.00     0.034 A 
HETATM    8  C   UNL     1      39.737 -12.596   2.107  1.00  0.00     0.030 A 
HETATM    9  C   UNL     1      39.018 -11.968   1.085  1.00  0.00     0.019 A 
HETATM   10  C   UNL     1      38.065 -12.688   0.360  1.00  0.00     0.032 A 
HETATM   11  C   UNL     1      37.803 -14.021   0.677  1.00  0.00     0.019 A 
HETATM   12  C   UNL     1      38.529 -14.645   1.697  1.00  0.00     0.030 A 
BRANCH  10  13
HETATM   13  C   UNL     1      37.268 -12.034  -0.701  1.00  0.00     0.253 C 
HETATM   14  N   UNL     1      36.130 -11.315  -0.342  1.00  0.00    -0.357 N 
HETATM   15  C   UNL     1      35.264 -10.814  -1.396  1.00  0.00     0.152 C 
HETATM   16  C   UNL     1      35.811 -10.882   1.011  1.00  0.00     0.152 C 
HETATM   17  O   UNL     1      37.653 -12.170  -1.861  1.00  0.00    -0.267 OA
ENDBRANCH  10  13
ENDBRANCH   4   7
ENDBRANCH   2   3
ENDBRANCH   1   2
BRANCH   1  18
HETATM   18  C   UNL     1      42.614 -16.589   4.793  1.00  0.00     0.295 C 
HETATM   19  O   UNL     1      43.346 -15.780   5.344  1.00  0.00    -0.259 OA
BRANCH  18  20
HETATM   20  C   UNL     1      43.100 -17.699   3.950  1.00  0.00     0.060 A 
HETATM   21  C   UNL     1      42.667 -17.825   2.612  1.00  0.00     0.025 A 
HETATM   22  C   UNL     1      43.171 -18.919   1.889  1.00  0.00     0.024 A 
HETATM   23  C   UNL     1      44.000 -19.878   2.485  1.00  0.00     0.002 A 
HETATM   24  C   UNL     1      44.376 -19.753   3.818  1.00  0.00     0.001 A 
HETATM   25  C   UNL     1      43.933 -18.660   4.551  1.00  0.00     0.019 A 
BRANCH  21  26
HETATM   26  N   UNL     1      41.901 -16.814   2.008  1.00  0.00    -0.286 NA
HETATM   27  H   UNL     1      41.197 -16.444   2.652  1.00  0.00     0.128 HD
BRANCH  26  28
HETATM   28  C   UNL     1      41.351 -16.995   0.665  1.00  0.00     0.157 C 
BRANCH  28  29
HETATM   29  C   UNL     1      41.379 -15.759  -0.173  1.00  0.00     0.065 A 
HETATM   30  O   UNL     1      42.023 -14.677   0.355  1.00  0.00    -0.326 OA
HETATM   31  C   UNL     1      41.905 -13.667  -0.545  1.00  0.00     0.142 A 
HETATM   32  C   UNL     1      41.192 -14.083  -1.644  1.00  0.00     0.027 A 
HETATM   33  C   UNL     1      40.850 -15.434  -1.406  1.00  0.00     0.036 A 
ENDBRANCH  28  29
ENDBRANCH  26  28
ENDBRANCH  21  26
ENDBRANCH  18  20
ENDBRANCH   1  18
TORSDOF 9
ENDMDL
MODEL 9
REMARK VINA RESULT:      -6.6      3.555      6.593
REMARK  9 active torsions:
REMARK  status: ('A' for Active; 'I' for Inactive)
REMARK       I    between atoms: N_2  and  C_3 
REMARK    1  A    between atoms: C_3  and  C_4 
REMARK    2  A    between atoms: C_7  and  N_8 
REMARK       I    between atoms: N_8  and  C_9 
REMARK    3  A    between atoms: C_9  and  C_10 
REMARK    4  A    between atoms: C_10  and  O_11 
REMARK    5  A    between atoms: O_11  and  C_12 
REMARK    6  A    between atoms: C_12  and  C_13 
REMARK    7  A    between atoms: C_14  and  N_15 
REMARK    8  A    between atoms: N_15  and  C_16 
REMARK    9  A    between atoms: C_16  and  C_17 
ROOT
HETATM    1  O   UNL     1      42.163 -17.633   3.154  1.00  0.00    -0.308 OA
ENDROOT
BRANCH   1   2
HETATM    2  C   UNL     1      41.723 -17.871   1.813  1.00  0.00     0.282 C 
BRANCH   2   3
HETATM    3  C   UNL     1      41.036 -16.635   1.224  1.00  0.00     0.246 C 
HETATM    4  N   UNL     1      41.740 -16.078   0.170  1.00  0.00    -0.325 N 
HETATM    5  H   UNL     1      42.666 -16.468  -0.007  1.00  0.00     0.169 HD
HETATM    6  O   UNL     1      39.969 -16.231   1.679  1.00  0.00    -0.271 OA
BRANCH   4   7
HETATM    7  C   UNL     1      41.309 -15.080  -0.725  1.00  0.00     0.034 A 
HETATM    8  C   UNL     1      41.159 -13.734  -0.380  1.00  0.00     0.030 A 
HETATM    9  C   UNL     1      40.686 -12.810  -1.317  1.00  0.00     0.019 A 
HETATM   10  C   UNL     1      40.372 -13.232  -2.613  1.00  0.00     0.032 A 
HETATM   11  C   UNL     1      40.494 -14.577  -2.961  1.00  0.00     0.019 A 
HETATM   12  C   UNL     1      40.972 -15.494  -2.021  1.00  0.00     0.030 A 
BRANCH  10  13
HETATM   13  C   UNL     1      39.837 -12.279  -3.610  1.00  0.00     0.253 C 
HETATM   14  N   UNL     1      40.722 -11.435  -4.277  1.00  0.00    -0.357 N 
HETATM   15  C   UNL     1      40.178 -10.393  -5.131  1.00  0.00     0.152 C 
HETATM   16  C   UNL     1      42.167 -11.607  -4.316  1.00  0.00     0.152 C 
HETATM   17  O   UNL     1      38.621 -12.276  -3.792  1.00  0.00    -0.267 OA
ENDBRANCH  10  13
ENDBRANCH   4   7
ENDBRANCH   2   3
ENDBRANCH   1   2
BRANCH   1  18
HETATM   18  C   UNL     1      43.257 -16.843   3.275  1.00  0.00     0.295 C 
HETATM   19  O   UNL     1      44.018 -16.532   2.370  1.00  0.00    -0.259 OA
BRANCH  18  20
HETATM   20  C   UNL     1      43.465 -16.472   4.689  1.00  0.00     0.060 A 
HETATM   21  C   UNL     1      43.481 -17.462   5.695  1.00  0.00     0.025 A 
HETATM   22  C   UNL     1      43.672 -17.016   7.013  1.00  0.00     0.024 A 
HETATM   23  C   UNL     1      43.763 -15.653   7.324  1.00  0.00     0.002 A 
HETATM   24  C   UNL     1      43.700 -14.695   6.319  1.00  0.00     0.001 A 
HETATM   25  C   UNL     1      43.557 -15.102   4.998  1.00  0.00     0.019 A 
BRANCH  21  26
HETATM   26  N   UNL     1      43.468 -18.826   5.358  1.00  0.00    -0.286 NA
HETATM   27  H   UNL     1      42.892 -19.366   6.008  1.00  0.00     0.128 HD
BRANCH  26  28
HETATM   28  C   UNL     1      44.711 -19.529   5.040  1.00  0.00     0.157 C 
BRANCH  28  29
HETATM   29  C   UNL     1      44.580 -20.520   3.931  1.00  0.00     0.065 A 
HETATM   30  O   UNL     1      44.720 -21.836   4.266  1.00  0.00    -0.326 OA
HETATM   31  C   UNL     1      44.596 -22.553   3.120  1.00  0.00     0.142 A 
HETATM   32  C   UNL     1      44.380 -21.718   2.050  1.00  0.00     0.027 A 
HETATM   33  C   UNL     1      44.370 -20.403   2.571  1.00  0.00     0.036 A 
ENDBRANCH  28  29
ENDBRANCH  26  28
ENDBRANCH  21  26
ENDBRANCH  18  20
ENDBRANCH   1  18
TORSDOF 9
ENDMDL
MODEL 10
REMARK VINA RESULT:      -6.6      4.814      9.668
REMARK  9 active torsions:
REMARK  status: ('A' for Active; 'I' for Inactive)
REMARK       I    between atoms: N_2  and  C_3 
REMARK    1  A    between atoms: C_3  and  C_4 
REMARK    2  A    between atoms: C_7  and  N_8 
REMARK       I    between atoms: N_8  and  C_9 
REMARK    3  A    between atoms: C_9  and  C_10 
REMARK    4  A    between atoms: C_10  and  O_11 
REMARK    5  A    between atoms: O_11  and  C_12 
REMARK    6  A    between atoms: C_12  and  C_13 
REMARK    7  A    between atoms: C_14  and  N_15 
REMARK    8  A    between atoms: N_15  and  C_16 
REMARK    9  A    between atoms: C_16  and  C_17 
ROOT
HETATM    1  O   UNL     1      41.181 -10.209   8.968  1.00  0.00    -0.308 OA
ENDROOT
BRANCH   1   2
HETATM    2  C   UNL     1      40.073  -9.779   8.168  1.00  0.00     0.282 C 
BRANCH   2   3
HETATM    3  C   UNL     1      39.931 -10.635   6.906  1.00  0.00     0.246 C 
HETATM    4  N   UNL     1      40.881 -11.639   6.827  1.00  0.00    -0.325 N 
HETATM    5  H   UNL     1      41.619 -11.617   7.531  1.00  0.00     0.169 HD
HETATM    6  O   UNL     1      39.043 -10.409   6.089  1.00  0.00    -0.271 OA
BRANCH   4   7
HETATM    7  C   UNL     1      40.920 -12.721   5.927  1.00  0.00     0.034 A 
HETATM    8  C   UNL     1      40.132 -13.869   6.051  1.00  0.00     0.030 A 
HETATM    9  C   UNL     1      40.260 -14.919   5.137  1.00  0.00     0.019 A 
HETATM   10  C   UNL     1      41.174 -14.818   4.083  1.00  0.00     0.032 A 
HETATM   11  C   UNL     1      41.983 -13.689   3.964  1.00  0.00     0.019 A 
HETATM   12  C   UNL     1      41.847 -12.640   4.878  1.00  0.00     0.030 A 
BRANCH  10  13
HETATM   13  C   UNL     1      41.350 -15.932   3.126  1.00  0.00     0.253 C 
HETATM   14  N   UNL     1      42.351 -16.871   3.362  1.00  0.00    -0.357 N 
HETATM   15  C   UNL     1      42.627 -17.865   2.339  1.00  0.00     0.152 C 
HETATM   16  C   UNL     1      43.051 -17.042   4.628  1.00  0.00     0.152 C 
HETATM   17  O   UNL     1      40.599 -15.964   2.153  1.00  0.00    -0.267 OA
ENDBRANCH  10  13
ENDBRANCH   4   7
ENDBRANCH   2   3
ENDBRANCH   1   2
BRANCH   1  18
HETATM   18  C   UNL     1      40.865 -10.643  10.212  1.00  0.00     0.295 C 
HETATM   19  O   UNL     1      39.987 -11.448  10.487  1.00  0.00    -0.259 OA
BRANCH  18  20
HETATM   20  C   UNL     1      41.678  -9.934  11.221  1.00  0.00     0.060 A 
HETATM   21  C   UNL     1      42.508 -10.655  12.107  1.00  0.00     0.025 A 
HETATM   22  C   UNL     1      43.235  -9.900  13.041  1.00  0.00     0.024 A 
HETATM   23  C   UNL     1      43.087  -8.510  13.142  1.00  0.00     0.002 A 
HETATM   24  C   UNL     1      42.229  -7.829  12.285  1.00  0.00     0.001 A 
HETATM   25  C   UNL     1      41.528  -8.538  11.318  1.00  0.00     0.019 A 
BRANCH  21  26
HETATM   26  N   UNL     1      42.704 -12.036  11.941  1.00  0.00    -0.286 NA
HETATM   27  H   UNL     1      42.118 -12.576  12.582  1.00  0.00     0.128 HD
BRANCH  26  28
HETATM   28  C   UNL     1      44.054 -12.594  11.857  1.00  0.00     0.157 C 
BRANCH  28  29
HETATM   29  C   UNL     1      44.790 -12.215  10.615  1.00  0.00     0.065 A 
HETATM   30  O   UNL     1      44.726 -13.095   9.573  1.00  0.00    -0.326 OA
HETATM   31  C   UNL     1      45.478 -12.576   8.569  1.00  0.00     0.142 A 
HETATM   32  C   UNL     1      46.029 -11.376   8.949  1.00  0.00     0.027 A 
HETATM   33  C   UNL     1      45.586 -11.140  10.272  1.00  0.00     0.036 A 
ENDBRANCH  28  29
ENDBRANCH  26  28
ENDBRANCH  21  26
ENDBRANCH  18  20
ENDBRANCH   1  18
TORSDOF 9
ENDMDL
