MODEL 1
REMARK VINA RESULT:      -9.6      0.000      0.000
REMARK  4 active torsions:
REMARK  status: ('A' for Active; 'I' for Inactive)
REMARK    1  A    between atoms: O_2  and  C_3 
REMARK    2  A    between atoms: C_4  and  N_5 
REMARK    3  A    between atoms: C_14  and  C_15 
REMARK       I    between atoms: C_15  and  N_16 
REMARK    4  A    between atoms: N_16  and  C_17 
ROOT
HETATM    1  N   UNL     1      42.501 -15.878   3.835  1.00  0.00    -0.221 NA
HETATM    2  C   UNL     1      42.804 -17.013   3.278  1.00  0.00     0.186 C 
HETATM    3  O   UNL     1      43.723 -17.876   3.863  1.00  0.00    -0.290 OA
HETATM    4  C   UNL     1      43.911 -19.182   3.377  1.00  0.00     0.088 A 
HETATM    5  C   UNL     1      43.264 -19.607   2.224  1.00  0.00    -0.001 A 
HETATM    6  C   UNL     1      44.746 -20.026   4.104  1.00  0.00     0.038 A 
HETATM    7  C   UNL     1      44.934 -21.335   3.664  1.00  0.00     0.003 A 
HETATM    8  C   UNL     1      44.291 -21.781   2.507  1.00  0.00     0.001 A 
HETATM    9  C   UNL     1      43.460 -20.918   1.785  1.00  0.00     0.014 A 
HETATM   10  C   UNL     1      42.190 -17.433   1.992  1.00  0.00     0.086 C 
HETATM   11  C   UNL     1      42.415 -18.668   1.511  1.00  0.00     0.035 C 
ENDROOT
BRANCH  10  12
HETATM   12  C   UNL     1      41.310 -16.538   1.155  1.00  0.00     0.260 C 
HETATM   13  N   UNL     1      41.901 -16.061   0.005  1.00  0.00    -0.323 N 
HETATM   14  H   UNL     1      42.874 -16.336  -0.150  1.00  0.00     0.169 HD
HETATM   15  O   UNL     1      40.161 -16.294   1.517  1.00  0.00    -0.267 OA
BRANCH  13  16
HETATM   16  C   UNL     1      41.349 -15.221  -0.982  1.00  0.00     0.035 A 
HETATM   17  C   UNL     1      41.184 -13.843  -0.838  1.00  0.00     0.029 A 
HETATM   18  C   UNL     1      40.629 -13.085  -1.875  1.00  0.00     0.002 A 
HETATM   19  C   UNL     1      40.236 -13.698  -3.062  1.00  0.00     0.000 A 
HETATM   20  C   UNL     1      40.393 -15.073  -3.214  1.00  0.00     0.002 A 
HETATM   21  C   UNL     1      40.946 -15.831  -2.178  1.00  0.00     0.029 A 
ENDBRANCH  13  16
ENDBRANCH  10  12
BRANCH   1  22
HETATM   22  C   UNL     1      43.151 -15.483   5.020  1.00  0.00     0.093 A 
HETATM   23  C   UNL     1      43.586 -14.151   5.167  1.00  0.00     0.097 A 
HETATM   24  C   UNL     1      44.220 -13.752   6.350  1.00  0.00     0.039 A 
HETATM   25  C   UNL     1      44.382 -14.659   7.400  1.00  0.00     0.003 A 
HETATM   26  C   UNL     1      43.912 -15.964   7.277  1.00  0.00     0.002 A 
HETATM   27  C   UNL     1      43.292 -16.371   6.096  1.00  0.00     0.034 A 
BRANCH  23  28
HETATM   28  O   UNL     1      43.376 -13.321   4.092  1.00  0.00    -0.354 OA
HETATM   29  C   UNL     1      42.221 -12.494   4.159  1.00  0.00     0.210 C 
ENDBRANCH  23  28
ENDBRANCH   1  22
TORSDOF 4
ENDMDL
MODEL 2
REMARK VINA RESULT:      -9.6      2.459      6.750
REMARK  4 active torsions:
REMARK  status: ('A' for Active; 'I' for Inactive)
REMARK    1  A    between atoms: O_2  and  C_3 
REMARK    2  A    between atoms: C_4  and  N_5 
REMARK    3  A    between atoms: C_14  and  C_15 
REMARK       I    between atoms: C_15  and  N_16 
REMARK    4  A    between atoms: N_16  and  C_17 
ROOT
HETATM    1  N   UNL     1      42.649 -14.917   4.494  1.00  0.00    -0.221 NA
HETATM    2  C   UNL     1      43.105 -16.128   4.611  1.00  0.00     0.186 C 
HETATM    3  O   UNL     1      42.830 -17.094   3.650  1.00  0.00    -0.290 OA
HETATM    4  C   UNL     1      43.474 -18.343   3.664  1.00  0.00     0.088 A 
HETATM    5  C   UNL     1      44.319 -18.690   4.709  1.00  0.00    -0.001 A 
HETATM    6  C   UNL     1      43.247 -19.198   2.589  1.00  0.00     0.038 A 
HETATM    7  C   UNL     1      43.890 -20.433   2.559  1.00  0.00     0.003 A 
HETATM    8  C   UNL     1      44.745 -20.800   3.601  1.00  0.00     0.001 A 
HETATM    9  C   UNL     1      44.958 -19.932   4.677  1.00  0.00     0.014 A 
HETATM   10  C   UNL     1      43.929 -16.536   5.778  1.00  0.00     0.086 C 
HETATM   11  C   UNL     1      44.502 -17.753   5.804  1.00  0.00     0.035 C 
ENDROOT
BRANCH  10  12
HETATM   12  C   UNL     1      44.169 -15.657   6.980  1.00  0.00     0.260 C 
HETATM   13  N   UNL     1      44.734 -14.433   6.695  1.00  0.00    -0.323 N 
HETATM   14  H   UNL     1      44.958 -14.256   5.713  1.00  0.00     0.169 HD
HETATM   15  O   UNL     1      43.857 -16.052   8.101  1.00  0.00    -0.267 OA
BRANCH  13  16
HETATM   16  C   UNL     1      45.071 -13.394   7.584  1.00  0.00     0.035 A 
HETATM   17  C   UNL     1      44.228 -12.914   8.588  1.00  0.00     0.029 A 
HETATM   18  C   UNL     1      44.648 -11.878   9.429  1.00  0.00     0.002 A 
HETATM   19  C   UNL     1      45.913 -11.316   9.275  1.00  0.00     0.000 A 
HETATM   20  C   UNL     1      46.761 -11.786   8.275  1.00  0.00     0.002 A 
HETATM   21  C   UNL     1      46.340 -12.819   7.434  1.00  0.00     0.029 A 
ENDBRANCH  13  16
ENDBRANCH  10  12
BRANCH   1  22
HETATM   22  C   UNL     1      41.816 -14.582   3.409  1.00  0.00     0.093 A 
HETATM   23  C   UNL     1      40.430 -14.431   3.613  1.00  0.00     0.097 A 
HETATM   24  C   UNL     1      39.602 -14.085   2.538  1.00  0.00     0.039 A 
HETATM   25  C   UNL     1      40.151 -13.847   1.277  1.00  0.00     0.003 A 
HETATM   26  C   UNL     1      41.527 -13.949   1.081  1.00  0.00     0.002 A 
HETATM   27  C   UNL     1      42.355 -14.307   2.145  1.00  0.00     0.034 A 
BRANCH  23  28
HETATM   28  O   UNL     1      39.973 -14.671   4.887  1.00  0.00    -0.354 OA
HETATM   29  C   UNL     1      39.606 -13.525   5.644  1.00  0.00     0.210 C 
ENDBRANCH  23  28
ENDBRANCH   1  22
TORSDOF 4
ENDMDL
MODEL 3
REMARK VINA RESULT:      -9.0      2.004      6.397
REMARK  4 active torsions:
REMARK  status: ('A' for Active; 'I' for Inactive)
REMARK    1  A    between atoms: O_2  and  C_3 
REMARK    2  A    between atoms: C_4  and  N_5 
REMARK    3  A    between atoms: C_14  and  C_15 
REMARK       I    between atoms: C_15  and  N_16 
REMARK    4  A    between atoms: N_16  and  C_17 
ROOT
HETATM    1  N   UNL     1      42.307 -14.997   3.268  1.00  0.00    -0.221 NA
HETATM    2  C   UNL     1      41.838 -15.123   2.062  1.00  0.00     0.186 C 
HETATM    3  O   UNL     1      40.807 -14.312   1.604  1.00  0.00    -0.290 OA
HETATM    4  C   UNL     1      40.428 -14.305   0.251  1.00  0.00     0.088 A 
HETATM    5  C   UNL     1      40.999 -15.198  -0.647  1.00  0.00    -0.001 A 
HETATM    6  C   UNL     1      39.484 -13.364  -0.150  1.00  0.00     0.038 A 
HETATM    7  C   UNL     1      39.105 -13.314  -1.490  1.00  0.00     0.003 A 
HETATM    8  C   UNL     1      39.669 -14.203  -2.408  1.00  0.00     0.001 A 
HETATM    9  C   UNL     1      40.612 -15.146  -1.988  1.00  0.00     0.014 A 
HETATM   10  C   UNL     1      42.376 -16.143   1.126  1.00  0.00     0.086 C 
HETATM   11  C   UNL     1      41.971 -16.160  -0.157  1.00  0.00     0.035 C 
ENDROOT
BRANCH  10  12
HETATM   12  C   UNL     1      43.371 -17.204   1.527  1.00  0.00     0.260 C 
HETATM   13  N   UNL     1      42.839 -18.253   2.243  1.00  0.00    -0.323 N 
HETATM   14  H   UNL     1      41.839 -18.196   2.453  1.00  0.00     0.169 HD
HETATM   15  O   UNL     1      44.553 -17.090   1.205  1.00  0.00    -0.267 OA
BRANCH  13  16
HETATM   16  C   UNL     1      43.494 -19.392   2.750  1.00  0.00     0.035 A 
HETATM   17  C   UNL     1      44.076 -19.466   4.016  1.00  0.00     0.029 A 
HETATM   18  C   UNL     1      44.704 -20.642   4.438  1.00  0.00     0.002 A 
HETATM   19  C   UNL     1      44.754 -21.754   3.600  1.00  0.00     0.000 A 
HETATM   20  C   UNL     1      44.178 -21.689   2.334  1.00  0.00     0.002 A 
HETATM   21  C   UNL     1      43.552 -20.514   1.911  1.00  0.00     0.029 A 
ENDBRANCH  13  16
ENDBRANCH  10  12
BRANCH   1  22
HETATM   22  C   UNL     1      41.729 -14.064   4.150  1.00  0.00     0.093 A 
HETATM   23  C   UNL     1      40.790 -14.497   5.108  1.00  0.00     0.097 A 
HETATM   24  C   UNL     1      40.224 -13.573   5.995  1.00  0.00     0.039 A 
HETATM   25  C   UNL     1      40.620 -12.235   5.963  1.00  0.00     0.003 A 
HETATM   26  C   UNL     1      41.583 -11.811   5.049  1.00  0.00     0.002 A 
HETATM   27  C   UNL     1      42.140 -12.724   4.154  1.00  0.00     0.034 A 
BRANCH  23  28
HETATM   28  O   UNL     1      40.465 -15.832   5.080  1.00  0.00    -0.354 OA
HETATM   29  C   UNL     1      40.782 -16.575   6.250  1.00  0.00     0.210 C 
ENDBRANCH  23  28
ENDBRANCH   1  22
TORSDOF 4
ENDMDL
MODEL 4
REMARK VINA RESULT:      -8.9      1.915      7.291
REMARK  4 active torsions:
REMARK  status: ('A' for Active; 'I' for Inactive)
REMARK    1  A    between atoms: O_2  and  C_3 
REMARK    2  A    between atoms: C_4  and  N_5 
REMARK    3  A    between atoms: C_14  and  C_15 
REMARK       I    between atoms: C_15  and  N_16 
REMARK    4  A    between atoms: N_16  and  C_17 
ROOT
HETATM    1  N   UNL     1      40.987 -15.527   1.549  1.00  0.00    -0.221 NA
HETATM    2  C   UNL     1      41.566 -14.983   2.578  1.00  0.00     0.186 C 
HETATM    3  O   UNL     1      41.132 -13.763   3.082  1.00  0.00    -0.290 OA
HETATM    4  C   UNL     1      41.618 -13.263   4.303  1.00  0.00     0.088 A 
HETATM    5  C   UNL     1      42.633 -13.922   4.983  1.00  0.00    -0.001 A 
HETATM    6  C   UNL     1      41.030 -12.105   4.805  1.00  0.00     0.038 A 
HETATM    7  C   UNL     1      41.470 -11.597   6.026  1.00  0.00     0.003 A 
HETATM    8  C   UNL     1      42.490 -12.247   6.725  1.00  0.00     0.001 A 
HETATM    9  C   UNL     1      43.074 -13.407   6.203  1.00  0.00     0.014 A 
HETATM   10  C   UNL     1      42.718 -15.634   3.252  1.00  0.00     0.086 C 
HETATM   11  C   UNL     1      43.207 -15.120   4.394  1.00  0.00     0.035 C 
ENDROOT
BRANCH  10  12
HETATM   12  C   UNL     1      43.408 -16.867   2.722  1.00  0.00     0.260 C 
HETATM   13  N   UNL     1      43.047 -18.042   3.344  1.00  0.00    -0.323 N 
HETATM   14  H   UNL     1      42.377 -17.959   4.113  1.00  0.00     0.169 HD
HETATM   15  O   UNL     1      44.216 -16.770   1.800  1.00  0.00    -0.267 OA
BRANCH  13  16
HETATM   16  C   UNL     1      43.498 -19.349   3.079  1.00  0.00     0.035 A 
HETATM   17  C   UNL     1      43.162 -20.082   1.940  1.00  0.00     0.029 A 
HETATM   18  C   UNL     1      43.661 -21.376   1.758  1.00  0.00     0.002 A 
HETATM   19  C   UNL     1      44.501 -21.947   2.712  1.00  0.00     0.000 A 
HETATM   20  C   UNL     1      44.840 -21.226   3.853  1.00  0.00     0.002 A 
HETATM   21  C   UNL     1      44.340 -19.933   4.036  1.00  0.00     0.029 A 
ENDBRANCH  13  16
ENDBRANCH  10  12
BRANCH   1  22
HETATM   22  C   UNL     1      39.940 -14.850   0.894  1.00  0.00     0.093 A 
HETATM   23  C   UNL     1      40.150 -14.316  -0.393  1.00  0.00     0.097 A 
HETATM   24  C   UNL     1      39.106 -13.655  -1.052  1.00  0.00     0.039 A 
HETATM   25  C   UNL     1      37.847 -13.562  -0.455  1.00  0.00     0.003 A 
HETATM   26  C   UNL     1      37.621 -14.128   0.797  1.00  0.00     0.002 A 
HETATM   27  C   UNL     1      38.661 -14.776   1.463  1.00  0.00     0.034 A 
BRANCH  23  28
HETATM   28  O   UNL     1      41.414 -14.463  -0.913  1.00  0.00    -0.354 OA
HETATM   29  C   UNL     1      41.970 -13.311  -1.533  1.00  0.00     0.210 C 
ENDBRANCH  23  28
ENDBRANCH   1  22
TORSDOF 4
ENDMDL
MODEL 5
REMARK VINA RESULT:      -8.6      2.128      2.628
REMARK  4 active torsions:
REMARK  status: ('A' for Active; 'I' for Inactive)
REMARK    1  A    between atoms: O_2  and  C_3 
REMARK    2  A    between atoms: C_4  and  N_5 
REMARK    3  A    between atoms: C_14  and  C_15 
REMARK       I    between atoms: C_15  and  N_16 
REMARK    4  A    between atoms: N_16  and  C_17 
ROOT
HETATM    1  N   UNL     1      42.665 -15.347   3.990  1.00  0.00    -0.221 NA
HETATM    2  C   UNL     1      42.913 -16.487   3.417  1.00  0.00     0.186 C 
HETATM    3  O   UNL     1      43.816 -17.387   3.971  1.00  0.00    -0.290 OA
HETATM    4  C   UNL     1      43.945 -18.694   3.471  1.00  0.00     0.088 A 
HETATM    5  C   UNL     1      43.254 -19.086   2.332  1.00  0.00    -0.001 A 
HETATM    6  C   UNL     1      44.768 -19.573   4.169  1.00  0.00     0.038 A 
HETATM    7  C   UNL     1      44.898 -20.884   3.714  1.00  0.00     0.003 A 
HETATM    8  C   UNL     1      44.211 -21.297   2.570  1.00  0.00     0.001 A 
HETATM    9  C   UNL     1      43.392 -20.400   1.878  1.00  0.00     0.014 A 
HETATM   10  C   UNL     1      42.252 -16.874   2.144  1.00  0.00     0.086 C 
HETATM   11  C   UNL     1      42.421 -18.112   1.648  1.00  0.00     0.035 C 
ENDROOT
BRANCH  10  12
HETATM   12  C   UNL     1      41.383 -15.941   1.337  1.00  0.00     0.260 C 
HETATM   13  N   UNL     1      40.489 -15.200   2.077  1.00  0.00    -0.323 N 
HETATM   14  H   UNL     1      40.483 -15.375   3.085  1.00  0.00     0.169 HD
HETATM   15  O   UNL     1      41.514 -15.884   0.115  1.00  0.00    -0.267 OA
BRANCH  13  16
HETATM   16  C   UNL     1      39.557 -14.245   1.627  1.00  0.00     0.035 A 
HETATM   17  C   UNL     1      39.809 -12.874   1.553  1.00  0.00     0.029 A 
HETATM   18  C   UNL     1      38.823 -11.997   1.089  1.00  0.00     0.002 A 
HETATM   19  C   UNL     1      37.578 -12.484   0.695  1.00  0.00     0.000 A 
HETATM   20  C   UNL     1      37.315 -13.849   0.769  1.00  0.00     0.002 A 
HETATM   21  C   UNL     1      38.300 -14.725   1.233  1.00  0.00     0.029 A 
ENDBRANCH  13  16
ENDBRANCH  10  12
BRANCH   1  22
HETATM   22  C   UNL     1      43.358 -14.985   5.161  1.00  0.00     0.093 A 
HETATM   23  C   UNL     1      43.052 -15.623   6.380  1.00  0.00     0.097 A 
HETATM   24  C   UNL     1      43.751 -15.275   7.542  1.00  0.00     0.039 A 
HETATM   25  C   UNL     1      44.777 -14.330   7.488  1.00  0.00     0.003 A 
HETATM   26  C   UNL     1      45.115 -13.730   6.277  1.00  0.00     0.002 A 
HETATM   27  C   UNL     1      44.414 -14.064   5.119  1.00  0.00     0.034 A 
BRANCH  23  28
HETATM   28  O   UNL     1      42.038 -16.550   6.342  1.00  0.00    -0.354 OA
HETATM   29  C   UNL     1      42.258 -17.744   7.082  1.00  0.00     0.210 C 
ENDBRANCH  23  28
ENDBRANCH   1  22
TORSDOF 4
ENDMDL
MODEL 6
REMARK VINA RESULT:      -8.6      3.014      7.634
REMARK  4 active torsions:
REMARK  status: ('A' for Active; 'I' for Inactive)
REMARK    1  A    between atoms: O_2  and  C_3 
REMARK    2  A    between atoms: C_4  and  N_5 
REMARK    3  A    between atoms: C_14  and  C_15 
REMARK       I    between atoms: C_15  and  N_16 
REMARK    4  A    between atoms: N_16  and  C_17 
ROOT
HETATM    1  N   UNL     1      43.086 -13.323   4.861  1.00  0.00    -0.221 NA
HETATM    2  C   UNL     1      43.425 -14.519   5.238  1.00  0.00     0.186 C 
HETATM    3  O   UNL     1      42.922 -15.644   4.595  1.00  0.00    -0.290 OA
HETATM    4  C   UNL     1      43.429 -16.927   4.864  1.00  0.00     0.088 A 
HETATM    5  C   UNL     1      44.369 -17.120   5.867  1.00  0.00    -0.001 A 
HETATM    6  C   UNL     1      42.968 -17.980   4.077  1.00  0.00     0.038 A 
HETATM    7  C   UNL     1      43.470 -19.261   4.300  1.00  0.00     0.003 A 
HETATM    8  C   UNL     1      44.417 -19.474   5.304  1.00  0.00     0.001 A 
HETATM    9  C   UNL     1      44.865 -18.407   6.089  1.00  0.00     0.014 A 
HETATM   10  C   UNL     1      44.356 -14.738   6.376  1.00  0.00     0.086 C 
HETATM   11  C   UNL     1      44.797 -15.977   6.655  1.00  0.00     0.035 C 
ENDROOT
BRANCH  10  12
HETATM   12  C   UNL     1      44.849 -13.632   7.276  1.00  0.00     0.260 C 
HETATM   13  N   UNL     1      43.909 -13.141   8.154  1.00  0.00    -0.323 N 
HETATM   14  H   UNL     1      42.973 -13.550   8.090  1.00  0.00     0.169 HD
HETATM   15  O   UNL     1      46.013 -13.247   7.192  1.00  0.00    -0.267 OA
BRANCH  13  16
HETATM   16  C   UNL     1      44.056 -12.126   9.120  1.00  0.00     0.035 A 
HETATM   17  C   UNL     1      43.170 -11.059   9.280  1.00  0.00     0.029 A 
HETATM   18  C   UNL     1      43.394 -10.098  10.271  1.00  0.00     0.002 A 
HETATM   19  C   UNL     1      44.502 -10.196  11.110  1.00  0.00     0.000 A 
HETATM   20  C   UNL     1      45.393 -11.254  10.956  1.00  0.00     0.002 A 
HETATM   21  C   UNL     1      45.171 -12.214   9.965  1.00  0.00     0.029 A 
ENDBRANCH  13  16
ENDBRANCH  10  12
BRANCH   1  22
HETATM   22  C   UNL     1      42.151 -13.154   3.821  1.00  0.00     0.093 A 
HETATM   23  C   UNL     1      40.842 -12.727   4.122  1.00  0.00     0.097 A 
HETATM   24  C   UNL     1      39.915 -12.545   3.088  1.00  0.00     0.039 A 
HETATM   25  C   UNL     1      40.296 -12.743   1.760  1.00  0.00     0.003 A 
HETATM   26  C   UNL     1      41.602 -13.120   1.454  1.00  0.00     0.002 A 
HETATM   27  C   UNL     1      42.526 -13.316   2.480  1.00  0.00     0.034 A 
BRANCH  23  28
HETATM   28  O   UNL     1      40.553 -12.543   5.453  1.00  0.00    -0.354 OA
HETATM   29  C   UNL     1      39.222 -12.844   5.849  1.00  0.00     0.210 C 
ENDBRANCH  23  28
ENDBRANCH   1  22
TORSDOF 4
ENDMDL
MODEL 7
REMARK VINA RESULT:      -8.6      2.631      7.756
REMARK  4 active torsions:
REMARK  status: ('A' for Active; 'I' for Inactive)
REMARK    1  A    between atoms: O_2  and  C_3 
REMARK    2  A    between atoms: C_4  and  N_5 
REMARK    3  A    between atoms: C_14  and  C_15 
REMARK       I    between atoms: C_15  and  N_16 
REMARK    4  A    between atoms: N_16  and  C_17 
ROOT
HETATM    1  N   UNL     1      39.813 -15.252   2.374  1.00  0.00    -0.221 NA
HETATM    2  C   UNL     1      40.023 -14.511   3.421  1.00  0.00     0.186 C 
HETATM    3  O   UNL     1      39.680 -13.164   3.427  1.00  0.00    -0.290 OA
HETATM    4  C   UNL     1      39.720 -12.405   4.609  1.00  0.00     0.088 A 
HETATM    5  C   UNL     1      40.216 -12.953   5.784  1.00  0.00    -0.001 A 
HETATM    6  C   UNL     1      39.227 -11.103   4.557  1.00  0.00     0.038 A 
HETATM    7  C   UNL     1      39.228 -10.332   5.717  1.00  0.00     0.003 A 
HETATM    8  C   UNL     1      39.723 -10.867   6.910  1.00  0.00     0.001 A 
HETATM    9  C   UNL     1      40.219 -12.174   6.943  1.00  0.00     0.014 A 
HETATM   10  C   UNL     1      40.645 -15.065   4.650  1.00  0.00     0.086 C 
HETATM   11  C   UNL     1      40.723 -14.314   5.763  1.00  0.00     0.035 C 
ENDROOT
BRANCH  10  12
HETATM   12  C   UNL     1      41.225 -16.456   4.739  1.00  0.00     0.260 C 
HETATM   13  N   UNL     1      42.200 -16.735   3.807  1.00  0.00    -0.323 N 
HETATM   14  H   UNL     1      42.412 -15.990   3.138  1.00  0.00     0.169 HD
HETATM   15  O   UNL     1      40.824 -17.234   5.602  1.00  0.00    -0.267 OA
BRANCH  13  16
HETATM   16  C   UNL     1      42.934 -17.924   3.634  1.00  0.00     0.035 A 
HETATM   17  C   UNL     1      43.839 -18.433   4.567  1.00  0.00     0.029 A 
HETATM   18  C   UNL     1      44.522 -19.626   4.313  1.00  0.00     0.002 A 
HETATM   19  C   UNL     1      44.306 -20.321   3.124  1.00  0.00     0.000 A 
HETATM   20  C   UNL     1      43.408 -19.820   2.185  1.00  0.00     0.002 A 
HETATM   21  C   UNL     1      42.726 -18.627   2.439  1.00  0.00     0.029 A 
ENDBRANCH  13  16
ENDBRANCH  10  12
BRANCH   1  22
HETATM   22  C   UNL     1      39.282 -14.677   1.203  1.00  0.00     0.093 A 
HETATM   23  C   UNL     1      40.093 -14.549   0.058  1.00  0.00     0.097 A 
HETATM   24  C   UNL     1      39.563 -13.991  -1.112  1.00  0.00     0.039 A 
HETATM   25  C   UNL     1      38.223 -13.602  -1.159  1.00  0.00     0.003 A 
HETATM   26  C   UNL     1      37.404 -13.770  -0.045  1.00  0.00     0.002 A 
HETATM   27  C   UNL     1      37.931 -14.313   1.127  1.00  0.00     0.034 A 
BRANCH  23  28
HETATM   28  O   UNL     1      41.396 -14.968   0.186  1.00  0.00    -0.354 OA
HETATM   29  C   UNL     1      41.649 -16.328  -0.143  1.00  0.00     0.210 C 
ENDBRANCH  23  28
ENDBRANCH   1  22
TORSDOF 4
ENDMDL
MODEL 8
REMARK VINA RESULT:      -8.5      2.238      7.521
REMARK  4 active torsions:
REMARK  status: ('A' for Active; 'I' for Inactive)
REMARK    1  A    between atoms: O_2  and  C_3 
REMARK    2  A    between atoms: C_4  and  N_5 
REMARK    3  A    between atoms: C_14  and  C_15 
REMARK       I    between atoms: C_15  and  N_16 
REMARK    4  A    between atoms: N_16  and  C_17 
ROOT
HETATM    1  N   UNL     1      40.888 -15.347   1.748  1.00  0.00    -0.221 NA
HETATM    2  C   UNL     1      40.782 -14.779   2.913  1.00  0.00     0.186 C 
HETATM    3  O   UNL     1      40.510 -13.421   3.026  1.00  0.00    -0.290 OA
HETATM    4  C   UNL     1      40.201 -12.839   4.267  1.00  0.00     0.088 A 
HETATM    5  C   UNL     1      40.272 -13.585   5.436  1.00  0.00    -0.001 A 
HETATM    6  C   UNL     1      39.805 -11.503   4.272  1.00  0.00     0.038 A 
HETATM    7  C   UNL     1      39.467 -10.903   5.483  1.00  0.00     0.003 A 
HETATM    8  C   UNL     1      39.531 -11.638   6.669  1.00  0.00     0.001 A 
HETATM    9  C   UNL     1      39.936 -12.977   6.647  1.00  0.00     0.014 A 
HETATM   10  C   UNL     1      40.954 -15.551   4.170  1.00  0.00     0.086 C 
HETATM   11  C   UNL     1      40.702 -14.971   5.356  1.00  0.00     0.035 C 
ENDROOT
BRANCH  10  12
HETATM   12  C   UNL     1      41.417 -16.987   4.212  1.00  0.00     0.260 C 
HETATM   13  N   UNL     1      42.456 -17.283   3.357  1.00  0.00    -0.323 N 
HETATM   14  H   UNL     1      42.787 -16.517   2.766  1.00  0.00     0.169 HD
HETATM   15  O   UNL     1      40.875 -17.784   4.975  1.00  0.00    -0.267 OA
BRANCH  13  16
HETATM   16  C   UNL     1      43.113 -18.515   3.168  1.00  0.00     0.035 A 
HETATM   17  C   UNL     1      42.953 -19.326   2.044  1.00  0.00     0.029 A 
HETATM   18  C   UNL     1      43.651 -20.534   1.939  1.00  0.00     0.002 A 
HETATM   19  C   UNL     1      44.513 -20.939   2.956  1.00  0.00     0.000 A 
HETATM   20  C   UNL     1      44.677 -20.138   4.082  1.00  0.00     0.002 A 
HETATM   21  C   UNL     1      43.979 -18.932   4.188  1.00  0.00     0.029 A 
ENDBRANCH  13  16
ENDBRANCH  10  12
BRANCH   1  22
HETATM   22  C   UNL     1      40.783 -14.572   0.578  1.00  0.00     0.093 A 
HETATM   23  C   UNL     1      39.513 -14.183   0.108  1.00  0.00     0.097 A 
HETATM   24  C   UNL     1      39.408 -13.400  -1.048  1.00  0.00     0.039 A 
HETATM   25  C   UNL     1      40.558 -12.968  -1.711  1.00  0.00     0.003 A 
HETATM   26  C   UNL     1      41.817 -13.311  -1.224  1.00  0.00     0.002 A 
HETATM   27  C   UNL     1      41.928 -14.102  -0.081  1.00  0.00     0.034 A 
BRANCH  23  28
HETATM   28  O   UNL     1      38.433 -14.640   0.827  1.00  0.00    -0.354 OA
HETATM   29  C   UNL     1      37.240 -13.877   0.710  1.00  0.00     0.210 C 
ENDBRANCH  23  28
ENDBRANCH   1  22
TORSDOF 4
ENDMDL
MODEL 9
REMARK VINA RESULT:      -8.4      1.808      7.423
REMARK  4 active torsions:
REMARK  status: ('A' for Active; 'I' for Inactive)
REMARK    1  A    between atoms: O_2  and  C_3 
REMARK    2  A    between atoms: C_4  and  N_5 
REMARK    3  A    between atoms: C_14  and  C_15 
REMARK       I    between atoms: C_15  and  N_16 
REMARK    4  A    between atoms: N_16  and  C_17 
ROOT
HETATM    1  N   UNL     1      42.022 -14.935   0.455  1.00  0.00    -0.221 NA
HETATM    2  C   UNL     1      42.239 -14.534   1.672  1.00  0.00     0.186 C 
HETATM    3  O   UNL     1      41.829 -13.276   2.098  1.00  0.00    -0.290 OA
HETATM    4  C   UNL     1      41.881 -12.910   3.454  1.00  0.00     0.088 A 
HETATM    5  C   UNL     1      42.456 -13.757   4.393  1.00  0.00    -0.001 A 
HETATM    6  C   UNL     1      41.322 -11.687   3.813  1.00  0.00     0.038 A 
HETATM    7  C   UNL     1      41.335 -11.305   5.153  1.00  0.00     0.003 A 
HETATM    8  C   UNL     1      41.908 -12.144   6.113  1.00  0.00     0.001 A 
HETATM    9  C   UNL     1      42.470 -13.367   5.733  1.00  0.00     0.014 A 
HETATM   10  C   UNL     1      42.942 -15.396   2.658  1.00  0.00     0.086 C 
HETATM   11  C   UNL     1      43.029 -15.014   3.944  1.00  0.00     0.035 C 
ENDROOT
BRANCH  10  12
HETATM   12  C   UNL     1      43.594 -16.710   2.303  1.00  0.00     0.260 C 
HETATM   13  N   UNL     1      43.241 -17.766   3.113  1.00  0.00    -0.323 N 
HETATM   14  H   UNL     1      42.601 -17.552   3.883  1.00  0.00     0.169 HD
HETATM   15  O   UNL     1      44.367 -16.773   1.349  1.00  0.00    -0.267 OA
BRANCH  13  16
HETATM   16  C   UNL     1      43.664 -19.108   3.040  1.00  0.00     0.035 A 
HETATM   17  C   UNL     1      44.430 -19.745   4.017  1.00  0.00     0.029 A 
HETATM   18  C   UNL     1      44.802 -21.084   3.862  1.00  0.00     0.002 A 
HETATM   19  C   UNL     1      44.409 -21.797   2.731  1.00  0.00     0.000 A 
HETATM   20  C   UNL     1      43.647 -21.170   1.749  1.00  0.00     0.002 A 
HETATM   21  C   UNL     1      43.277 -19.831   1.903  1.00  0.00     0.029 A 
ENDBRANCH  13  16
ENDBRANCH  10  12
BRANCH   1  22
HETATM   22  C   UNL     1      41.412 -14.067  -0.470  1.00  0.00     0.093 A 
HETATM   23  C   UNL     1      40.015 -13.884  -0.441  1.00  0.00     0.097 A 
HETATM   24  C   UNL     1      39.407 -13.010  -1.351  1.00  0.00     0.039 A 
HETATM   25  C   UNL     1      40.186 -12.288  -2.258  1.00  0.00     0.003 A 
HETATM   26  C   UNL     1      41.572 -12.430  -2.260  1.00  0.00     0.002 A 
HETATM   27  C   UNL     1      42.181 -13.309  -1.365  1.00  0.00     0.034 A 
BRANCH  23  28
HETATM   28  O   UNL     1      39.325 -14.622   0.491  1.00  0.00    -0.354 OA
HETATM   29  C   UNL     1      38.004 -14.183   0.780  1.00  0.00     0.210 C 
ENDBRANCH  23  28
ENDBRANCH   1  22
TORSDOF 4
ENDMDL
MODEL 10
REMARK VINA RESULT:      -8.4      2.123      2.750
REMARK  4 active torsions:
REMARK  status: ('A' for Active; 'I' for Inactive)
REMARK    1  A    between atoms: O_2  and  C_3 
REMARK    2  A    between atoms: C_4  and  N_5 
REMARK    3  A    between atoms: C_14  and  C_15 
REMARK       I    between atoms: C_15  and  N_16 
REMARK    4  A    between atoms: N_16  and  C_17 
ROOT
HETATM    1  N   UNL     1      40.934 -14.574   2.353  1.00  0.00    -0.221 NA
HETATM    2  C   UNL     1      41.720 -15.605   2.264  1.00  0.00     0.186 C 
HETATM    3  O   UNL     1      42.326 -16.145   3.392  1.00  0.00    -0.290 OA
HETATM    4  C   UNL     1      43.015 -17.369   3.337  1.00  0.00     0.088 A 
HETATM    5  C   UNL     1      43.209 -18.016   2.124  1.00  0.00    -0.001 A 
HETATM    6  C   UNL     1      43.470 -17.907   4.538  1.00  0.00     0.038 A 
HETATM    7  C   UNL     1      44.135 -19.132   4.521  1.00  0.00     0.003 A 
HETATM    8  C   UNL     1      44.339 -19.799   3.310  1.00  0.00     0.001 A 
HETATM    9  C   UNL     1      43.880 -19.241   2.113  1.00  0.00     0.014 A 
HETATM   10  C   UNL     1      42.013 -16.245   0.956  1.00  0.00     0.086 C 
HETATM   11  C   UNL     1      42.716 -17.391   0.909  1.00  0.00     0.035 C 
ENDROOT
BRANCH  10  12
HETATM   12  C   UNL     1      41.572 -15.676  -0.370  1.00  0.00     0.260 C 
HETATM   13  N   UNL     1      41.829 -14.333  -0.536  1.00  0.00    -0.323 N 
HETATM   14  H   UNL     1      42.262 -13.855   0.259  1.00  0.00     0.169 HD
HETATM   15  O   UNL     1      41.036 -16.405  -1.203  1.00  0.00    -0.267 OA
BRANCH  13  16
HETATM   16  C   UNL     1      41.551 -13.517  -1.649  1.00  0.00     0.035 A 
HETATM   17  C   UNL     1      40.268 -13.252  -2.130  1.00  0.00     0.029 A 
HETATM   18  C   UNL     1      40.086 -12.425  -3.243  1.00  0.00     0.002 A 
HETATM   19  C   UNL     1      41.184 -11.854  -3.883  1.00  0.00     0.000 A 
HETATM   20  C   UNL     1      42.469 -12.115  -3.413  1.00  0.00     0.002 A 
HETATM   21  C   UNL     1      42.651 -12.942  -2.302  1.00  0.00     0.029 A 
ENDBRANCH  13  16
ENDBRANCH  10  12
BRANCH   1  22
HETATM   22  C   UNL     1      40.731 -13.953   3.600  1.00  0.00     0.093 A 
HETATM   23  C   UNL     1      41.116 -12.610   3.783  1.00  0.00     0.097 A 
HETATM   24  C   UNL     1      40.903 -11.986   5.018  1.00  0.00     0.039 A 
HETATM   25  C   UNL     1      40.270 -12.676   6.053  1.00  0.00     0.003 A 
HETATM   26  C   UNL     1      39.845 -13.989   5.863  1.00  0.00     0.002 A 
HETATM   27  C   UNL     1      40.068 -14.620   4.639  1.00  0.00     0.034 A 
BRANCH  23  28
HETATM   28  O   UNL     1      41.720 -11.999   2.709  1.00  0.00    -0.354 OA
HETATM   29  C   UNL     1      40.955 -11.000   2.049  1.00  0.00     0.210 C 
ENDBRANCH  23  28
ENDBRANCH   1  22
TORSDOF 4
ENDMDL
