MODEL 1
REMARK VINA RESULT:      -8.8      0.000      0.000
REMARK  7 active torsions:
REMARK  status: ('A' for Active; 'I' for Inactive)
REMARK    1  A    between atoms: O_2  and  C_3 
REMARK    2  A    between atoms: C_5  and  C_6 
REMARK    3  A    between atoms: C_6  and  O_7 
REMARK    4  A    between atoms: C_6  and  C_8 
REMARK    5  A    between atoms: C_8  and  N_9 
REMARK       I    between atoms: N_9  and  C_10 
REMARK    6  A    between atoms: C_10  and  C_11 
REMARK    7  A    between atoms: C_12  and  C_13 
ROOT
HETATM    1  C   UNL     1      39.084 -14.758   2.111  1.00  0.00     0.089 C 
HETATM    2  C   UNL     1      39.467 -13.796   3.255  1.00  0.00     0.068 C 
HETATM    3  C   UNL     1      39.883 -12.386   2.799  1.00  0.00     0.013 C 
HETATM    4  C   UNL     1      38.912 -11.794   1.786  1.00  0.00     0.001 C 
HETATM    5  C   UNL     1      38.726 -12.723   0.595  1.00  0.00     0.001 C 
HETATM    6  C   UNL     1      38.211 -14.087   1.038  1.00  0.00     0.015 C 
ENDROOT
BRANCH   1   7
HETATM    7  C   UNL     1      40.204 -15.566   1.441  1.00  0.00     0.222 C 
HETATM    8  N   UNL     1      40.329 -16.881   1.808  1.00  0.00    -0.358 N 
HETATM    9  H   UNL     1      39.445 -17.357   1.956  1.00  0.00     0.162 HD
HETATM   10  O   UNL     1      41.005 -15.003   0.694  1.00  0.00    -0.273 OA
BRANCH   8  11
HETATM   11  C   UNL     1      41.355 -17.745   1.240  1.00  0.00     0.159 C 
BRANCH  11  12
HETATM   12  C   UNL     1      42.823 -17.429   1.600  1.00  0.00     0.169 C 
BRANCH  12  13
HETATM   13  C   UNL     1      43.466 -18.423   2.549  1.00  0.00    -0.025 A 
HETATM   14  C   UNL     1      43.692 -19.758   2.167  1.00  0.00     0.046 A 
HETATM   15  C   UNL     1      44.307 -20.655   3.044  1.00  0.00     0.068 A 
HETATM   16  C   UNL     1      44.683 -20.219   4.316  1.00  0.00     0.037 A 
HETATM   17  C   UNL     1      44.459 -18.902   4.712  1.00  0.00     0.003 A 
HETATM   18  C   UNL     1      43.854 -18.008   3.831  1.00  0.00     0.010 A 
BRANCH  15  19
HETATM   19  O   UNL     1      44.594 -21.967   2.784  1.00  0.00    -0.356 OA
HETATM   20  C   UNL     1      44.664 -22.841   3.904  1.00  0.00     0.210 C 
ENDBRANCH  15  19
ENDBRANCH  12  13
BRANCH  12  21
HETATM   21  O   UNL     1      43.594 -17.394   0.388  1.00  0.00    -0.389 OA
HETATM   22  H   UNL     1      43.531 -18.286   0.002  1.00  0.00     0.210 HD
ENDBRANCH  12  21
ENDBRANCH  11  12
ENDBRANCH   8  11
ENDBRANCH   1   7
BRANCH   2  23
HETATM   23  C   UNL     1      40.501 -14.395   4.160  1.00  0.00     0.110 A 
HETATM   24  N   UNL     1      40.337 -15.440   4.946  1.00  0.00    -0.233 NA
HETATM   25  C   UNL     1      41.524 -15.585   5.623  1.00  0.00     0.087 A 
HETATM   26  C   UNL     1      42.435 -14.608   5.237  1.00  0.00     0.062 A 
HETATM   27  C   UNL     1      41.893 -16.531   6.588  1.00  0.00     0.057 A 
HETATM   28  N   UNL     1      41.760 -13.864   4.304  1.00  0.00    -0.342 N 
HETATM   29  C   UNL     1      43.723 -14.506   5.765  1.00  0.00     0.034 A 
HETATM   30  H   UNL     1      42.120 -13.052   3.822  1.00  0.00     0.167 HD
HETATM   31  C   UNL     1      44.079 -15.456   6.729  1.00  0.00     0.026 A 
HETATM   32  C   UNL     1      43.180 -16.448   7.131  1.00  0.00     0.036 A 
HETATM   33 CL   UNL     1      43.666 -17.594   8.322  1.00  0.00    -0.084 Cl
ENDBRANCH   2  23
TORSDOF 7
ENDMDL
MODEL 2
REMARK VINA RESULT:      -8.7      0.879      1.319
REMARK  7 active torsions:
REMARK  status: ('A' for Active; 'I' for Inactive)
REMARK    1  A    between atoms: O_2  and  C_3 
REMARK    2  A    between atoms: C_5  and  C_6 
REMARK    3  A    between atoms: C_6  and  O_7 
REMARK    4  A    between atoms: C_6  and  C_8 
REMARK    5  A    between atoms: C_8  and  N_9 
REMARK       I    between atoms: N_9  and  C_10 
REMARK    6  A    between atoms: C_10  and  C_11 
REMARK    7  A    between atoms: C_12  and  C_13 
ROOT
HETATM    1  C   UNL     1      39.138 -14.782   2.117  1.00  0.00     0.089 C 
HETATM    2  C   UNL     1      39.545 -13.793   3.228  1.00  0.00     0.068 C 
HETATM    3  C   UNL     1      39.993 -12.408   2.726  1.00  0.00     0.013 C 
HETATM    4  C   UNL     1      39.033 -11.827   1.697  1.00  0.00     0.001 C 
HETATM    5  C   UNL     1      38.822 -12.789   0.537  1.00  0.00     0.001 C 
HETATM    6  C   UNL     1      38.278 -14.127   1.025  1.00  0.00     0.015 C 
ENDROOT
BRANCH   1   7
HETATM    7  C   UNL     1      40.237 -15.637   1.472  1.00  0.00     0.222 C 
HETATM    8  N   UNL     1      40.322 -16.947   1.868  1.00  0.00    -0.358 N 
HETATM    9  H   UNL     1      39.423 -17.393   2.021  1.00  0.00     0.162 HD
HETATM   10  O   UNL     1      41.059 -15.114   0.718  1.00  0.00    -0.273 OA
BRANCH   8  11
HETATM   11  C   UNL     1      41.325 -17.852   1.325  1.00  0.00     0.159 C 
BRANCH  11  12
HETATM   12  C   UNL     1      42.793 -17.612   1.742  1.00  0.00     0.169 C 
BRANCH  12  13
HETATM   13  C   UNL     1      43.433 -18.769   2.484  1.00  0.00    -0.025 A 
HETATM   14  C   UNL     1      43.715 -18.688   3.861  1.00  0.00     0.046 A 
HETATM   15  C   UNL     1      44.283 -19.772   4.536  1.00  0.00     0.068 A 
HETATM   16  C   UNL     1      44.586 -20.937   3.828  1.00  0.00     0.037 A 
HETATM   17  C   UNL     1      44.319 -21.029   2.463  1.00  0.00     0.003 A 
HETATM   18  C   UNL     1      43.744 -19.950   1.795  1.00  0.00     0.010 A 
BRANCH  15  19
HETATM   19  O   UNL     1      44.588 -19.820   5.868  1.00  0.00    -0.356 OA
HETATM   20  C   UNL     1      43.895 -20.785   6.650  1.00  0.00     0.210 C 
ENDBRANCH  15  19
ENDBRANCH  12  13
BRANCH  12  21
HETATM   21  O   UNL     1      43.566 -17.346   0.560  1.00  0.00    -0.389 OA
HETATM   22  H   UNL     1      43.380 -18.079  -0.054  1.00  0.00     0.210 HD
ENDBRANCH  12  21
ENDBRANCH  11  12
ENDBRANCH   8  11
ENDBRANCH   1   7
BRANCH   2  23
HETATM   23  C   UNL     1      40.568 -14.385   4.151  1.00  0.00     0.110 A 
HETATM   24  N   UNL     1      40.410 -15.455   4.904  1.00  0.00    -0.233 NA
HETATM   25  C   UNL     1      41.579 -15.584   5.615  1.00  0.00     0.087 A 
HETATM   26  C   UNL     1      42.473 -14.571   5.284  1.00  0.00     0.062 A 
HETATM   27  C   UNL     1      41.946 -16.544   6.567  1.00  0.00     0.057 A 
HETATM   28  N   UNL     1      41.805 -13.822   4.350  1.00  0.00    -0.342 N 
HETATM   29  C   UNL     1      43.740 -14.446   5.856  1.00  0.00     0.034 A 
HETATM   30  H   UNL     1      42.156 -12.988   3.900  1.00  0.00     0.167 HD
HETATM   31  C   UNL     1      44.093 -15.411   6.806  1.00  0.00     0.026 A 
HETATM   32  C   UNL     1      43.211 -16.439   7.152  1.00  0.00     0.036 A 
HETATM   33 CL   UNL     1      43.693 -17.602   8.329  1.00  0.00    -0.084 Cl
ENDBRANCH   2  23
TORSDOF 7
ENDMDL
MODEL 3
REMARK VINA RESULT:      -8.3      2.857      7.349
REMARK  7 active torsions:
REMARK  status: ('A' for Active; 'I' for Inactive)
REMARK    1  A    between atoms: O_2  and  C_3 
REMARK    2  A    between atoms: C_5  and  C_6 
REMARK    3  A    between atoms: C_6  and  O_7 
REMARK    4  A    between atoms: C_6  and  C_8 
REMARK    5  A    between atoms: C_8  and  N_9 
REMARK       I    between atoms: N_9  and  C_10 
REMARK    6  A    between atoms: C_10  and  C_11 
REMARK    7  A    between atoms: C_12  and  C_13 
ROOT
HETATM    1  C   UNL     1      42.548 -18.355   4.517  1.00  0.00     0.089 C 
HETATM    2  C   UNL     1      42.417 -18.552   2.993  1.00  0.00     0.068 C 
HETATM    3  C   UNL     1      43.750 -18.772   2.255  1.00  0.00     0.013 C 
HETATM    4  C   UNL     1      44.630 -19.807   2.943  1.00  0.00     0.001 C 
HETATM    5  C   UNL     1      44.864 -19.446   4.403  1.00  0.00     0.001 C 
HETATM    6  C   UNL     1      43.545 -19.332   5.159  1.00  0.00     0.015 C 
ENDROOT
BRANCH   1   7
HETATM    7  C   UNL     1      42.798 -16.935   5.044  1.00  0.00     0.222 C 
HETATM    8  N   UNL     1      41.696 -16.196   5.392  1.00  0.00    -0.358 N 
HETATM    9  H   UNL     1      40.964 -16.732   5.846  1.00  0.00     0.162 HD
HETATM   10  O   UNL     1      43.938 -16.470   5.039  1.00  0.00    -0.273 OA
BRANCH   8  11
HETATM   11  C   UNL     1      41.811 -14.838   5.903  1.00  0.00     0.159 C 
BRANCH  11  12
HETATM   12  C   UNL     1      40.579 -13.919   5.749  1.00  0.00     0.169 C 
BRANCH  12  13
HETATM   13  C   UNL     1      40.576 -13.076   4.488  1.00  0.00    -0.025 A 
HETATM   14  C   UNL     1      41.621 -13.160   3.550  1.00  0.00     0.046 A 
HETATM   15  C   UNL     1      41.591 -12.394   2.381  1.00  0.00     0.068 A 
HETATM   16  C   UNL     1      40.519 -11.527   2.158  1.00  0.00     0.037 A 
HETATM   17  C   UNL     1      39.481 -11.427   3.082  1.00  0.00     0.003 A 
HETATM   18  C   UNL     1      39.509 -12.199   4.241  1.00  0.00     0.010 A 
BRANCH  15  19
HETATM   19  O   UNL     1      42.534 -12.399   1.391  1.00  0.00    -0.356 OA
HETATM   20  C   UNL     1      42.313 -11.526   0.290  1.00  0.00     0.210 C 
ENDBRANCH  15  19
ENDBRANCH  12  13
BRANCH  12  21
HETATM   21  O   UNL     1      39.396 -14.734   5.754  1.00  0.00    -0.389 OA
HETATM   22  H   UNL     1      38.648 -14.124   5.883  1.00  0.00     0.210 HD
ENDBRANCH  12  21
ENDBRANCH  11  12
ENDBRANCH   8  11
ENDBRANCH   1   7
BRANCH   2  23
HETATM   23  C   UNL     1      41.627 -17.447   2.356  1.00  0.00     0.110 A 
HETATM   24  N   UNL     1      40.481 -16.961   2.788  1.00  0.00    -0.233 NA
HETATM   25  C   UNL     1      40.108 -16.014   1.865  1.00  0.00     0.087 A 
HETATM   26  C   UNL     1      41.052 -15.918   0.848  1.00  0.00     0.062 A 
HETATM   27  C   UNL     1      38.970 -15.199   1.829  1.00  0.00     0.057 A 
HETATM   28  N   UNL     1      42.009 -16.840   1.185  1.00  0.00    -0.342 N 
HETATM   29  C   UNL     1      40.932 -15.042  -0.232  1.00  0.00     0.034 A 
HETATM   30  H   UNL     1      42.841 -17.050   0.651  1.00  0.00     0.167 HD
HETATM   31  C   UNL     1      39.790 -14.234  -0.256  1.00  0.00     0.026 A 
HETATM   32  C   UNL     1      38.829 -14.313   0.757  1.00  0.00     0.036 A 
HETATM   33 CL   UNL     1      37.439 -13.297   0.681  1.00  0.00    -0.084 Cl
ENDBRANCH   2  23
TORSDOF 7
ENDMDL
MODEL 4
REMARK VINA RESULT:      -8.2      2.324      4.350
REMARK  7 active torsions:
REMARK  status: ('A' for Active; 'I' for Inactive)
REMARK    1  A    between atoms: O_2  and  C_3 
REMARK    2  A    between atoms: C_5  and  C_6 
REMARK    3  A    between atoms: C_6  and  O_7 
REMARK    4  A    between atoms: C_6  and  C_8 
REMARK    5  A    between atoms: C_8  and  N_9 
REMARK       I    between atoms: N_9  and  C_10 
REMARK    6  A    between atoms: C_10  and  C_11 
REMARK    7  A    between atoms: C_12  and  C_13 
ROOT
HETATM    1  C   UNL     1      40.577 -13.264   0.340  1.00  0.00     0.089 C 
HETATM    2  C   UNL     1      39.903 -14.640   0.524  1.00  0.00     0.068 C 
HETATM    3  C   UNL     1      38.606 -14.617   1.352  1.00  0.00     0.013 C 
HETATM    4  C   UNL     1      37.655 -13.513   0.910  1.00  0.00     0.001 C 
HETATM    5  C   UNL     1      38.343 -12.155   0.930  1.00  0.00     0.001 C 
HETATM    6  C   UNL     1      39.569 -12.148   0.025  1.00  0.00     0.015 C 
ENDROOT
BRANCH   1   7
HETATM    7  C   UNL     1      41.558 -12.791   1.420  1.00  0.00     0.222 C 
HETATM    8  N   UNL     1      41.200 -13.008   2.726  1.00  0.00    -0.358 N 
HETATM    9  H   UNL     1      40.732 -13.894   2.887  1.00  0.00     0.162 HD
HETATM   10  O   UNL     1      42.561 -12.152   1.102  1.00  0.00    -0.273 OA
BRANCH   8  11
HETATM   11  C   UNL     1      42.051 -12.601   3.835  1.00  0.00     0.159 C 
BRANCH  11  12
HETATM   12  C   UNL     1      43.178 -13.571   4.253  1.00  0.00     0.169 C 
BRANCH  12  13
HETATM   13  C   UNL     1      42.733 -14.696   5.167  1.00  0.00    -0.025 A 
HETATM   14  C   UNL     1      43.667 -15.498   5.850  1.00  0.00     0.046 A 
HETATM   15  C   UNL     1      43.241 -16.515   6.707  1.00  0.00     0.068 A 
HETATM   16  C   UNL     1      41.873 -16.744   6.871  1.00  0.00     0.037 A 
HETATM   17  C   UNL     1      40.936 -15.964   6.196  1.00  0.00     0.003 A 
HETATM   18  C   UNL     1      41.365 -14.944   5.349  1.00  0.00     0.010 A 
BRANCH  15  19
HETATM   19  O   UNL     1      44.047 -17.347   7.434  1.00  0.00    -0.356 OA
HETATM   20  C   UNL     1      43.622 -18.697   7.567  1.00  0.00     0.210 C 
ENDBRANCH  15  19
ENDBRANCH  12  13
BRANCH  12  21
HETATM   21  O   UNL     1      43.750 -14.147   3.068  1.00  0.00    -0.389 OA
HETATM   22  H   UNL     1      43.017 -14.241   2.434  1.00  0.00     0.210 HD
ENDBRANCH  12  21
ENDBRANCH  11  12
ENDBRANCH   8  11
ENDBRANCH   1   7
BRANCH   2  23
HETATM   23  C   UNL     1      40.863 -15.661   1.058  1.00  0.00     0.110 A 
HETATM   24  N   UNL     1      40.776 -16.279   2.218  1.00  0.00    -0.233 NA
HETATM   25  C   UNL     1      41.896 -17.071   2.301  1.00  0.00     0.087 A 
HETATM   26  C   UNL     1      42.682 -16.936   1.162  1.00  0.00     0.062 A 
HETATM   27  C   UNL     1      42.309 -17.932   3.326  1.00  0.00     0.057 A 
HETATM   28  N   UNL     1      42.001 -16.034   0.386  1.00  0.00    -0.342 N 
HETATM   29  C   UNL     1      43.885 -17.618   0.972  1.00  0.00     0.034 A 
HETATM   30  H   UNL     1      42.298 -15.688  -0.516  1.00  0.00     0.167 HD
HETATM   31  C   UNL     1      44.286 -18.473   2.004  1.00  0.00     0.026 A 
HETATM   32  C   UNL     1      43.512 -18.625   3.157  1.00  0.00     0.036 A 
HETATM   33 CL   UNL     1      44.050 -19.691   4.400  1.00  0.00    -0.084 Cl
ENDBRANCH   2  23
TORSDOF 7
ENDMDL
MODEL 5
REMARK VINA RESULT:      -8.1      2.680      6.375
REMARK  7 active torsions:
REMARK  status: ('A' for Active; 'I' for Inactive)
REMARK    1  A    between atoms: O_2  and  C_3 
REMARK    2  A    between atoms: C_5  and  C_6 
REMARK    3  A    between atoms: C_6  and  O_7 
REMARK    4  A    between atoms: C_6  and  C_8 
REMARK    5  A    between atoms: C_8  and  N_9 
REMARK       I    between atoms: N_9  and  C_10 
REMARK    6  A    between atoms: C_10  and  C_11 
REMARK    7  A    between atoms: C_12  and  C_13 
ROOT
HETATM    1  C   UNL     1      44.107 -17.591   5.569  1.00  0.00     0.089 C 
HETATM    2  C   UNL     1      43.715 -16.484   6.570  1.00  0.00     0.068 C 
HETATM    3  C   UNL     1      43.074 -16.992   7.874  1.00  0.00     0.013 C 
HETATM    4  C   UNL     1      43.855 -18.143   8.494  1.00  0.00     0.001 C 
HETATM    5  C   UNL     1      44.044 -19.278   7.498  1.00  0.00     0.001 C 
HETATM    6  C   UNL     1      44.774 -18.797   6.250  1.00  0.00     0.015 C 
ENDROOT
BRANCH   1   7
HETATM    7  C   UNL     1      43.043 -18.077   4.576  1.00  0.00     0.222 C 
HETATM    8  N   UNL     1      43.402 -18.128   3.253  1.00  0.00    -0.358 N 
HETATM    9  H   UNL     1      44.355 -18.438   3.094  1.00  0.00     0.162 HD
HETATM   10  O   UNL     1      41.896 -18.298   4.964  1.00  0.00    -0.273 OA
BRANCH   8  11
HETATM   11  C   UNL     1      42.476 -18.572   2.221  1.00  0.00     0.159 C 
BRANCH  11  12
HETATM   12  C   UNL     1      42.375 -17.710   0.943  1.00  0.00     0.169 C 
BRANCH  12  13
HETATM   13  C   UNL     1      41.428 -16.531   1.053  1.00  0.00    -0.025 A 
HETATM   14  C   UNL     1      41.484 -15.459   0.142  1.00  0.00     0.046 A 
HETATM   15  C   UNL     1      40.588 -14.392   0.241  1.00  0.00     0.068 A 
HETATM   16  C   UNL     1      39.641 -14.387   1.268  1.00  0.00     0.037 A 
HETATM   17  C   UNL     1      39.578 -15.436   2.182  1.00  0.00     0.003 A 
HETATM   18  C   UNL     1      40.466 -16.504   2.074  1.00  0.00     0.010 A 
BRANCH  15  19
HETATM   19  O   UNL     1      40.534 -13.306  -0.588  1.00  0.00    -0.356 OA
HETATM   20  C   UNL     1      41.752 -12.906  -1.202  1.00  0.00     0.210 C 
ENDBRANCH  15  19
ENDBRANCH  12  13
BRANCH  12  21
HETATM   21  O   UNL     1      43.684 -17.212   0.623  1.00  0.00    -0.389 OA
HETATM   22  H   UNL     1      44.190 -17.977   0.293  1.00  0.00     0.210 HD
ENDBRANCH  12  21
ENDBRANCH  11  12
ENDBRANCH   8  11
ENDBRANCH   1   7
BRANCH   2  23
HETATM   23  C   UNL     1      42.863 -15.432   5.927  1.00  0.00     0.110 A 
HETATM   24  N   UNL     1      43.263 -14.536   5.046  1.00  0.00    -0.233 NA
HETATM   25  C   UNL     1      42.163 -13.755   4.786  1.00  0.00     0.087 A 
HETATM   26  C   UNL     1      41.065 -14.187   5.522  1.00  0.00     0.062 A 
HETATM   27  C   UNL     1      42.031 -12.652   3.933  1.00  0.00     0.057 A 
HETATM   28  N   UNL     1      41.537 -15.256   6.239  1.00  0.00    -0.342 N 
HETATM   29  C   UNL     1      39.811 -13.576   5.464  1.00  0.00     0.034 A 
HETATM   30  H   UNL     1      41.005 -15.807   6.899  1.00  0.00     0.167 HD
HETATM   31  C   UNL     1      39.694 -12.475   4.608  1.00  0.00     0.026 A 
HETATM   32  C   UNL     1      40.783 -12.024   3.859  1.00  0.00     0.036 A 
HETATM   33 CL   UNL     1      40.587 -10.663   2.819  1.00  0.00    -0.084 Cl
ENDBRANCH   2  23
TORSDOF 7
ENDMDL
MODEL 6
REMARK VINA RESULT:      -7.9      3.347      6.717
REMARK  7 active torsions:
REMARK  status: ('A' for Active; 'I' for Inactive)
REMARK    1  A    between atoms: O_2  and  C_3 
REMARK    2  A    between atoms: C_5  and  C_6 
REMARK    3  A    between atoms: C_6  and  O_7 
REMARK    4  A    between atoms: C_6  and  C_8 
REMARK    5  A    between atoms: C_8  and  N_9 
REMARK       I    between atoms: N_9  and  C_10 
REMARK    6  A    between atoms: C_10  and  C_11 
REMARK    7  A    between atoms: C_12  and  C_13 
ROOT
HETATM    1  C   UNL     1      39.558 -14.533   1.946  1.00  0.00     0.089 C 
HETATM    2  C   UNL     1      40.017 -14.985   3.349  1.00  0.00     0.068 C 
HETATM    3  C   UNL     1      40.518 -13.850   4.259  1.00  0.00     0.013 C 
HETATM    4  C   UNL     1      39.576 -12.654   4.268  1.00  0.00     0.001 C 
HETATM    5  C   UNL     1      39.314 -12.149   2.857  1.00  0.00     0.001 C 
HETATM    6  C   UNL     1      38.718 -13.247   1.983  1.00  0.00     0.015 C 
ENDROOT
BRANCH   1   7
HETATM    7  C   UNL     1      40.615 -14.434   0.838  1.00  0.00     0.222 C 
HETATM    8  N   UNL     1      40.539 -15.349  -0.180  1.00  0.00    -0.358 N 
HETATM    9  H   UNL     1      39.591 -15.573  -0.467  1.00  0.00     0.162 HD
HETATM   10  O   UNL     1      41.540 -13.628   0.942  1.00  0.00    -0.273 OA
BRANCH   8  11
HETATM   11  C   UNL     1      41.486 -15.352  -1.285  1.00  0.00     0.159 C 
BRANCH  11  12
HETATM   12  C   UNL     1      40.916 -15.567  -2.705  1.00  0.00     0.169 C 
BRANCH  12  13
HETATM   13  C   UNL     1      39.707 -14.712  -3.033  1.00  0.00    -0.025 A 
HETATM   14  C   UNL     1      38.559 -15.267  -3.627  1.00  0.00     0.046 A 
HETATM   15  C   UNL     1      37.443 -14.471  -3.901  1.00  0.00     0.068 A 
HETATM   16  C   UNL     1      37.483 -13.109  -3.594  1.00  0.00     0.037 A 
HETATM   17  C   UNL     1      38.615 -12.544  -3.012  1.00  0.00     0.003 A 
HETATM   18  C   UNL     1      39.722 -13.342  -2.732  1.00  0.00     0.010 A 
BRANCH  15  19
HETATM   19  O   UNL     1      36.269 -14.894  -4.460  1.00  0.00    -0.356 OA
HETATM   20  C   UNL     1      35.447 -13.898  -5.056  1.00  0.00     0.210 C 
ENDBRANCH  15  19
ENDBRANCH  12  13
BRANCH  12  21
HETATM   21  O   UNL     1      41.949 -15.279  -3.661  1.00  0.00    -0.389 OA
HETATM   22  H   UNL     1      41.495 -14.955  -4.459  1.00  0.00     0.210 HD
ENDBRANCH  12  21
ENDBRANCH  11  12
ENDBRANCH   8  11
ENDBRANCH   1   7
BRANCH   2  23
HETATM   23  C   UNL     1      41.021 -16.096   3.272  1.00  0.00     0.110 A 
HETATM   24  N   UNL     1      41.056 -17.054   2.368  1.00  0.00    -0.233 NA
HETATM   25  C   UNL     1      42.103 -17.867   2.729  1.00  0.00     0.087 A 
HETATM   26  C   UNL     1      42.725 -17.390   3.878  1.00  0.00     0.062 A 
HETATM   27  C   UNL     1      42.578 -19.036   2.121  1.00  0.00     0.057 A 
HETATM   28  N   UNL     1      42.018 -16.261   4.203  1.00  0.00    -0.342 N 
HETATM   29  C   UNL     1      43.817 -18.019   4.478  1.00  0.00     0.034 A 
HETATM   30  H   UNL     1      42.190 -15.666   5.001  1.00  0.00     0.167 HD
HETATM   31  C   UNL     1      44.281 -19.186   3.861  1.00  0.00     0.026 A 
HETATM   32  C   UNL     1      43.672 -19.682   2.705  1.00  0.00     0.036 A 
HETATM   33 CL   UNL     1      44.280 -21.125   1.984  1.00  0.00    -0.084 Cl
ENDBRANCH   2  23
TORSDOF 7
ENDMDL
MODEL 7
REMARK VINA RESULT:      -7.7      3.453      5.226
REMARK  7 active torsions:
REMARK  status: ('A' for Active; 'I' for Inactive)
REMARK    1  A    between atoms: O_2  and  C_3 
REMARK    2  A    between atoms: C_5  and  C_6 
REMARK    3  A    between atoms: C_6  and  O_7 
REMARK    4  A    between atoms: C_6  and  C_8 
REMARK    5  A    between atoms: C_8  and  N_9 
REMARK       I    between atoms: N_9  and  C_10 
REMARK    6  A    between atoms: C_10  and  C_11 
REMARK    7  A    between atoms: C_12  and  C_13 
ROOT
HETATM    1  C   UNL     1      42.009 -12.309   4.347  1.00  0.00     0.089 C 
HETATM    2  C   UNL     1      40.815 -11.925   3.447  1.00  0.00     0.068 C 
HETATM    3  C   UNL     1      39.458 -12.495   3.899  1.00  0.00     0.013 C 
HETATM    4  C   UNL     1      39.208 -12.288   5.386  1.00  0.00     0.001 C 
HETATM    5  C   UNL     1      40.347 -12.858   6.220  1.00  0.00     0.001 C 
HETATM    6  C   UNL     1      41.677 -12.215   5.845  1.00  0.00     0.015 C 
ENDROOT
BRANCH   1   7
HETATM    7  C   UNL     1      42.737 -13.629   4.056  1.00  0.00     0.222 C 
HETATM    8  N   UNL     1      42.296 -14.743   4.722  1.00  0.00    -0.358 N 
HETATM    9  H   UNL     1      41.288 -14.789   4.833  1.00  0.00     0.162 HD
HETATM   10  O   UNL     1      43.735 -13.633   3.336  1.00  0.00    -0.273 OA
BRANCH   8  11
HETATM   11  C   UNL     1      42.910 -16.049   4.527  1.00  0.00     0.159 C 
BRANCH  11  12
HETATM   12  C   UNL     1      42.151 -17.062   3.641  1.00  0.00     0.169 C 
BRANCH  12  13
HETATM   13  C   UNL     1      42.924 -18.329   3.329  1.00  0.00    -0.025 A 
HETATM   14  C   UNL     1      43.770 -18.923   4.284  1.00  0.00     0.046 A 
HETATM   15  C   UNL     1      44.457 -20.104   3.989  1.00  0.00     0.068 A 
HETATM   16  C   UNL     1      44.310 -20.685   2.728  1.00  0.00     0.037 A 
HETATM   17  C   UNL     1      43.481 -20.104   1.770  1.00  0.00     0.003 A 
HETATM   18  C   UNL     1      42.791 -18.932   2.070  1.00  0.00     0.010 A 
BRANCH  15  19
HETATM   19  O   UNL     1      45.292 -20.782   4.834  1.00  0.00    -0.356 OA
HETATM   20  C   UNL     1      44.872 -22.076   5.248  1.00  0.00     0.210 C 
ENDBRANCH  15  19
ENDBRANCH  12  13
BRANCH  12  21
HETATM   21  O   UNL     1      40.930 -17.426   4.305  1.00  0.00    -0.389 OA
HETATM   22  H   UNL     1      40.771 -18.361   4.084  1.00  0.00     0.210 HD
ENDBRANCH  12  21
ENDBRANCH  11  12
ENDBRANCH   8  11
ENDBRANCH   1   7
BRANCH   2  23
HETATM   23  C   UNL     1      41.080 -12.246   2.007  1.00  0.00     0.110 A 
HETATM   24  N   UNL     1      40.521 -13.214   1.309  1.00  0.00    -0.233 NA
HETATM   25  C   UNL     1      41.107 -13.163   0.068  1.00  0.00     0.087 A 
HETATM   26  C   UNL     1      42.043 -12.137   0.006  1.00  0.00     0.062 A 
HETATM   27  C   UNL     1      40.891 -13.969  -1.057  1.00  0.00     0.057 A 
HETATM   28  N   UNL     1      42.006 -11.568   1.253  1.00  0.00    -0.342 N 
HETATM   29  C   UNL     1      42.800 -11.854  -1.133  1.00  0.00     0.034 A 
HETATM   30  H   UNL     1      42.577 -10.796   1.567  1.00  0.00     0.167 HD
HETATM   31  C   UNL     1      42.574 -12.667  -2.249  1.00  0.00     0.026 A 
HETATM   32  C   UNL     1      41.637 -13.703  -2.209  1.00  0.00     0.036 A 
HETATM   33 CL   UNL     1      41.397 -14.677  -3.611  1.00  0.00    -0.084 Cl
ENDBRANCH   2  23
TORSDOF 7
ENDMDL
MODEL 8
REMARK VINA RESULT:      -7.6      2.885      6.870
REMARK  7 active torsions:
REMARK  status: ('A' for Active; 'I' for Inactive)
REMARK    1  A    between atoms: O_2  and  C_3 
REMARK    2  A    between atoms: C_5  and  C_6 
REMARK    3  A    between atoms: C_6  and  O_7 
REMARK    4  A    between atoms: C_6  and  C_8 
REMARK    5  A    between atoms: C_8  and  N_9 
REMARK       I    between atoms: N_9  and  C_10 
REMARK    6  A    between atoms: C_10  and  C_11 
REMARK    7  A    between atoms: C_12  and  C_13 
ROOT
HETATM    1  C   UNL     1      43.547 -17.348   1.836  1.00  0.00     0.089 C 
HETATM    2  C   UNL     1      43.497 -17.110   3.360  1.00  0.00     0.068 C 
HETATM    3  C   UNL     1      42.969 -18.300   4.181  1.00  0.00     0.013 C 
HETATM    4  C   UNL     1      43.619 -19.617   3.778  1.00  0.00     0.001 C 
HETATM    5  C   UNL     1      43.467 -19.870   2.285  1.00  0.00     0.001 C 
HETATM    6  C   UNL     1      44.085 -18.740   1.470  1.00  0.00     0.015 C 
ENDROOT
BRANCH   1   7
HETATM    7  C   UNL     1      42.286 -17.045   1.017  1.00  0.00     0.222 C 
HETATM    8  N   UNL     1      42.297 -15.906   0.253  1.00  0.00    -0.358 N 
HETATM    9  H   UNL     1      43.190 -15.711  -0.188  1.00  0.00     0.162 HD
HETATM   10  O   UNL     1      41.286 -17.752   1.144  1.00  0.00    -0.273 OA
BRANCH   8  11
HETATM   11  C   UNL     1      41.157 -15.517  -0.565  1.00  0.00     0.159 C 
BRANCH  11  12
HETATM   12  C   UNL     1      40.149 -14.524   0.054  1.00  0.00     0.169 C 
BRANCH  12  13
HETATM   13  C   UNL     1      40.670 -13.108   0.203  1.00  0.00    -0.025 A 
HETATM   14  C   UNL     1      41.920 -12.729  -0.322  1.00  0.00     0.046 A 
HETATM   15  C   UNL     1      42.375 -11.414  -0.198  1.00  0.00     0.068 A 
HETATM   16  C   UNL     1      41.585 -10.476   0.469  1.00  0.00     0.037 A 
HETATM   17  C   UNL     1      40.349 -10.837   1.001  1.00  0.00     0.003 A 
HETATM   18  C   UNL     1      39.893 -12.147   0.867  1.00  0.00     0.010 A 
BRANCH  15  19
HETATM   19  O   UNL     1      43.559 -10.923  -0.677  1.00  0.00    -0.356 OA
HETATM   20  C   UNL     1      43.576  -9.554  -1.060  1.00  0.00     0.210 C 
ENDBRANCH  15  19
ENDBRANCH  12  13
BRANCH  12  21
HETATM   21  O   UNL     1      38.973 -14.492  -0.771  1.00  0.00    -0.389 OA
HETATM   22  H   UNL     1      39.287 -14.351  -1.682  1.00  0.00     0.210 HD
ENDBRANCH  12  21
ENDBRANCH  11  12
ENDBRANCH   8  11
ENDBRANCH   1   7
BRANCH   2  23
HETATM   23  C   UNL     1      42.757 -15.852   3.701  1.00  0.00     0.110 A 
HETATM   24  N   UNL     1      43.102 -14.628   3.356  1.00  0.00    -0.233 NA
HETATM   25  C   UNL     1      42.169 -13.802   3.935  1.00  0.00     0.087 A 
HETATM   26  C   UNL     1      41.230 -14.541   4.646  1.00  0.00     0.062 A 
HETATM   27  C   UNL     1      42.064 -12.406   3.897  1.00  0.00     0.057 A 
HETATM   28  N   UNL     1      41.626 -15.843   4.480  1.00  0.00    -0.342 N 
HETATM   29  C   UNL     1      40.166 -13.965   5.343  1.00  0.00     0.034 A 
HETATM   30  H   UNL     1      41.175 -16.653   4.881  1.00  0.00     0.167 HD
HETATM   31  C   UNL     1      40.074 -12.569   5.298  1.00  0.00     0.026 A 
HETATM   32  C   UNL     1      41.006 -11.807   4.589  1.00  0.00     0.036 A 
HETATM   33 CL   UNL     1      40.849 -10.091   4.566  1.00  0.00    -0.084 Cl
ENDBRANCH   2  23
TORSDOF 7
ENDMDL
MODEL 9
REMARK VINA RESULT:      -7.6      2.315      3.159
REMARK  7 active torsions:
REMARK  status: ('A' for Active; 'I' for Inactive)
REMARK    1  A    between atoms: O_2  and  C_3 
REMARK    2  A    between atoms: C_5  and  C_6 
REMARK    3  A    between atoms: C_6  and  O_7 
REMARK    4  A    between atoms: C_6  and  C_8 
REMARK    5  A    between atoms: C_8  and  N_9 
REMARK       I    between atoms: N_9  and  C_10 
REMARK    6  A    between atoms: C_10  and  C_11 
REMARK    7  A    between atoms: C_12  and  C_13 
ROOT
HETATM    1  C   UNL     1      40.012 -14.014  -0.528  1.00  0.00     0.089 C 
HETATM    2  C   UNL     1      40.628 -12.712   0.026  1.00  0.00     0.068 C 
HETATM    3  C   UNL     1      41.630 -12.022  -0.916  1.00  0.00     0.013 C 
HETATM    4  C   UNL     1      41.102 -11.904  -2.339  1.00  0.00     0.001 C 
HETATM    5  C   UNL     1      40.684 -13.262  -2.884  1.00  0.00     0.001 C 
HETATM    6  C   UNL     1      39.612 -13.899  -2.007  1.00  0.00     0.015 C 
ENDROOT
BRANCH   1   7
HETATM    7  C   UNL     1      40.770 -15.328  -0.294  1.00  0.00     0.222 C 
HETATM    8  N   UNL     1      40.710 -15.867   0.965  1.00  0.00    -0.358 N 
HETATM    9  H   UNL     1      39.805 -15.772   1.414  1.00  0.00     0.162 HD
HETATM   10  O   UNL     1      41.480 -15.795  -1.186  1.00  0.00    -0.273 OA
BRANCH   8  11
HETATM   11  C   UNL     1      41.390 -17.109   1.304  1.00  0.00     0.159 C 
BRANCH  11  12
HETATM   12  C   UNL     1      42.920 -17.045   1.508  1.00  0.00     0.169 C 
BRANCH  12  13
HETATM   13  C   UNL     1      43.442 -17.915   2.635  1.00  0.00    -0.025 A 
HETATM   14  C   UNL     1      43.531 -17.430   3.953  1.00  0.00     0.046 A 
HETATM   15  C   UNL     1      43.991 -18.252   4.985  1.00  0.00     0.068 A 
HETATM   16  C   UNL     1      44.380 -19.562   4.695  1.00  0.00     0.037 A 
HETATM   17  C   UNL     1      44.304 -20.054   3.393  1.00  0.00     0.003 A 
HETATM   18  C   UNL     1      43.836 -19.235   2.369  1.00  0.00     0.010 A 
BRANCH  15  19
HETATM   19  O   UNL     1      44.108 -17.903   6.302  1.00  0.00    -0.356 OA
HETATM   20  C   UNL     1      43.711 -18.875   7.261  1.00  0.00     0.210 C 
ENDBRANCH  15  19
ENDBRANCH  12  13
BRANCH  12  21
HETATM   21  O   UNL     1      43.562 -17.448   0.288  1.00  0.00    -0.389 OA
HETATM   22  H   UNL     1      43.153 -16.919  -0.420  1.00  0.00     0.210 HD
ENDBRANCH  12  21
ENDBRANCH  11  12
ENDBRANCH   8  11
ENDBRANCH   1   7
BRANCH   2  23
HETATM   23  C   UNL     1      41.222 -12.916   1.388  1.00  0.00     0.110 A 
HETATM   24  N   UNL     1      42.461 -13.281   1.650  1.00  0.00    -0.233 NA
HETATM   25  C   UNL     1      42.532 -13.394   3.018  1.00  0.00     0.087 A 
HETATM   26  C   UNL     1      41.309 -13.086   3.603  1.00  0.00     0.062 A 
HETATM   27  C   UNL     1      43.613 -13.762   3.829  1.00  0.00     0.057 A 
HETATM   28  N   UNL     1      40.493 -12.783   2.544  1.00  0.00    -0.342 N 
HETATM   29  C   UNL     1      41.085 -13.122   4.980  1.00  0.00     0.034 A 
HETATM   30  H   UNL     1      39.517 -12.528   2.604  1.00  0.00     0.167 HD
HETATM   31  C   UNL     1      42.173 -13.491   5.780  1.00  0.00     0.026 A 
HETATM   32  C   UNL     1      43.411 -13.804   5.212  1.00  0.00     0.036 A 
HETATM   33 CL   UNL     1      44.720 -14.255   6.240  1.00  0.00    -0.084 Cl
ENDBRANCH   2  23
TORSDOF 7
ENDMDL
MODEL 10
REMARK VINA RESULT:      -7.5      3.513      6.759
REMARK  7 active torsions:
REMARK  status: ('A' for Active; 'I' for Inactive)
REMARK    1  A    between atoms: O_2  and  C_3 
REMARK    2  A    between atoms: C_5  and  C_6 
REMARK    3  A    between atoms: C_6  and  O_7 
REMARK    4  A    between atoms: C_6  and  C_8 
REMARK    5  A    between atoms: C_8  and  N_9 
REMARK       I    between atoms: N_9  and  C_10 
REMARK    6  A    between atoms: C_10  and  C_11 
REMARK    7  A    between atoms: C_12  and  C_13 
ROOT
HETATM    1  C   UNL     1      40.494 -15.036   3.210  1.00  0.00     0.089 C 
HETATM    2  C   UNL     1      41.072 -15.737   4.458  1.00  0.00     0.068 C 
HETATM    3  C   UNL     1      41.799 -14.804   5.443  1.00  0.00     0.013 C 
HETATM    4  C   UNL     1      40.997 -13.547   5.751  1.00  0.00     0.001 C 
HETATM    5  C   UNL     1      40.619 -12.810   4.475  1.00  0.00     0.001 C 
HETATM    6  C   UNL     1      39.806 -13.703   3.544  1.00  0.00     0.015 C 
ENDROOT
BRANCH   1   7
HETATM    7  C   UNL     1      41.411 -14.858   1.992  1.00  0.00     0.222 C 
HETATM    8  N   UNL     1      41.058 -15.522   0.845  1.00  0.00    -0.358 N 
HETATM    9  H   UNL     1      40.059 -15.544   0.669  1.00  0.00     0.162 HD
HETATM   10  O   UNL     1      42.464 -14.231   2.103  1.00  0.00    -0.273 OA
BRANCH   8  11
HETATM   11  C   UNL     1      41.851 -15.429  -0.372  1.00  0.00     0.159 C 
BRANCH  11  12
HETATM   12  C   UNL     1      41.185 -14.771  -1.601  1.00  0.00     0.169 C 
BRANCH  12  13
HETATM   13  C   UNL     1      41.753 -13.415  -1.974  1.00  0.00    -0.025 A 
HETATM   14  C   UNL     1      41.839 -13.002  -3.316  1.00  0.00     0.046 A 
HETATM   15  C   UNL     1      42.342 -11.740  -3.642  1.00  0.00     0.068 A 
HETATM   16  C   UNL     1      42.777 -10.892  -2.621  1.00  0.00     0.037 A 
HETATM   17  C   UNL     1      42.705 -11.289  -1.288  1.00  0.00     0.003 A 
HETATM   18  C   UNL     1      42.194 -12.545  -0.966  1.00  0.00     0.010 A 
BRANCH  15  19
HETATM   19  O   UNL     1      42.461 -11.221  -4.902  1.00  0.00    -0.356 OA
HETATM   20  C   UNL     1      41.413 -10.369  -5.347  1.00  0.00     0.210 C 
ENDBRANCH  15  19
ENDBRANCH  12  13
BRANCH  12  21
HETATM   21  O   UNL     1      41.333 -15.651  -2.727  1.00  0.00    -0.389 OA
HETATM   22  H   UNL     1      40.831 -16.456  -2.508  1.00  0.00     0.210 HD
ENDBRANCH  12  21
ENDBRANCH  11  12
ENDBRANCH   8  11
ENDBRANCH   1   7
BRANCH   2  23
HETATM   23  C   UNL     1      41.935 -16.905   4.087  1.00  0.00     0.110 A 
HETATM   24  N   UNL     1      41.811 -17.655   3.010  1.00  0.00    -0.233 NA
HETATM   25  C   UNL     1      42.775 -18.628   3.122  1.00  0.00     0.087 A 
HETATM   26  C   UNL     1      43.506 -18.466   4.294  1.00  0.00     0.062 A 
HETATM   27  C   UNL     1      43.079 -19.689   2.260  1.00  0.00     0.057 A 
HETATM   28  N   UNL     1      42.953 -17.361   4.889  1.00  0.00    -0.342 N 
HETATM   29  C   UNL     1      44.547 -19.314   4.674  1.00  0.00     0.034 A 
HETATM   30  H   UNL     1      43.233 -16.965   5.775  1.00  0.00     0.167 HD
HETATM   31  C   UNL     1      44.841 -20.370   3.804  1.00  0.00     0.026 A 
HETATM   32  C   UNL     1      44.119 -20.551   2.621  1.00  0.00     0.036 A 
HETATM   33 CL   UNL     1      44.518 -21.868   1.583  1.00  0.00    -0.084 Cl
ENDBRANCH   2  23
TORSDOF 7
ENDMDL
