MODEL 1
REMARK VINA RESULT:      -7.4      0.000      0.000
REMARK  5 active torsions:
REMARK  status: ('A' for Active; 'I' for Inactive)
REMARK    1  A    between atoms: C_2  and  O_3 
REMARK    2  A    between atoms: C_4  and  C_5 
REMARK    3  A    between atoms: C_5  and  O_6 
REMARK    4  A    between atoms: C_9  and  C_10 
REMARK    5  A    between atoms: C_22  and  O_23 
ROOT
HETATM    1  C   UNL     1      44.122 -14.650   4.942  1.00  0.00     0.047 C 
HETATM    2  C   UNL     1      42.897 -14.972   5.814  1.00  0.00     0.073 C 
HETATM    3  C   UNL     1      42.465 -16.468   5.661  1.00  0.00     0.133 C 
HETATM    4  C   UNL     1      41.645 -16.852   4.391  1.00  0.00     0.074 C 
HETATM    5  C   UNL     1      40.879 -15.697   3.849  1.00  0.00     0.030 A 
HETATM    6  C   UNL     1      40.951 -14.417   4.355  1.00  0.00     0.042 A 
HETATM    7  N   UNL     1      40.079 -13.653   3.632  1.00  0.00    -0.279 N 
HETATM    8  H   UNL     1      39.865 -12.665   3.735  1.00  0.00     0.189 HD
HETATM    9  N   UNL     1      39.422 -14.362   2.689  1.00  0.00    -0.149 NA
HETATM   10  C   UNL     1      39.904 -15.587   2.856  1.00  0.00     0.190 A 
HETATM   11  C   UNL     1      41.758 -13.959   5.511  1.00  0.00     0.097 C 
ENDROOT
BRANCH   4  12
HETATM   12  C   UNL     1      42.508 -17.449   3.282  1.00  0.00    -0.047 A 
HETATM   13  C   UNL     1      42.791 -18.818   3.139  1.00  0.00     0.027 A 
HETATM   14  C   UNL     1      43.573 -19.278   2.076  1.00  0.00     0.011 A 
HETATM   15 BR   UNL     1      43.928 -21.128   1.910  1.00  0.00    -0.051 Br
HETATM   16  C   UNL     1      44.091 -18.391   1.138  1.00  0.00     0.019 A 
HETATM   17  C   UNL     1      43.824 -17.031   1.262  1.00  0.00     0.002 A 
HETATM   18  C   UNL     1      43.035 -16.566   2.318  1.00  0.00     0.008 A 
ENDBRANCH   4  12
BRANCH   3  19
HETATM   19  C   UNL     1      41.708 -16.923   6.896  1.00  0.00     0.266 C 
HETATM   20  O   UNL     1      40.483 -16.906   6.962  1.00  0.00    -0.265 OA
BRANCH  19  21
HETATM   21  O   UNL     1      42.531 -17.351   7.887  1.00  0.00    -0.326 OA
HETATM   22  C   UNL     1      43.489 -18.330   7.480  1.00  0.00     0.213 C 
ENDBRANCH  19  21
ENDBRANCH   3  19
BRANCH   2  23
HETATM   23  O   UNL     1      43.333 -14.720   7.164  1.00  0.00    -0.389 OA
HETATM   24  H   UNL     1      42.691 -15.118   7.780  1.00  0.00     0.210 HD
ENDBRANCH   2  23
BRANCH  10  25
HETATM   25  O   UNL     1      39.384 -16.516   2.064  1.00  0.00    -0.343 OA
HETATM   26  H   UNL     1      40.136 -17.082   1.824  1.00  0.00     0.219 HD
ENDBRANCH  10  25
TORSDOF 5
ENDMDL
MODEL 2
REMARK VINA RESULT:      -7.0      2.751      4.556
REMARK  5 active torsions:
REMARK  status: ('A' for Active; 'I' for Inactive)
REMARK    1  A    between atoms: C_2  and  O_3 
REMARK    2  A    between atoms: C_4  and  C_5 
REMARK    3  A    between atoms: C_5  and  O_6 
REMARK    4  A    between atoms: C_9  and  C_10 
REMARK    5  A    between atoms: C_22  and  O_23 
ROOT
HETATM    1  C   UNL     1      40.420 -17.735   4.282  1.00  0.00     0.047 C 
HETATM    2  C   UNL     1      41.146 -16.382   4.371  1.00  0.00     0.073 C 
HETATM    3  C   UNL     1      42.474 -16.393   3.542  1.00  0.00     0.133 C 
HETATM    4  C   UNL     1      43.715 -17.087   4.183  1.00  0.00     0.074 C 
HETATM    5  C   UNL     1      43.653 -17.082   5.671  1.00  0.00     0.030 A 
HETATM    6  C   UNL     1      42.586 -16.599   6.397  1.00  0.00     0.042 A 
HETATM    7  N   UNL     1      42.916 -16.721   7.718  1.00  0.00    -0.279 N 
HETATM    8  H   UNL     1      42.372 -16.458   8.534  1.00  0.00     0.189 HD
HETATM    9  N   UNL     1      44.149 -17.240   7.902  1.00  0.00    -0.149 NA
HETATM   10  C   UNL     1      44.576 -17.427   6.659  1.00  0.00     0.190 A 
HETATM   11  C   UNL     1      41.345 -15.992   5.862  1.00  0.00     0.097 C 
ENDROOT
BRANCH   4  12
HETATM   12  C   UNL     1      43.917 -18.519   3.693  1.00  0.00    -0.047 A 
HETATM   13  C   UNL     1      44.358 -19.584   4.497  1.00  0.00     0.027 A 
HETATM   14  C   UNL     1      44.493 -20.870   3.967  1.00  0.00     0.011 A 
HETATM   15 BR   UNL     1      45.082 -22.281   5.080  1.00  0.00    -0.051 Br
HETATM   16  C   UNL     1      44.196 -21.124   2.632  1.00  0.00     0.019 A 
HETATM   17  C   UNL     1      43.760 -20.084   1.819  1.00  0.00     0.002 A 
HETATM   18  C   UNL     1      43.616 -18.797   2.345  1.00  0.00     0.008 A 
ENDBRANCH   4  12
BRANCH   3  19
HETATM   19  C   UNL     1      42.850 -14.979   3.139  1.00  0.00     0.266 C 
HETATM   20  O   UNL     1      43.606 -14.281   3.808  1.00  0.00    -0.265 OA
BRANCH  19  21
HETATM   21  O   UNL     1      42.273 -14.595   1.972  1.00  0.00    -0.326 OA
HETATM   22  C   UNL     1      42.241 -15.609   0.966  1.00  0.00     0.213 C 
ENDBRANCH  19  21
ENDBRANCH   3  19
BRANCH   2  23
HETATM   23  O   UNL     1      40.221 -15.433   3.808  1.00  0.00    -0.389 OA
HETATM   24  H   UNL     1      39.428 -15.910   3.502  1.00  0.00     0.210 HD
ENDBRANCH   2  23
BRANCH  10  25
HETATM   25  O   UNL     1      45.810 -17.901   6.547  1.00  0.00    -0.343 OA
HETATM   26  H   UNL     1      45.693 -18.828   6.280  1.00  0.00     0.219 HD
ENDBRANCH  10  25
TORSDOF 5
ENDMDL
MODEL 3
REMARK VINA RESULT:      -7.0      2.279      3.964
REMARK  5 active torsions:
REMARK  status: ('A' for Active; 'I' for Inactive)
REMARK    1  A    between atoms: C_2  and  O_3 
REMARK    2  A    between atoms: C_4  and  C_5 
REMARK    3  A    between atoms: C_5  and  O_6 
REMARK    4  A    between atoms: C_9  and  C_10 
REMARK    5  A    between atoms: C_22  and  O_23 
ROOT
HETATM    1  C   UNL     1      40.475 -16.530   1.860  1.00  0.00     0.047 C 
HETATM    2  C   UNL     1      40.946 -15.297   2.650  1.00  0.00     0.073 C 
HETATM    3  C   UNL     1      42.488 -15.341   2.911  1.00  0.00     0.133 C 
HETATM    4  C   UNL     1      42.994 -16.258   4.067  1.00  0.00     0.074 C 
HETATM    5  C   UNL     1      41.958 -16.458   5.117  1.00  0.00     0.030 A 
HETATM    6  C   UNL     1      40.674 -15.965   5.038  1.00  0.00     0.042 A 
HETATM    7  N   UNL     1      40.042 -16.312   6.199  1.00  0.00    -0.279 N 
HETATM    8  H   UNL     1      39.091 -16.107   6.490  1.00  0.00     0.189 HD
HETATM    9  N   UNL     1      40.845 -16.990   7.048  1.00  0.00    -0.149 NA
HETATM   10  C   UNL     1      41.992 -17.044   6.383  1.00  0.00     0.190 A 
HETATM   11  C   UNL     1      40.098 -15.149   3.944  1.00  0.00     0.097 C 
ENDROOT
BRANCH   4  12
HETATM   12  C   UNL     1      43.485 -17.618   3.578  1.00  0.00    -0.047 A 
HETATM   13  C   UNL     1      43.882 -18.673   4.417  1.00  0.00     0.027 A 
HETATM   14  C   UNL     1      44.296 -19.896   3.881  1.00  0.00     0.011 A 
HETATM   15 BR   UNL     1      44.815 -21.296   5.041  1.00  0.00    -0.051 Br
HETATM   16  C   UNL     1      44.328 -20.094   2.505  1.00  0.00     0.019 A 
HETATM   17  C   UNL     1      43.942 -19.062   1.656  1.00  0.00     0.002 A 
HETATM   18  C   UNL     1      43.519 -17.840   2.187  1.00  0.00     0.008 A 
ENDBRANCH   4  12
BRANCH   3  19
HETATM   19  C   UNL     1      43.023 -13.937   3.121  1.00  0.00     0.266 C 
HETATM   20  O   UNL     1      43.065 -13.106   2.220  1.00  0.00    -0.265 OA
BRANCH  19  21
HETATM   21  O   UNL     1      43.425 -13.713   4.399  1.00  0.00    -0.326 OA
HETATM   22  C   UNL     1      42.611 -12.788   5.121  1.00  0.00     0.213 C 
ENDBRANCH  19  21
ENDBRANCH   3  19
BRANCH   2  23
HETATM   23  O   UNL     1      40.620 -14.176   1.805  1.00  0.00    -0.389 OA
HETATM   24  H   UNL     1      39.776 -14.360   1.352  1.00  0.00     0.210 HD
ENDBRANCH   2  23
BRANCH  10  25
HETATM   25  O   UNL     1      42.993 -17.637   7.023  1.00  0.00    -0.343 OA
HETATM   26  H   UNL     1      42.623 -17.876   7.889  1.00  0.00     0.219 HD
ENDBRANCH  10  25
TORSDOF 5
ENDMDL
MODEL 4
REMARK VINA RESULT:      -6.9      2.432      3.641
REMARK  5 active torsions:
REMARK  status: ('A' for Active; 'I' for Inactive)
REMARK    1  A    between atoms: C_2  and  O_3 
REMARK    2  A    between atoms: C_4  and  C_5 
REMARK    3  A    between atoms: C_5  and  O_6 
REMARK    4  A    between atoms: C_9  and  C_10 
REMARK    5  A    between atoms: C_22  and  O_23 
ROOT
HETATM    1  C   UNL     1      43.852 -13.966   3.662  1.00  0.00     0.047 C 
HETATM    2  C   UNL     1      42.405 -13.539   3.364  1.00  0.00     0.073 C 
HETATM    3  C   UNL     1      41.375 -14.508   4.033  1.00  0.00     0.133 C 
HETATM    4  C   UNL     1      41.105 -15.871   3.325  1.00  0.00     0.074 C 
HETATM    5  C   UNL     1      41.363 -15.801   1.860  1.00  0.00     0.030 A 
HETATM    6  C   UNL     1      41.864 -14.690   1.217  1.00  0.00     0.042 A 
HETATM    7  N   UNL     1      41.917 -14.991  -0.115  1.00  0.00    -0.279 N 
HETATM    8  H   UNL     1      42.225 -14.406  -0.886  1.00  0.00     0.189 HD
HETATM    9  N   UNL     1      41.461 -16.233  -0.387  1.00  0.00    -0.149 NA
HETATM   10  C   UNL     1      41.116 -16.687   0.811  1.00  0.00     0.190 A 
HETATM   11  C   UNL     1      42.211 -13.386   1.829  1.00  0.00     0.097 C 
ENDROOT
BRANCH   4  12
HETATM   12  C   UNL     1      41.908 -17.024   3.923  1.00  0.00    -0.047 A 
HETATM   13  C   UNL     1      42.674 -17.935   3.177  1.00  0.00     0.027 A 
HETATM   14  C   UNL     1      43.398 -18.948   3.812  1.00  0.00     0.011 A 
HETATM   15 BR   UNL     1      44.425 -20.152   2.776  1.00  0.00    -0.051 Br
HETATM   16  C   UNL     1      43.373 -19.078   5.196  1.00  0.00     0.019 A 
HETATM   17  C   UNL     1      42.620 -18.187   5.954  1.00  0.00     0.002 A 
HETATM   18  C   UNL     1      41.901 -17.168   5.325  1.00  0.00     0.008 A 
ENDBRANCH   4  12
BRANCH   3  19
HETATM   19  C   UNL     1      40.055 -13.794   4.255  1.00  0.00     0.266 C 
HETATM   20  O   UNL     1      39.339 -13.427   3.328  1.00  0.00    -0.265 OA
BRANCH  19  21
HETATM   21  O   UNL     1      39.762 -13.627   5.571  1.00  0.00    -0.326 OA
HETATM   22  C   UNL     1      39.183 -12.361   5.892  1.00  0.00     0.213 C 
ENDBRANCH  19  21
ENDBRANCH   3  19
BRANCH   2  23
HETATM   23  O   UNL     1      42.288 -12.222   3.935  1.00  0.00    -0.389 OA
HETATM   24  H   UNL     1      41.521 -12.208   4.536  1.00  0.00     0.210 HD
ENDBRANCH   2  23
BRANCH  10  25
HETATM   25  O   UNL     1      40.584 -17.903   0.827  1.00  0.00    -0.343 OA
HETATM   26  H   UNL     1      40.658 -18.215  -0.090  1.00  0.00     0.219 HD
ENDBRANCH  10  25
TORSDOF 5
ENDMDL
MODEL 5
REMARK VINA RESULT:      -6.9      2.863      5.467
REMARK  5 active torsions:
REMARK  status: ('A' for Active; 'I' for Inactive)
REMARK    1  A    between atoms: C_2  and  O_3 
REMARK    2  A    between atoms: C_4  and  C_5 
REMARK    3  A    between atoms: C_5  and  O_6 
REMARK    4  A    between atoms: C_9  and  C_10 
REMARK    5  A    between atoms: C_22  and  O_23 
ROOT
HETATM    1  C   UNL     1      39.317 -16.005   2.006  1.00  0.00     0.047 C 
HETATM    2  C   UNL     1      39.825 -14.823   1.164  1.00  0.00     0.073 C 
HETATM    3  C   UNL     1      41.228 -15.128   0.540  1.00  0.00     0.133 C 
HETATM    4  C   UNL     1      42.473 -14.987   1.468  1.00  0.00     0.074 C 
HETATM    5  C   UNL     1      42.240 -14.020   2.575  1.00  0.00     0.030 A 
HETATM    6  C   UNL     1      41.037 -13.387   2.807  1.00  0.00     0.042 A 
HETATM    7  N   UNL     1      41.226 -12.550   3.870  1.00  0.00    -0.279 N 
HETATM    8  H   UNL     1      40.559 -11.922   4.309  1.00  0.00     0.189 HD
HETATM    9  N   UNL     1      42.492 -12.581   4.340  1.00  0.00    -0.149 NA
HETATM   10  C   UNL     1      43.082 -13.453   3.533  1.00  0.00     0.190 A 
HETATM   11  C   UNL     1      39.792 -13.522   2.015  1.00  0.00     0.097 C 
ENDROOT
BRANCH   4  12
HETATM   12  C   UNL     1      42.936 -16.319   2.053  1.00  0.00    -0.047 A 
HETATM   13  C   UNL     1      42.743 -16.716   3.387  1.00  0.00     0.027 A 
HETATM   14  C   UNL     1      43.180 -17.967   3.830  1.00  0.00     0.011 A 
HETATM   15 BR   UNL     1      42.897 -18.471   5.631  1.00  0.00    -0.051 Br
HETATM   16  C   UNL     1      43.819 -18.846   2.962  1.00  0.00     0.019 A 
HETATM   17  C   UNL     1      44.021 -18.472   1.637  1.00  0.00     0.002 A 
HETATM   18  C   UNL     1      43.579 -17.225   1.186  1.00  0.00     0.008 A 
ENDBRANCH   4  12
BRANCH   3  19
HETATM   19  C   UNL     1      41.439 -14.287  -0.705  1.00  0.00     0.266 C 
HETATM   20  O   UNL     1      42.016 -13.205  -0.681  1.00  0.00    -0.265 OA
BRANCH  19  21
HETATM   21  O   UNL     1      40.937 -14.871  -1.824  1.00  0.00    -0.326 OA
HETATM   22  C   UNL     1      41.422 -14.316  -3.048  1.00  0.00     0.213 C 
ENDBRANCH  19  21
ENDBRANCH   3  19
BRANCH   2  23
HETATM   23  O   UNL     1      38.844 -14.667   0.122  1.00  0.00    -0.389 OA
HETATM   24  H   UNL     1      38.389 -13.813   0.245  1.00  0.00     0.210 HD
ENDBRANCH   2  23
BRANCH  10  25
HETATM   25  O   UNL     1      44.377 -13.646   3.752  1.00  0.00    -0.343 OA
HETATM   26  H   UNL     1      44.609 -12.993   4.433  1.00  0.00     0.219 HD
ENDBRANCH  10  25
TORSDOF 5
ENDMDL
MODEL 6
REMARK VINA RESULT:      -6.4      2.753      5.149
REMARK  5 active torsions:
REMARK  status: ('A' for Active; 'I' for Inactive)
REMARK    1  A    between atoms: C_2  and  O_3 
REMARK    2  A    between atoms: C_4  and  C_5 
REMARK    3  A    between atoms: C_5  and  O_6 
REMARK    4  A    between atoms: C_9  and  C_10 
REMARK    5  A    between atoms: C_22  and  O_23 
ROOT
HETATM    1  C   UNL     1      39.614 -15.799   2.211  1.00  0.00     0.047 C 
HETATM    2  C   UNL     1      40.174 -14.420   1.822  1.00  0.00     0.073 C 
HETATM    3  C   UNL     1      41.666 -14.519   1.361  1.00  0.00     0.133 C 
HETATM    4  C   UNL     1      42.754 -14.633   2.472  1.00  0.00     0.074 C 
HETATM    5  C   UNL     1      42.310 -14.022   3.755  1.00  0.00     0.030 A 
HETATM    6  C   UNL     1      41.054 -13.495   3.965  1.00  0.00     0.042 A 
HETATM    7  N   UNL     1      41.041 -12.992   5.236  1.00  0.00    -0.279 N 
HETATM    8  H   UNL     1      40.284 -12.522   5.724  1.00  0.00     0.189 HD
HETATM    9  N   UNL     1      42.225 -13.140   5.868  1.00  0.00    -0.149 NA
HETATM   10  C   UNL     1      42.973 -13.740   4.951  1.00  0.00     0.190 A 
HETATM   11  C   UNL     1      39.946 -13.415   2.985  1.00  0.00     0.097 C 
ENDROOT
BRANCH   4  12
HETATM   12  C   UNL     1      43.200 -16.070   2.727  1.00  0.00    -0.047 A 
HETATM   13  C   UNL     1      43.110 -16.727   3.966  1.00  0.00     0.027 A 
HETATM   14  C   UNL     1      43.521 -18.055   4.102  1.00  0.00     0.011 A 
HETATM   15 BR   UNL     1      43.379 -18.910   5.783  1.00  0.00    -0.051 Br
HETATM   16  C   UNL     1      44.033 -18.756   3.015  1.00  0.00     0.019 A 
HETATM   17  C   UNL     1      44.132 -18.125   1.780  1.00  0.00     0.002 A 
HETATM   18  C   UNL     1      43.714 -16.798   1.636  1.00  0.00     0.008 A 
ENDBRANCH   4  12
BRANCH   3  19
HETATM   19  C   UNL     1      42.009 -13.358   0.447  1.00  0.00     0.266 C 
HETATM   20  O   UNL     1      42.474 -12.303   0.867  1.00  0.00    -0.265 OA
BRANCH  19  21
HETATM   21  O   UNL     1      41.757 -13.625  -0.860  1.00  0.00    -0.326 OA
HETATM   22  C   UNL     1      41.523 -12.469  -1.666  1.00  0.00     0.213 C 
ENDBRANCH  19  21
ENDBRANCH   3  19
BRANCH   2  23
HETATM   23  O   UNL     1      39.346 -13.987   0.725  1.00  0.00    -0.389 OA
HETATM   24  H   UNL     1      38.875 -14.760   0.363  1.00  0.00     0.210 HD
ENDBRANCH   2  23
BRANCH  10  25
HETATM   25  O   UNL     1      44.231 -13.972   5.305  1.00  0.00    -0.343 OA
HETATM   26  H   UNL     1      44.752 -13.751   4.516  1.00  0.00     0.219 HD
ENDBRANCH  10  25
TORSDOF 5
ENDMDL
MODEL 7
REMARK VINA RESULT:      -6.3      2.704      4.849
REMARK  5 active torsions:
REMARK  status: ('A' for Active; 'I' for Inactive)
REMARK    1  A    between atoms: C_2  and  O_3 
REMARK    2  A    between atoms: C_4  and  C_5 
REMARK    3  A    between atoms: C_5  and  O_6 
REMARK    4  A    between atoms: C_9  and  C_10 
REMARK    5  A    between atoms: C_22  and  O_23 
ROOT
HETATM    1  C   UNL     1      40.010 -15.342   5.433  1.00  0.00     0.047 C 
HETATM    2  C   UNL     1      40.791 -14.378   4.524  1.00  0.00     0.073 C 
HETATM    3  C   UNL     1      42.078 -15.056   3.946  1.00  0.00     0.133 C 
HETATM    4  C   UNL     1      43.319 -15.158   4.884  1.00  0.00     0.074 C 
HETATM    5  C   UNL     1      43.327 -14.088   5.920  1.00  0.00     0.030 A 
HETATM    6  C   UNL     1      42.314 -13.169   6.088  1.00  0.00     0.042 A 
HETATM    7  N   UNL     1      42.699 -12.331   7.096  1.00  0.00    -0.279 N 
HETATM    8  H   UNL     1      42.205 -11.532   7.481  1.00  0.00     0.189 HD
HETATM    9  N   UNL     1      43.919 -12.636   7.590  1.00  0.00    -0.149 NA
HETATM   10  C   UNL     1      44.281 -13.678   6.852  1.00  0.00     0.190 A 
HETATM   11  C   UNL     1      41.073 -13.053   5.286  1.00  0.00     0.097 C 
ENDROOT
BRANCH   4  12
HETATM   12  C   UNL     1      43.444 -16.518   5.564  1.00  0.00    -0.047 A 
HETATM   13  C   UNL     1      43.968 -17.671   4.955  1.00  0.00     0.027 A 
HETATM   14  C   UNL     1      44.066 -18.872   5.664  1.00  0.00     0.011 A 
HETATM   15 BR   UNL     1      44.784 -20.402   4.815  1.00  0.00    -0.051 Br
HETATM   16  C   UNL     1      43.644 -18.952   6.987  1.00  0.00     0.019 A 
HETATM   17  C   UNL     1      43.121 -17.823   7.608  1.00  0.00     0.002 A 
HETATM   18  C   UNL     1      43.028 -16.618   6.906  1.00  0.00     0.008 A 
ENDBRANCH   4  12
BRANCH   3  19
HETATM   19  C   UNL     1      42.487 -14.379   2.651  1.00  0.00     0.266 C 
HETATM   20  O   UNL     1      43.220 -13.396   2.624  1.00  0.00    -0.265 OA
BRANCH  19  21
HETATM   21  O   UNL     1      41.969 -14.988   1.553  1.00  0.00    -0.326 OA
HETATM   22  C   UNL     1      42.179 -16.400   1.505  1.00  0.00     0.213 C 
ENDBRANCH  19  21
ENDBRANCH   3  19
BRANCH   2  23
HETATM   23  O   UNL     1      39.877 -14.062   3.457  1.00  0.00    -0.389 OA
HETATM   24  H   UNL     1      39.002 -13.869   3.840  1.00  0.00     0.210 HD
ENDBRANCH   2  23
BRANCH  10  25
HETATM   25  O   UNL     1      45.490 -14.163   7.107  1.00  0.00    -0.343 OA
HETATM   26  H   UNL     1      45.533 -14.990   6.598  1.00  0.00     0.219 HD
ENDBRANCH  10  25
TORSDOF 5
ENDMDL
MODEL 8
REMARK VINA RESULT:      -6.1      7.225      9.255
REMARK  5 active torsions:
REMARK  status: ('A' for Active; 'I' for Inactive)
REMARK    1  A    between atoms: C_2  and  O_3 
REMARK    2  A    between atoms: C_4  and  C_5 
REMARK    3  A    between atoms: C_5  and  O_6 
REMARK    4  A    between atoms: C_9  and  C_10 
REMARK    5  A    between atoms: C_22  and  O_23 
ROOT
HETATM    1  C   UNL     1      40.567 -11.560   7.717  1.00  0.00     0.047 C 
HETATM    2  C   UNL     1      40.160 -10.315   8.523  1.00  0.00     0.073 C 
HETATM    3  C   UNL     1      41.410  -9.463   8.925  1.00  0.00     0.133 C 
HETATM    4  C   UNL     1      42.256  -9.956  10.138  1.00  0.00     0.074 C 
HETATM    5  C   UNL     1      41.447 -10.763  11.093  1.00  0.00     0.030 A 
HETATM    6  C   UNL     1      40.128 -11.108  10.889  1.00  0.00     0.042 A 
HETATM    7  N   UNL     1      39.722 -11.802  11.993  1.00  0.00    -0.279 N 
HETATM    8  H   UNL     1      38.810 -12.201  12.192  1.00  0.00     0.189 HD
HETATM    9  N   UNL     1      40.695 -11.917  12.924  1.00  0.00    -0.149 NA
HETATM   10  C   UNL     1      41.709 -11.267  12.368  1.00  0.00     0.190 A 
HETATM   11  C   UNL     1      39.279 -10.739   9.731  1.00  0.00     0.097 C 
ENDROOT
BRANCH   4  12
HETATM   12  C   UNL     1      43.488 -10.755   9.721  1.00  0.00    -0.047 A 
HETATM   13  C   UNL     1      43.482 -11.800   8.782  1.00  0.00     0.027 A 
HETATM   14  C   UNL     1      44.665 -12.463   8.443  1.00  0.00     0.011 A 
HETATM   15 BR   UNL     1      44.621 -13.859   7.169  1.00  0.00    -0.051 Br
HETATM   16  C   UNL     1      45.873 -12.106   9.032  1.00  0.00     0.019 A 
HETATM   17  C   UNL     1      45.901 -11.075   9.966  1.00  0.00     0.002 A 
HETATM   18  C   UNL     1      44.722 -10.403  10.302  1.00  0.00     0.008 A 
ENDBRANCH   4  12
BRANCH   3  19
HETATM   19  C   UNL     1      41.004  -8.019   9.157  1.00  0.00     0.266 C 
HETATM   20  O   UNL     1      40.658  -7.276   8.243  1.00  0.00    -0.265 OA
BRANCH  19  21
HETATM   21  O   UNL     1      41.056  -7.662  10.466  1.00  0.00    -0.326 OA
HETATM   22  C   UNL     1      39.792  -7.318  11.035  1.00  0.00     0.213 C 
ENDBRANCH  19  21
ENDBRANCH   3  19
BRANCH   2  23
HETATM   23  O   UNL     1      39.315  -9.563   7.631  1.00  0.00    -0.389 OA
HETATM   24  H   UNL     1      38.545  -9.235   8.132  1.00  0.00     0.210 HD
ENDBRANCH   2  23
BRANCH  10  25
HETATM   25  O   UNL     1      42.809 -11.189  13.107  1.00  0.00    -0.343 OA
HETATM   26  H   UNL     1      42.516 -10.781  13.939  1.00  0.00     0.219 HD
ENDBRANCH  10  25
TORSDOF 5
ENDMDL
MODEL 9
REMARK VINA RESULT:      -6.1      6.022      7.828
REMARK  5 active torsions:
REMARK  status: ('A' for Active; 'I' for Inactive)
REMARK    1  A    between atoms: C_2  and  O_3 
REMARK    2  A    between atoms: C_4  and  C_5 
REMARK    3  A    between atoms: C_5  and  O_6 
REMARK    4  A    between atoms: C_9  and  C_10 
REMARK    5  A    between atoms: C_22  and  O_23 
ROOT
HETATM    1  C   UNL     1      38.247 -11.517  -1.025  1.00  0.00     0.047 C 
HETATM    2  C   UNL     1      38.486 -12.854  -0.304  1.00  0.00     0.073 C 
HETATM    3  C   UNL     1      39.979 -13.003   0.141  1.00  0.00     0.133 C 
HETATM    4  C   UNL     1      41.016 -13.419  -0.946  1.00  0.00     0.074 C 
HETATM    5  C   UNL     1      40.388 -14.197  -2.050  1.00  0.00     0.030 A 
HETATM    6  C   UNL     1      39.035 -14.447  -2.145  1.00  0.00     0.042 A 
HETATM    7  N   UNL     1      38.851 -15.222  -3.256  1.00  0.00    -0.279 N 
HETATM    8  H   UNL     1      37.986 -15.602  -3.627  1.00  0.00     0.189 HD
HETATM    9  N   UNL     1      40.010 -15.512  -3.887  1.00  0.00    -0.149 NA
HETATM   10  C   UNL     1      40.915 -14.904  -3.131  1.00  0.00     0.190 A 
HETATM   11  C   UNL     1      37.982 -14.026  -1.193  1.00  0.00     0.097 C 
ENDROOT
BRANCH   4  12
HETATM   12  C   UNL     1      41.772 -12.231  -1.535  1.00  0.00    -0.047 A 
HETATM   13  C   UNL     1      41.630 -11.768  -2.855  1.00  0.00     0.027 A 
HETATM   14  C   UNL     1      42.348 -10.655  -3.302  1.00  0.00     0.011 A 
HETATM   15 BR   UNL     1      42.126 -10.055  -5.082  1.00  0.00    -0.051 Br
HETATM   16  C   UNL     1      43.221  -9.984  -2.453  1.00  0.00     0.019 A 
HETATM   17  C   UNL     1      43.378 -10.427  -1.144  1.00  0.00     0.002 A 
HETATM   18  C   UNL     1      42.656 -11.534  -0.688  1.00  0.00     0.008 A 
ENDBRANCH   4  12
BRANCH   3  19
HETATM   19  C   UNL     1      40.081 -13.959   1.315  1.00  0.00     0.266 C 
HETATM   20  O   UNL     1      40.238 -15.167   1.170  1.00  0.00    -0.265 OA
BRANCH  19  21
HETATM   21  O   UNL     1      39.993 -13.330   2.515  1.00  0.00    -0.326 OA
HETATM   22  C   UNL     1      40.786 -12.146   2.621  1.00  0.00     0.213 C 
ENDBRANCH  19  21
ENDBRANCH   3  19
BRANCH   2  23
HETATM   23  O   UNL     1      37.628 -12.805   0.851  1.00  0.00    -0.389 OA
HETATM   24  H   UNL     1      37.938 -12.094   1.442  1.00  0.00     0.210 HD
ENDBRANCH   2  23
BRANCH  10  25
HETATM   25  O   UNL     1      42.176 -15.067  -3.511  1.00  0.00    -0.343 OA
HETATM   26  H   UNL     1      42.653 -15.279  -2.692  1.00  0.00     0.219 HD
ENDBRANCH  10  25
TORSDOF 5
ENDMDL
MODEL 10
REMARK VINA RESULT:      -6.0      4.915      6.724
REMARK  5 active torsions:
REMARK  status: ('A' for Active; 'I' for Inactive)
REMARK    1  A    between atoms: C_2  and  O_3 
REMARK    2  A    between atoms: C_4  and  C_5 
REMARK    3  A    between atoms: C_5  and  O_6 
REMARK    4  A    between atoms: C_9  and  C_10 
REMARK    5  A    between atoms: C_22  and  O_23 
ROOT
HETATM    1  C   UNL     1      42.276 -11.944   0.439  1.00  0.00     0.047 C 
HETATM    2  C   UNL     1      41.001 -11.680  -0.381  1.00  0.00     0.073 C 
HETATM    3  C   UNL     1      39.828 -12.612   0.072  1.00  0.00     0.133 C 
HETATM    4  C   UNL     1      39.839 -14.083  -0.443  1.00  0.00     0.074 C 
HETATM    5  C   UNL     1      40.568 -14.218  -1.735  1.00  0.00     0.030 A 
HETATM    6  C   UNL     1      41.230 -13.183  -2.359  1.00  0.00     0.042 A 
HETATM    7  N   UNL     1      41.730 -13.680  -3.530  1.00  0.00    -0.279 N 
HETATM    8  H   UNL     1      42.264 -13.198  -4.247  1.00  0.00     0.189 HD
HETATM    9  N   UNL     1      41.418 -14.980  -3.721  1.00  0.00    -0.149 NA
HETATM   10  C   UNL     1      40.703 -15.270  -2.642  1.00  0.00     0.190 A 
HETATM   11  C   UNL     1      41.325 -11.778  -1.898  1.00  0.00     0.097 C 
ENDROOT
BRANCH   4  12
HETATM   12  C   UNL     1      40.422 -15.066   0.569  1.00  0.00    -0.047 A 
HETATM   13  C   UNL     1      41.679 -15.682   0.451  1.00  0.00     0.027 A 
HETATM   14  C   UNL     1      42.144 -16.553   1.440  1.00  0.00     0.011 A 
HETATM   15 BR   UNL     1      43.844 -17.360   1.253  1.00  0.00    -0.051 Br
HETATM   16  C   UNL     1      41.370 -16.832   2.562  1.00  0.00     0.019 A 
HETATM   17  C   UNL     1      40.121 -16.234   2.698  1.00  0.00     0.002 A 
HETATM   18  C   UNL     1      39.656 -15.355   1.715  1.00  0.00     0.008 A 
ENDBRANCH   4  12
BRANCH   3  19
HETATM   19  C   UNL     1      38.494 -11.975  -0.271  1.00  0.00     0.266 C 
HETATM   20  O   UNL     1      37.934 -12.157  -1.347  1.00  0.00    -0.265 OA
BRANCH  19  21
HETATM   21  O   UNL     1      38.002 -11.210   0.737  1.00  0.00    -0.326 OA
HETATM   22  C   UNL     1      38.133 -11.789   2.037  1.00  0.00     0.213 C 
ENDBRANCH  19  21
ENDBRANCH   3  19
BRANCH   2  23
HETATM   23  O   UNL     1      40.672 -10.304  -0.111  1.00  0.00    -0.389 OA
HETATM   24  H   UNL     1      39.753 -10.259   0.211  1.00  0.00     0.210 HD
ENDBRANCH   2  23
BRANCH  10  25
HETATM   25  O   UNL     1      40.223 -16.507  -2.593  1.00  0.00    -0.343 OA
HETATM   26  H   UNL     1      39.258 -16.394  -2.588  1.00  0.00     0.219 HD
ENDBRANCH  10  25
TORSDOF 5
ENDMDL
