MODEL 1
REMARK VINA RESULT:      -9.2      0.000      0.000
REMARK  6 active torsions:
REMARK  status: ('A' for Active; 'I' for Inactive)
REMARK    1  A    between atoms: C_2  and  C_3 
REMARK    2  A    between atoms: C_3  and  C_4 
REMARK    3  A    between atoms: C_4  and  C_5 
REMARK    4  A    between atoms: C_8  and  N_9 
REMARK       I    between atoms: N_9  and  C_10 
REMARK    5  A    between atoms: C_10  and  C_11 
REMARK    6  A    between atoms: N_16  and  C_17 
ROOT
HETATM    1  C   UNL     1      43.789 -12.685   8.124  1.00  0.00     0.098 A 
HETATM    2  C   UNL     1      42.736 -11.711   7.667  1.00  0.00     0.205 A 
HETATM    3  O   UNL     1      42.277 -11.730   6.529  1.00  0.00    -0.286 OA
HETATM    4  C   UNL     1      42.315 -10.769   8.685  1.00  0.00     0.087 A 
HETATM    5  C   UNL     1      42.788 -10.840   9.973  1.00  0.00     0.145 A 
HETATM    6  N   UNL     1      42.149  -9.854  10.706  1.00  0.00    -0.216 N 
HETATM    7  N   UNL     1      41.428  -9.043   9.871  1.00  0.00    -0.170 NA
HETATM    8  C   UNL     1      41.479  -9.637   8.669  1.00  0.00     0.069 C 
HETATM    9  C   UNL     1      40.744  -9.063   7.515  1.00  0.00     0.073 C 
HETATM   10  N   UNL     1      43.736 -11.729  10.353  1.00  0.00    -0.349 N 
HETATM   11  C   UNL     1      44.218 -12.613   9.404  1.00  0.00     0.111 A 
HETATM   12  H   UNL     1      44.266 -11.656  11.221  1.00  0.00     0.167 HD
ENDROOT
BRANCH   1  13
HETATM   13  C   UNL     1      44.377 -13.746   7.251  1.00  0.00     0.261 C 
HETATM   14  N   UNL     1      43.526 -14.793   6.967  1.00  0.00    -0.323 N 
HETATM   15  H   UNL     1      42.572 -14.724   7.322  1.00  0.00     0.169 HD
HETATM   16  O   UNL     1      45.546 -13.649   6.884  1.00  0.00    -0.267 OA
BRANCH  14  17
HETATM   17  C   UNL     1      43.838 -16.000   6.304  1.00  0.00     0.035 A 
HETATM   18  C   UNL     1      44.666 -16.990   6.832  1.00  0.00     0.030 A 
HETATM   19  C   UNL     1      44.876 -18.186   6.138  1.00  0.00     0.009 A 
HETATM   20  C   UNL     1      44.254 -18.418   4.906  1.00  0.00    -0.058 A 
HETATM   21  C   UNL     1      43.445 -17.415   4.364  1.00  0.00     0.009 A 
HETATM   22  C   UNL     1      43.246 -16.214   5.054  1.00  0.00     0.030 A 
BRANCH  20  23
HETATM   23  C   UNL     1      44.430 -19.740   4.200  1.00  0.00     0.038 C 
BRANCH  23  24
HETATM   24  C   UNL     1      44.516 -19.557   2.682  1.00  0.00     0.004 C 
BRANCH  24  25
HETATM   25  C   UNL     1      43.427 -20.348   1.957  1.00  0.00    -0.004 C 
HETATM   26  C   UNL     1      43.860 -21.785   1.709  1.00  0.00     0.005 C 
ENDBRANCH  24  25
ENDBRANCH  23  24
ENDBRANCH  20  23
ENDBRANCH  14  17
ENDBRANCH   1  13
BRANCH   6  27
HETATM   27  C   UNL     1      42.126  -9.632  12.113  1.00  0.00     0.060 A 
HETATM   28  C   UNL     1      40.922  -9.493  12.815  1.00  0.00     0.032 A 
HETATM   29  C   UNL     1      40.932  -9.258  14.193  1.00  0.00     0.009 A 
HETATM   30  C   UNL     1      42.140  -9.158  14.890  1.00  0.00    -0.062 A 
HETATM   31  C   UNL     1      42.158  -8.878  16.364  1.00  0.00     0.048 C 
HETATM   32  C   UNL     1      43.343  -9.267  14.184  1.00  0.00     0.009 A 
HETATM   33  C   UNL     1      43.338  -9.496  12.804  1.00  0.00     0.032 A 
ENDBRANCH   6  27
TORSDOF 6
ENDMDL
MODEL 2
REMARK VINA RESULT:      -8.8      1.690      2.401
REMARK  6 active torsions:
REMARK  status: ('A' for Active; 'I' for Inactive)
REMARK    1  A    between atoms: C_2  and  C_3 
REMARK    2  A    between atoms: C_3  and  C_4 
REMARK    3  A    between atoms: C_4  and  C_5 
REMARK    4  A    between atoms: C_8  and  N_9 
REMARK       I    between atoms: N_9  and  C_10 
REMARK    5  A    between atoms: C_10  and  C_11 
REMARK    6  A    between atoms: N_16  and  C_17 
ROOT
HETATM    1  C   UNL     1      42.887 -12.993   5.833  1.00  0.00     0.098 A 
HETATM    2  C   UNL     1      41.793 -11.977   5.643  1.00  0.00     0.205 A 
HETATM    3  O   UNL     1      41.126 -11.918   4.613  1.00  0.00    -0.286 OA
HETATM    4  C   UNL     1      41.597 -11.094   6.775  1.00  0.00     0.087 A 
HETATM    5  C   UNL     1      42.304 -11.252   7.943  1.00  0.00     0.145 A 
HETATM    6  N   UNL     1      41.841 -10.305   8.841  1.00  0.00    -0.216 N 
HETATM    7  N   UNL     1      40.997  -9.433   8.208  1.00  0.00    -0.170 NA
HETATM    8  C   UNL     1      40.804  -9.952   6.985  1.00  0.00     0.069 C 
HETATM    9  C   UNL     1      39.880  -9.295   6.028  1.00  0.00     0.073 C 
HETATM   10  N   UNL     1      43.283 -12.178   8.083  1.00  0.00    -0.349 N 
HETATM   11  C   UNL     1      43.553 -13.008   7.009  1.00  0.00     0.111 A 
HETATM   12  H   UNL     1      43.969 -12.167   8.836  1.00  0.00     0.167 HD
ENDROOT
BRANCH   1  13
HETATM   13  C   UNL     1      43.272 -14.006   4.803  1.00  0.00     0.261 C 
HETATM   14  N   UNL     1      42.698 -15.248   4.978  1.00  0.00    -0.323 N 
HETATM   15  H   UNL     1      42.032 -15.348   5.744  1.00  0.00     0.169 HD
HETATM   16  O   UNL     1      44.070 -13.700   3.920  1.00  0.00    -0.267 OA
BRANCH  14  17
HETATM   17  C   UNL     1      42.983 -16.434   4.267  1.00  0.00     0.035 A 
HETATM   18  C   UNL     1      43.811 -17.451   4.742  1.00  0.00     0.030 A 
HETATM   19  C   UNL     1      43.992 -18.624   4.003  1.00  0.00     0.009 A 
HETATM   20  C   UNL     1      43.341 -18.807   2.777  1.00  0.00    -0.058 A 
HETATM   21  C   UNL     1      42.532 -17.777   2.288  1.00  0.00     0.009 A 
HETATM   22  C   UNL     1      42.361 -16.599   3.024  1.00  0.00     0.030 A 
BRANCH  20  23
HETATM   23  C   UNL     1      43.488 -20.105   2.023  1.00  0.00     0.038 C 
BRANCH  23  24
HETATM   24  C   UNL     1      44.730 -20.879   2.475  1.00  0.00     0.004 C 
BRANCH  24  25
HETATM   25  C   UNL     1      44.386 -22.314   2.872  1.00  0.00    -0.004 C 
HETATM   26  C   UNL     1      44.661 -22.562   4.347  1.00  0.00     0.005 C 
ENDBRANCH  24  25
ENDBRANCH  23  24
ENDBRANCH  20  23
ENDBRANCH  14  17
ENDBRANCH   1  13
BRANCH   6  27
HETATM   27  C   UNL     1      42.091 -10.172  10.237  1.00  0.00     0.060 A 
HETATM   28  C   UNL     1      43.381  -9.949  10.735  1.00  0.00     0.032 A 
HETATM   29  C   UNL     1      43.596  -9.841  12.112  1.00  0.00     0.009 A 
HETATM   30  C   UNL     1      42.531  -9.954  13.011  1.00  0.00    -0.062 A 
HETATM   31  C   UNL     1      42.761  -9.867  14.491  1.00  0.00     0.048 C 
HETATM   32  C   UNL     1      41.248 -10.206  12.515  1.00  0.00     0.009 A 
HETATM   33  C   UNL     1      41.028 -10.322  11.139  1.00  0.00     0.032 A 
ENDBRANCH   6  27
TORSDOF 6
ENDMDL
MODEL 3
REMARK VINA RESULT:      -8.7      2.241     10.980
REMARK  6 active torsions:
REMARK  status: ('A' for Active; 'I' for Inactive)
REMARK    1  A    between atoms: C_2  and  C_3 
REMARK    2  A    between atoms: C_3  and  C_4 
REMARK    3  A    between atoms: C_4  and  C_5 
REMARK    4  A    between atoms: C_8  and  N_9 
REMARK       I    between atoms: N_9  and  C_10 
REMARK    5  A    between atoms: C_10  and  C_11 
REMARK    6  A    between atoms: N_16  and  C_17 
ROOT
HETATM    1  C   UNL     1      42.651 -14.004   5.426  1.00  0.00     0.098 A 
HETATM    2  C   UNL     1      42.508 -13.849   3.935  1.00  0.00     0.205 A 
HETATM    3  O   UNL     1      42.338 -12.755   3.405  1.00  0.00    -0.286 OA
HETATM    4  C   UNL     1      42.598 -15.092   3.196  1.00  0.00     0.087 A 
HETATM    5  C   UNL     1      42.880 -16.283   3.820  1.00  0.00     0.145 A 
HETATM    6  N   UNL     1      42.962 -17.258   2.840  1.00  0.00    -0.216 N 
HETATM    7  N   UNL     1      42.553 -16.748   1.638  1.00  0.00    -0.170 NA
HETATM    8  C   UNL     1      42.399 -15.431   1.845  1.00  0.00     0.069 C 
HETATM    9  C   UNL     1      42.016 -14.533   0.727  1.00  0.00     0.073 C 
HETATM   10  N   UNL     1      43.004 -16.390   5.165  1.00  0.00    -0.349 N 
HETATM   11  C   UNL     1      42.866 -15.242   5.925  1.00  0.00     0.111 A 
HETATM   12  H   UNL     1      42.981 -17.276   5.667  1.00  0.00     0.167 HD
ENDROOT
BRANCH   1  13
HETATM   13  C   UNL     1      42.592 -12.865   6.392  1.00  0.00     0.261 C 
HETATM   14  N   UNL     1      43.535 -12.914   7.397  1.00  0.00    -0.323 N 
HETATM   15  H   UNL     1      44.212 -13.676   7.360  1.00  0.00     0.169 HD
HETATM   16  O   UNL     1      41.721 -12.007   6.263  1.00  0.00    -0.267 OA
BRANCH  14  17
HETATM   17  C   UNL     1      43.631 -12.075   8.528  1.00  0.00     0.035 A 
HETATM   18  C   UNL     1      42.767 -11.011   8.787  1.00  0.00     0.030 A 
HETATM   19  C   UNL     1      42.891 -10.265   9.963  1.00  0.00     0.009 A 
HETATM   20  C   UNL     1      43.877 -10.575  10.908  1.00  0.00    -0.058 A 
HETATM   21  C   UNL     1      44.760 -11.624  10.636  1.00  0.00     0.009 A 
HETATM   22  C   UNL     1      44.641 -12.362   9.453  1.00  0.00     0.030 A 
BRANCH  20  23
HETATM   23  C   UNL     1      43.956  -9.810  12.205  1.00  0.00     0.038 C 
BRANCH  23  24
HETATM   24  C   UNL     1      42.962 -10.351  13.237  1.00  0.00     0.004 C 
BRANCH  24  25
HETATM   25  C   UNL     1      42.905  -9.468  14.483  1.00  0.00    -0.004 C 
HETATM   26  C   UNL     1      41.643  -9.731  15.290  1.00  0.00     0.005 C 
ENDBRANCH  24  25
ENDBRANCH  23  24
ENDBRANCH  20  23
ENDBRANCH  14  17
ENDBRANCH   1  13
BRANCH   6  27
HETATM   27  C   UNL     1      43.424 -18.603   2.926  1.00  0.00     0.060 A 
HETATM   28  C   UNL     1      44.210 -19.042   3.998  1.00  0.00     0.032 A 
HETATM   29  C   UNL     1      44.663 -20.364   4.045  1.00  0.00     0.009 A 
HETATM   30  C   UNL     1      44.342 -21.265   3.025  1.00  0.00    -0.062 A 
HETATM   31  C   UNL     1      44.849 -22.676   3.055  1.00  0.00     0.048 C 
HETATM   32  C   UNL     1      43.581 -20.817   1.939  1.00  0.00     0.009 A 
HETATM   33  C   UNL     1      43.131 -19.494   1.885  1.00  0.00     0.032 A 
ENDBRANCH   6  27
TORSDOF 6
ENDMDL
MODEL 4
REMARK VINA RESULT:      -8.5      7.891     11.929
REMARK  6 active torsions:
REMARK  status: ('A' for Active; 'I' for Inactive)
REMARK    1  A    between atoms: C_2  and  C_3 
REMARK    2  A    between atoms: C_3  and  C_4 
REMARK    3  A    between atoms: C_4  and  C_5 
REMARK    4  A    between atoms: C_8  and  N_9 
REMARK       I    between atoms: N_9  and  C_10 
REMARK    5  A    between atoms: C_10  and  C_11 
REMARK    6  A    between atoms: N_16  and  C_17 
ROOT
HETATM    1  C   UNL     1      41.234 -14.934  -0.509  1.00  0.00     0.098 A 
HETATM    2  C   UNL     1      41.392 -14.122   0.749  1.00  0.00     0.205 A 
HETATM    3  O   UNL     1      40.908 -13.000   0.869  1.00  0.00    -0.286 OA
HETATM    4  C   UNL     1      42.151 -14.782   1.792  1.00  0.00     0.087 A 
HETATM    5  C   UNL     1      42.598 -16.074   1.651  1.00  0.00     0.145 A 
HETATM    6  N   UNL     1      43.222 -16.431   2.835  1.00  0.00    -0.216 N 
HETATM    7  N   UNL     1      43.345 -15.336   3.647  1.00  0.00    -0.170 NA
HETATM    8  C   UNL     1      42.642 -14.365   3.043  1.00  0.00     0.069 C 
HETATM    9  C   UNL     1      42.500 -13.033   3.680  1.00  0.00     0.073 C 
HETATM   10  N   UNL     1      42.439 -16.779   0.506  1.00  0.00    -0.349 N 
HETATM   11  C   UNL     1      41.774 -16.173  -0.546  1.00  0.00     0.111 A 
HETATM   12  H   UNL     1      42.951 -17.634   0.291  1.00  0.00     0.167 HD
ENDROOT
BRANCH   1  13
HETATM   13  C   UNL     1      40.494 -14.462  -1.718  1.00  0.00     0.261 C 
HETATM   14  N   UNL     1      39.134 -14.321  -1.541  1.00  0.00    -0.323 N 
HETATM   15  H   UNL     1      38.768 -14.493  -0.604  1.00  0.00     0.169 HD
HETATM   16  O   UNL     1      41.107 -14.269  -2.766  1.00  0.00    -0.267 OA
BRANCH  14  17
HETATM   17  C   UNL     1      38.162 -14.042  -2.526  1.00  0.00     0.035 A 
HETATM   18  C   UNL     1      37.610 -15.003  -3.373  1.00  0.00     0.030 A 
HETATM   19  C   UNL     1      36.605 -14.656  -4.282  1.00  0.00     0.009 A 
HETATM   20  C   UNL     1      36.127 -13.342  -4.355  1.00  0.00    -0.058 A 
HETATM   21  C   UNL     1      36.699 -12.373  -3.525  1.00  0.00     0.009 A 
HETATM   22  C   UNL     1      37.712 -12.721  -2.625  1.00  0.00     0.030 A 
BRANCH  20  23
HETATM   23  C   UNL     1      34.995 -12.995  -5.289  1.00  0.00     0.038 C 
BRANCH  23  24
HETATM   24  C   UNL     1      34.059 -11.950  -4.670  1.00  0.00     0.004 C 
BRANCH  24  25
HETATM   25  C   UNL     1      32.837 -12.600  -4.025  1.00  0.00    -0.004 C 
HETATM   26  C   UNL     1      32.286 -11.742  -2.896  1.00  0.00     0.005 C 
ENDBRANCH  24  25
ENDBRANCH  23  24
ENDBRANCH  20  23
ENDBRANCH  14  17
ENDBRANCH   1  13
BRANCH   6  27
HETATM   27  C   UNL     1      43.672 -17.706   3.282  1.00  0.00     0.060 A 
HETATM   28  C   UNL     1      43.941 -18.746   2.383  1.00  0.00     0.032 A 
HETATM   29  C   UNL     1      44.365 -19.993   2.853  1.00  0.00     0.009 A 
HETATM   30  C   UNL     1      44.524 -20.221   4.224  1.00  0.00    -0.062 A 
HETATM   31  C   UNL     1      44.950 -21.565   4.736  1.00  0.00     0.048 C 
HETATM   32  C   UNL     1      44.225 -19.191   5.123  1.00  0.00     0.009 A 
HETATM   33  C   UNL     1      43.796 -17.944   4.657  1.00  0.00     0.032 A 
ENDBRANCH   6  27
TORSDOF 6
ENDMDL
MODEL 5
REMARK VINA RESULT:      -8.4      3.152     10.952
REMARK  6 active torsions:
REMARK  status: ('A' for Active; 'I' for Inactive)
REMARK    1  A    between atoms: C_2  and  C_3 
REMARK    2  A    between atoms: C_3  and  C_4 
REMARK    3  A    between atoms: C_4  and  C_5 
REMARK    4  A    between atoms: C_8  and  N_9 
REMARK       I    between atoms: N_9  and  C_10 
REMARK    5  A    between atoms: C_10  and  C_11 
REMARK    6  A    between atoms: N_16  and  C_17 
ROOT
HETATM    1  C   UNL     1      40.104 -13.130   5.441  1.00  0.00     0.098 A 
HETATM    2  C   UNL     1      39.622 -13.187   4.016  1.00  0.00     0.205 A 
HETATM    3  O   UNL     1      38.975 -12.277   3.507  1.00  0.00    -0.286 OA
HETATM    4  C   UNL     1      39.996 -14.396   3.309  1.00  0.00     0.087 A 
HETATM    5  C   UNL     1      40.798 -15.350   3.887  1.00  0.00     0.145 A 
HETATM    6  N   UNL     1      41.022 -16.335   2.940  1.00  0.00    -0.216 N 
HETATM    7  N   UNL     1      40.230 -16.121   1.845  1.00  0.00    -0.170 NA
HETATM    8  C   UNL     1      39.666 -14.920   2.046  1.00  0.00     0.069 C 
HETATM    9  C   UNL     1      38.777 -14.325   1.017  1.00  0.00     0.073 C 
HETATM   10  N   UNL     1      41.216 -15.269   5.173  1.00  0.00    -0.349 N 
HETATM   11  C   UNL     1      40.836 -14.164   5.914  1.00  0.00     0.111 A 
HETATM   12  H   UNL     1      41.608 -16.054   5.692  1.00  0.00     0.167 HD
ENDROOT
BRANCH   1  13
HETATM   13  C   UNL     1      39.839 -11.985   6.365  1.00  0.00     0.261 C 
HETATM   14  N   UNL     1      40.797 -11.799   7.339  1.00  0.00    -0.323 N 
HETATM   15  H   UNL     1      41.614 -12.410   7.308  1.00  0.00     0.169 HD
HETATM   16  O   UNL     1      38.810 -11.327   6.233  1.00  0.00    -0.267 OA
BRANCH  14  17
HETATM   17  C   UNL     1      40.750 -10.909   8.433  1.00  0.00     0.035 A 
HETATM   18  C   UNL     1      39.875 -11.042   9.512  1.00  0.00     0.030 A 
HETATM   19  C   UNL     1      39.933 -10.152  10.588  1.00  0.00     0.009 A 
HETATM   20  C   UNL     1      40.875  -9.116  10.612  1.00  0.00    -0.058 A 
HETATM   21  C   UNL     1      41.734  -8.967   9.519  1.00  0.00     0.009 A 
HETATM   22  C   UNL     1      41.666  -9.852   8.438  1.00  0.00     0.030 A 
BRANCH  20  23
HETATM   23  C   UNL     1      40.976  -8.206  11.810  1.00  0.00     0.038 C 
BRANCH  23  24
HETATM   24  C   UNL     1      42.435  -7.977  12.218  1.00  0.00     0.004 C 
BRANCH  24  25
HETATM   25  C   UNL     1      43.078  -9.254  12.756  1.00  0.00    -0.004 C 
HETATM   26  C   UNL     1      43.060  -9.284  14.277  1.00  0.00     0.005 C 
ENDBRANCH  24  25
ENDBRANCH  23  24
ENDBRANCH  20  23
ENDBRANCH  14  17
ENDBRANCH   1  13
BRANCH   6  27
HETATM   27  C   UNL     1      41.936 -17.428   2.958  1.00  0.00     0.060 A 
HETATM   28  C   UNL     1      42.557 -17.847   4.141  1.00  0.00     0.032 A 
HETATM   29  C   UNL     1      43.464 -18.912   4.123  1.00  0.00     0.009 A 
HETATM   30  C   UNL     1      43.766 -19.571   2.927  1.00  0.00    -0.062 A 
HETATM   31  C   UNL     1      44.759 -20.695   2.897  1.00  0.00     0.048 C 
HETATM   32  C   UNL     1      43.169 -19.131   1.741  1.00  0.00     0.009 A 
HETATM   33  C   UNL     1      42.266 -18.063   1.753  1.00  0.00     0.032 A 
ENDBRANCH   6  27
TORSDOF 6
ENDMDL
MODEL 6
REMARK VINA RESULT:      -8.3      2.681      3.857
REMARK  6 active torsions:
REMARK  status: ('A' for Active; 'I' for Inactive)
REMARK    1  A    between atoms: C_2  and  C_3 
REMARK    2  A    between atoms: C_3  and  C_4 
REMARK    3  A    between atoms: C_4  and  C_5 
REMARK    4  A    between atoms: C_8  and  N_9 
REMARK       I    between atoms: N_9  and  C_10 
REMARK    5  A    between atoms: C_10  and  C_11 
REMARK    6  A    between atoms: N_16  and  C_17 
ROOT
HETATM    1  C   UNL     1      42.138 -13.325   4.754  1.00  0.00     0.098 A 
HETATM    2  C   UNL     1      40.860 -12.692   4.272  1.00  0.00     0.205 A 
HETATM    3  O   UNL     1      40.356 -12.979   3.190  1.00  0.00    -0.286 OA
HETATM    4  C   UNL     1      40.285 -11.733   5.194  1.00  0.00     0.087 A 
HETATM    5  C   UNL     1      40.833 -11.509   6.434  1.00  0.00     0.145 A 
HETATM    6  N   UNL     1      40.021 -10.599   7.089  1.00  0.00    -0.216 N 
HETATM    7  N   UNL     1      39.083 -10.102   6.225  1.00  0.00    -0.170 NA
HETATM    8  C   UNL     1      39.206 -10.836   5.109  1.00  0.00     0.069 C 
HETATM    9  C   UNL     1      38.293 -10.615   3.960  1.00  0.00     0.073 C 
HETATM   10  N   UNL     1      41.985 -12.095   6.840  1.00  0.00    -0.349 N 
HETATM   11  C   UNL     1      42.609 -12.974   5.972  1.00  0.00     0.111 A 
HETATM   12  H   UNL     1      42.530 -11.780   7.641  1.00  0.00     0.167 HD
ENDROOT
BRANCH   1  13
HETATM   13  C   UNL     1      42.911 -14.340   3.975  1.00  0.00     0.261 C 
HETATM   14  N   UNL     1      42.365 -15.606   3.980  1.00  0.00    -0.323 N 
HETATM   15  H   UNL     1      41.471 -15.723   4.456  1.00  0.00     0.169 HD
HETATM   16  O   UNL     1      43.963 -14.011   3.430  1.00  0.00    -0.267 OA
BRANCH  14  17
HETATM   17  C   UNL     1      42.937 -16.791   3.468  1.00  0.00     0.035 A 
HETATM   18  C   UNL     1      43.413 -17.835   4.261  1.00  0.00     0.030 A 
HETATM   19  C   UNL     1      43.909 -19.004   3.675  1.00  0.00     0.009 A 
HETATM   20  C   UNL     1      43.930 -19.155   2.284  1.00  0.00    -0.058 A 
HETATM   21  C   UNL     1      43.477 -18.098   1.488  1.00  0.00     0.009 A 
HETATM   22  C   UNL     1      42.993 -16.924   2.076  1.00  0.00     0.030 A 
BRANCH  20  23
HETATM   23  C   UNL     1      44.400 -20.447   1.665  1.00  0.00     0.038 C 
BRANCH  23  24
HETATM   24  C   UNL     1      43.717 -21.658   2.309  1.00  0.00     0.004 C 
BRANCH  24  25
HETATM   25  C   UNL     1      44.730 -22.585   2.980  1.00  0.00    -0.004 C 
HETATM   26  C   UNL     1      44.633 -22.505   4.496  1.00  0.00     0.005 C 
ENDBRANCH  24  25
ENDBRANCH  23  24
ENDBRANCH  20  23
ENDBRANCH  14  17
ENDBRANCH   1  13
BRANCH   6  27
HETATM   27  C   UNL     1      40.024 -10.188   8.453  1.00  0.00     0.060 A 
HETATM   28  C   UNL     1      41.214 -10.077   9.184  1.00  0.00     0.032 A 
HETATM   29  C   UNL     1      41.183  -9.689  10.527  1.00  0.00     0.009 A 
HETATM   30  C   UNL     1      39.969  -9.408  11.161  1.00  0.00    -0.062 A 
HETATM   31  C   UNL     1      39.927  -9.019  12.609  1.00  0.00     0.048 C 
HETATM   32  C   UNL     1      38.778  -9.548  10.439  1.00  0.00     0.009 A 
HETATM   33  C   UNL     1      38.803  -9.942   9.097  1.00  0.00     0.032 A 
ENDBRANCH   6  27
TORSDOF 6
ENDMDL
MODEL 7
REMARK VINA RESULT:      -8.3      8.812     12.019
REMARK  6 active torsions:
REMARK  status: ('A' for Active; 'I' for Inactive)
REMARK    1  A    between atoms: C_2  and  C_3 
REMARK    2  A    between atoms: C_3  and  C_4 
REMARK    3  A    between atoms: C_4  and  C_5 
REMARK    4  A    between atoms: C_8  and  N_9 
REMARK       I    between atoms: N_9  and  C_10 
REMARK    5  A    between atoms: C_10  and  C_11 
REMARK    6  A    between atoms: N_16  and  C_17 
ROOT
HETATM    1  C   UNL     1      40.816 -13.806  -0.380  1.00  0.00     0.098 A 
HETATM    2  C   UNL     1      41.370 -13.153  -1.618  1.00  0.00     0.205 A 
HETATM    3  O   UNL     1      42.573 -13.114  -1.855  1.00  0.00    -0.286 OA
HETATM    4  C   UNL     1      40.362 -12.591  -2.495  1.00  0.00     0.087 A 
HETATM    5  C   UNL     1      39.020 -12.736  -2.237  1.00  0.00     0.145 A 
HETATM    6  N   UNL     1      38.329 -12.152  -3.285  1.00  0.00    -0.216 N 
HETATM    7  N   UNL     1      39.198 -11.478  -4.100  1.00  0.00    -0.170 NA
HETATM    8  C   UNL     1      40.422 -11.801  -3.657  1.00  0.00     0.069 C 
HETATM    9  C   UNL     1      41.631 -11.294  -4.352  1.00  0.00     0.073 C 
HETATM   10  N   UNL     1      38.554 -13.330  -1.112  1.00  0.00    -0.349 N 
HETATM   11  C   UNL     1      39.475 -13.831  -0.210  1.00  0.00     0.111 A 
HETATM   12  H   UNL     1      37.592 -13.249  -0.785  1.00  0.00     0.167 HD
ENDROOT
BRANCH   1  13
HETATM   13  C   UNL     1      41.662 -14.452   0.670  1.00  0.00     0.261 C 
HETATM   14  N   UNL     1      41.773 -15.822   0.557  1.00  0.00    -0.323 N 
HETATM   15  H   UNL     1      41.325 -16.257  -0.249  1.00  0.00     0.169 HD
HETATM   16  O   UNL     1      42.159 -13.761   1.557  1.00  0.00    -0.267 OA
BRANCH  14  17
HETATM   17  C   UNL     1      42.370 -16.715   1.472  1.00  0.00     0.035 A 
HETATM   18  C   UNL     1      41.792 -17.095   2.684  1.00  0.00     0.030 A 
HETATM   19  C   UNL     1      42.421 -18.034   3.507  1.00  0.00     0.009 A 
HETATM   20  C   UNL     1      43.636 -18.619   3.130  1.00  0.00    -0.058 A 
HETATM   21  C   UNL     1      44.228 -18.219   1.929  1.00  0.00     0.009 A 
HETATM   22  C   UNL     1      43.603 -17.270   1.112  1.00  0.00     0.030 A 
BRANCH  20  23
HETATM   23  C   UNL     1      44.268 -19.683   3.992  1.00  0.00     0.038 C 
BRANCH  23  24
HETATM   24  C   UNL     1      45.099 -20.661   3.154  1.00  0.00     0.004 C 
BRANCH  24  25
HETATM   25  C   UNL     1      44.310 -21.926   2.818  1.00  0.00    -0.004 C 
HETATM   26  C   UNL     1      43.865 -21.929   1.363  1.00  0.00     0.005 C 
ENDBRANCH  24  25
ENDBRANCH  23  24
ENDBRANCH  20  23
ENDBRANCH  14  17
ENDBRANCH   1  13
BRANCH   6  27
HETATM   27  C   UNL     1      36.942 -12.204  -3.606  1.00  0.00     0.060 A 
HETATM   28  C   UNL     1      36.413 -13.217  -4.415  1.00  0.00     0.032 A 
HETATM   29  C   UNL     1      35.050 -13.232  -4.728  1.00  0.00     0.009 A 
HETATM   30  C   UNL     1      34.197 -12.236  -4.241  1.00  0.00    -0.062 A 
HETATM   31  C   UNL     1      32.739 -12.230  -4.596  1.00  0.00     0.048 C 
HETATM   32  C   UNL     1      34.731 -11.208  -3.458  1.00  0.00     0.009 A 
HETATM   33  C   UNL     1      36.095 -11.186  -3.148  1.00  0.00     0.032 A 
ENDBRANCH   6  27
TORSDOF 6
ENDMDL
MODEL 8
REMARK VINA RESULT:      -8.2      7.835     12.238
REMARK  6 active torsions:
REMARK  status: ('A' for Active; 'I' for Inactive)
REMARK    1  A    between atoms: C_2  and  C_3 
REMARK    2  A    between atoms: C_3  and  C_4 
REMARK    3  A    between atoms: C_4  and  C_5 
REMARK    4  A    between atoms: C_8  and  N_9 
REMARK       I    between atoms: N_9  and  C_10 
REMARK    5  A    between atoms: C_10  and  C_11 
REMARK    6  A    between atoms: N_16  and  C_17 
ROOT
HETATM    1  C   UNL     1      40.781 -15.095   0.014  1.00  0.00     0.098 A 
HETATM    2  C   UNL     1      40.539 -14.860   1.480  1.00  0.00     0.205 A 
HETATM    3  O   UNL     1      39.792 -13.975   1.887  1.00  0.00    -0.286 OA
HETATM    4  C   UNL     1      41.253 -15.769   2.355  1.00  0.00     0.087 A 
HETATM    5  C   UNL     1      42.008 -16.804   1.857  1.00  0.00     0.145 A 
HETATM    6  N   UNL     1      42.498 -17.519   2.937  1.00  0.00    -0.216 N 
HETATM    7  N   UNL     1      42.228 -16.851   4.101  1.00  0.00    -0.170 NA
HETATM    8  C   UNL     1      41.424 -15.836   3.749  1.00  0.00     0.069 C 
HETATM    9  C   UNL     1      40.872 -14.923   4.780  1.00  0.00     0.073 C 
HETATM   10  N   UNL     1      42.206 -16.989   0.530  1.00  0.00    -0.349 N 
HETATM   11  C   UNL     1      41.596 -16.111  -0.349  1.00  0.00     0.111 A 
HETATM   12  H   UNL     1      42.931 -17.591   0.144  1.00  0.00     0.167 HD
ENDROOT
BRANCH   1  13
HETATM   13  C   UNL     1      40.155 -14.283  -1.075  1.00  0.00     0.261 C 
HETATM   14  N   UNL     1      38.793 -14.452  -1.207  1.00  0.00    -0.323 N 
HETATM   15  H   UNL     1      38.333 -15.058  -0.528  1.00  0.00     0.169 HD
HETATM   16  O   UNL     1      40.864 -13.571  -1.783  1.00  0.00    -0.267 OA
BRANCH  14  17
HETATM   17  C   UNL     1      37.959 -13.944  -2.226  1.00  0.00     0.035 A 
HETATM   18  C   UNL     1      37.537 -12.617  -2.303  1.00  0.00     0.030 A 
HETATM   19  C   UNL     1      36.760 -12.179  -3.381  1.00  0.00     0.009 A 
HETATM   20  C   UNL     1      36.398 -13.059  -4.407  1.00  0.00    -0.058 A 
HETATM   21  C   UNL     1      36.798 -14.396  -4.317  1.00  0.00     0.009 A 
HETATM   22  C   UNL     1      37.565 -14.834  -3.232  1.00  0.00     0.030 A 
BRANCH  20  23
HETATM   23  C   UNL     1      35.622 -12.560  -5.600  1.00  0.00     0.038 C 
BRANCH  23  24
HETATM   24  C   UNL     1      35.288 -13.699  -6.569  1.00  0.00     0.004 C 
BRANCH  24  25
HETATM   25  C   UNL     1      35.632 -13.331  -8.011  1.00  0.00    -0.004 C 
HETATM   26  C   UNL     1      35.965 -14.567  -8.833  1.00  0.00     0.005 C 
ENDBRANCH  24  25
ENDBRANCH  23  24
ENDBRANCH  20  23
ENDBRANCH  14  17
ENDBRANCH   1  13
BRANCH   6  27
HETATM   27  C   UNL     1      43.157 -18.781   2.973  1.00  0.00     0.060 A 
HETATM   28  C   UNL     1      43.027 -19.707   1.931  1.00  0.00     0.032 A 
HETATM   29  C   UNL     1      43.672 -20.946   2.003  1.00  0.00     0.009 A 
HETATM   30  C   UNL     1      44.453 -21.279   3.115  1.00  0.00    -0.062 A 
HETATM   31  C   UNL     1      45.124 -22.617   3.212  1.00  0.00     0.048 C 
HETATM   32  C   UNL     1      44.558 -20.365   4.169  1.00  0.00     0.009 A 
HETATM   33  C   UNL     1      43.909 -19.127   4.104  1.00  0.00     0.032 A 
ENDBRANCH   6  27
TORSDOF 6
ENDMDL
MODEL 9
REMARK VINA RESULT:      -7.6      6.867      9.787
REMARK  6 active torsions:
REMARK  status: ('A' for Active; 'I' for Inactive)
REMARK    1  A    between atoms: C_2  and  C_3 
REMARK    2  A    between atoms: C_3  and  C_4 
REMARK    3  A    between atoms: C_4  and  C_5 
REMARK    4  A    between atoms: C_8  and  N_9 
REMARK       I    between atoms: N_9  and  C_10 
REMARK    5  A    between atoms: C_10  and  C_11 
REMARK    6  A    between atoms: N_16  and  C_17 
ROOT
HETATM    1  C   UNL     1      39.674 -14.229   2.808  1.00  0.00     0.098 A 
HETATM    2  C   UNL     1      39.596 -12.833   3.365  1.00  0.00     0.205 A 
HETATM    3  O   UNL     1      40.318 -12.453   4.283  1.00  0.00    -0.286 OA
HETATM    4  C   UNL     1      38.610 -11.989   2.721  1.00  0.00     0.087 A 
HETATM    5  C   UNL     1      37.886 -12.425   1.637  1.00  0.00     0.145 A 
HETATM    6  N   UNL     1      37.089 -11.373   1.218  1.00  0.00    -0.216 N 
HETATM    7  N   UNL     1      37.153 -10.348   2.123  1.00  0.00    -0.170 NA
HETATM    8  C   UNL     1      38.118 -10.698   2.987  1.00  0.00     0.069 C 
HETATM    9  C   UNL     1      38.511  -9.783   4.086  1.00  0.00     0.073 C 
HETATM   10  N   UNL     1      37.979 -13.689   1.159  1.00  0.00    -0.349 N 
HETATM   11  C   UNL     1      38.862 -14.556   1.778  1.00  0.00     0.111 A 
HETATM   12  H   UNL     1      37.302 -14.105   0.521  1.00  0.00     0.167 HD
ENDROOT
BRANCH   1  13
HETATM   13  C   UNL     1      40.613 -15.277   3.314  1.00  0.00     0.261 C 
HETATM   14  N   UNL     1      41.474 -15.783   2.363  1.00  0.00    -0.323 N 
HETATM   15  H   UNL     1      41.434 -15.366   1.433  1.00  0.00     0.169 HD
HETATM   16  O   UNL     1      40.543 -15.638   4.486  1.00  0.00    -0.267 OA
BRANCH  14  17
HETATM   17  C   UNL     1      42.360 -16.874   2.499  1.00  0.00     0.035 A 
HETATM   18  C   UNL     1      42.638 -17.509   3.709  1.00  0.00     0.030 A 
HETATM   19  C   UNL     1      43.481 -18.624   3.749  1.00  0.00     0.009 A 
HETATM   20  C   UNL     1      44.055 -19.131   2.577  1.00  0.00    -0.058 A 
HETATM   21  C   UNL     1      43.798 -18.479   1.367  1.00  0.00     0.009 A 
HETATM   22  C   UNL     1      42.963 -17.356   1.331  1.00  0.00     0.030 A 
BRANCH  20  23
HETATM   23  C   UNL     1      44.904 -20.377   2.622  1.00  0.00     0.038 C 
BRANCH  23  24
HETATM   24  C   UNL     1      44.042 -21.643   2.649  1.00  0.00     0.004 C 
BRANCH  24  25
HETATM   25  C   UNL     1      44.654 -22.723   3.541  1.00  0.00    -0.004 C 
HETATM   26  C   UNL     1      44.805 -22.237   4.974  1.00  0.00     0.005 C 
ENDBRANCH  24  25
ENDBRANCH  23  24
ENDBRANCH  20  23
ENDBRANCH  14  17
ENDBRANCH   1  13
BRANCH   6  27
HETATM   27  C   UNL     1      36.311 -11.232   0.033  1.00  0.00     0.060 A 
HETATM   28  C   UNL     1      36.894 -11.291  -1.239  1.00  0.00     0.032 A 
HETATM   29  C   UNL     1      36.107 -11.132  -2.384  1.00  0.00     0.009 A 
HETATM   30  C   UNL     1      34.730 -10.909  -2.277  1.00  0.00    -0.062 A 
HETATM   31  C   UNL     1      33.885 -10.709  -3.500  1.00  0.00     0.048 C 
HETATM   32  C   UNL     1      34.154 -10.821  -1.005  1.00  0.00     0.009 A 
HETATM   33  C   UNL     1      34.938 -10.973   0.143  1.00  0.00     0.032 A 
ENDBRANCH   6  27
TORSDOF 6
ENDMDL
MODEL 10
REMARK VINA RESULT:      -7.6      7.735     10.973
REMARK  6 active torsions:
REMARK  status: ('A' for Active; 'I' for Inactive)
REMARK    1  A    between atoms: C_2  and  C_3 
REMARK    2  A    between atoms: C_3  and  C_4 
REMARK    3  A    between atoms: C_4  and  C_5 
REMARK    4  A    between atoms: C_8  and  N_9 
REMARK       I    between atoms: N_9  and  C_10 
REMARK    5  A    between atoms: C_10  and  C_11 
REMARK    6  A    between atoms: N_16  and  C_17 
ROOT
HETATM    1  C   UNL     1      40.538 -14.913   0.682  1.00  0.00     0.098 A 
HETATM    2  C   UNL     1      39.293 -14.069   0.733  1.00  0.00     0.205 A 
HETATM    3  O   UNL     1      38.440 -14.212   1.603  1.00  0.00    -0.286 OA
HETATM    4  C   UNL     1      39.203 -13.079  -0.323  1.00  0.00     0.087 A 
HETATM    5  C   UNL     1      40.223 -12.891  -1.224  1.00  0.00     0.145 A 
HETATM    6  N   UNL     1      39.860 -11.841  -2.050  1.00  0.00    -0.216 N 
HETATM    7  N   UNL     1      38.559 -11.487  -1.813  1.00  0.00    -0.170 NA
HETATM    8  C   UNL     1      38.192 -12.190  -0.731  1.00  0.00     0.069 C 
HETATM    9  C   UNL     1      36.842 -12.012  -0.141  1.00  0.00     0.073 C 
HETATM   10  N   UNL     1      41.332 -13.668  -1.242  1.00  0.00    -0.349 N 
HETATM   11  C   UNL     1      41.442 -14.670  -0.293  1.00  0.00     0.111 A 
HETATM   12  H   UNL     1      41.984 -13.706  -2.024  1.00  0.00     0.167 HD
ENDROOT
BRANCH   1  13
HETATM   13  C   UNL     1      40.850 -15.998   1.664  1.00  0.00     0.261 C 
HETATM   14  N   UNL     1      42.073 -15.874   2.288  1.00  0.00    -0.323 N 
HETATM   15  H   UNL     1      42.621 -15.041   2.072  1.00  0.00     0.169 HD
HETATM   16  O   UNL     1      40.050 -16.917   1.824  1.00  0.00    -0.267 OA
BRANCH  14  17
HETATM   17  C   UNL     1      42.703 -16.808   3.138  1.00  0.00     0.035 A 
HETATM   18  C   UNL     1      42.799 -16.665   4.522  1.00  0.00     0.030 A 
HETATM   19  C   UNL     1      43.386 -17.667   5.301  1.00  0.00     0.009 A 
HETATM   20  C   UNL     1      43.880 -18.837   4.711  1.00  0.00    -0.058 A 
HETATM   21  C   UNL     1      43.807 -18.969   3.321  1.00  0.00     0.009 A 
HETATM   22  C   UNL     1      43.231 -17.960   2.542  1.00  0.00     0.030 A 
BRANCH  20  23
HETATM   23  C   UNL     1      44.445 -19.942   5.568  1.00  0.00     0.038 C 
BRANCH  23  24
HETATM   24  C   UNL     1      45.352 -20.872   4.756  1.00  0.00     0.004 C 
BRANCH  24  25
HETATM   25  C   UNL     1      44.749 -22.270   4.621  1.00  0.00    -0.004 C 
HETATM   26  C   UNL     1      44.624 -22.679   3.161  1.00  0.00     0.005 C 
ENDBRANCH  24  25
ENDBRANCH  23  24
ENDBRANCH  20  23
ENDBRANCH  14  17
ENDBRANCH   1  13
BRANCH   6  27
HETATM   27  C   UNL     1      40.633 -11.121  -3.005  1.00  0.00     0.060 A 
HETATM   28  C   UNL     1      41.377 -11.778  -3.993  1.00  0.00     0.032 A 
HETATM   29  C   UNL     1      42.141 -11.045  -4.906  1.00  0.00     0.009 A 
HETATM   30  C   UNL     1      42.177  -9.648  -4.846  1.00  0.00    -0.062 A 
HETATM   31  C   UNL     1      43.017  -8.857  -5.805  1.00  0.00     0.048 C 
HETATM   32  C   UNL     1      41.458  -8.994  -3.840  1.00  0.00     0.009 A 
HETATM   33  C   UNL     1      40.697  -9.723  -2.921  1.00  0.00     0.032 A 
ENDBRANCH   6  27
TORSDOF 6
ENDMDL
