MODEL 1
REMARK VINA RESULT:      -9.7      0.000      0.000
REMARK  7 active torsions:
REMARK  status: ('A' for Active; 'I' for Inactive)
REMARK    1  A    between atoms: O_2  and  C_3 
REMARK    2  A    between atoms: C_5  and  C_6 
REMARK    3  A    between atoms: C_8  and  N_9 
REMARK    4  A    between atoms: N_12  and  C_14 
REMARK    5  A    between atoms: C_14  and  C_15 
REMARK       I    between atoms: C_15  and  N_16 
REMARK    6  A    between atoms: N_16  and  N_17 
REMARK       I    between atoms: N_17  and  C_18 
REMARK    7  A    between atoms: C_18  and  C_19 
ROOT
HETATM    1  N   UNL     1      41.225 -15.492   3.801  1.00  0.00    -0.357 N 
HETATM    2  C   UNL     1      41.179 -14.046   3.532  1.00  0.00     0.152 C 
HETATM    3  C   UNL     1      42.301 -13.310   4.303  1.00  0.00     0.255 C 
HETATM    4  N   UNL     1      42.197 -13.642   5.792  1.00  0.00    -0.060 N 
HETATM    5  H   UNL     1      41.245 -13.399   6.083  1.00  0.00     0.280 HD
HETATM    6  C   UNL     1      42.321 -15.159   6.006  1.00  0.00     0.255 C 
HETATM    7  C   UNL     1      41.180 -15.857   5.232  1.00  0.00     0.152 C 
ENDROOT
BRANCH   4   8
HETATM    8  C   UNL     1      43.122 -12.818   6.687  1.00  0.00     0.338 C 
BRANCH   8   9
HETATM    9  C   UNL     1      44.332 -13.543   7.278  1.00  0.00     0.262 C 
HETATM   10  N   UNL     1      44.681 -13.254   8.578  1.00  0.00    -0.266 N 
HETATM   11  H   UNL     1      45.401 -13.846   8.993  1.00  0.00     0.190 HD
HETATM   12  O   UNL     1      45.012 -14.328   6.618  1.00  0.00    -0.270 OA
BRANCH  10  13
HETATM   13  N   UNL     1      43.871 -12.505   9.453  1.00  0.00    -0.263 N 
HETATM   14  C   UNL     1      44.360 -12.250  10.729  1.00  0.00     0.270 C 
HETATM   15  O   UNL     1      45.301 -12.869  11.217  1.00  0.00    -0.266 OA
HETATM   16  H   UNL     1      43.284 -11.798   9.011  1.00  0.00     0.190 HD
BRANCH  14  17
HETATM   17  C   UNL     1      43.663 -11.191  11.502  1.00  0.00     0.033 A 
HETATM   18  C   UNL     1      43.046 -11.543  12.709  1.00  0.00     0.019 A 
HETATM   19  C   UNL     1      42.363 -10.576  13.453  1.00  0.00     0.025 A 
HETATM   20  C   UNL     1      42.283  -9.267  12.982  1.00  0.00     0.034 A 
HETATM   21 CL   UNL     1      41.432  -8.081  13.887  1.00  0.00    -0.084 Cl
HETATM   22  C   UNL     1      42.883  -8.914  11.772  1.00  0.00     0.025 A 
HETATM   23  C   UNL     1      43.576  -9.874  11.029  1.00  0.00     0.019 A 
ENDBRANCH  14  17
ENDBRANCH  10  13
ENDBRANCH   8   9
ENDBRANCH   4   8
BRANCH   1  24
HETATM   24  C   UNL     1      41.936 -16.335   2.985  1.00  0.00     0.169 A 
HETATM   25  N   UNL     1      42.394 -17.496   3.399  1.00  0.00    -0.223 NA
HETATM   26  C   UNL     1      43.019 -18.194   2.377  1.00  0.00     0.076 A 
HETATM   27  C   UNL     1      43.058 -17.526   1.171  1.00  0.00     0.085 A 
HETATM   28  S   UNL     1      42.289 -16.007   1.322  1.00  0.00    -0.062 SA
BRANCH  26  29
HETATM   29  C   UNL     1      43.543 -19.538   2.592  1.00  0.00    -0.004 A 
HETATM   30  C   UNL     1      44.116 -19.926   3.811  1.00  0.00     0.050 A 
HETATM   31  C   UNL     1      44.626 -21.218   3.992  1.00  0.00     0.069 A 
HETATM   32  C   UNL     1      44.564 -22.135   2.945  1.00  0.00     0.037 A 
HETATM   33  C   UNL     1      43.989 -21.765   1.727  1.00  0.00     0.004 A 
HETATM   34  C   UNL     1      43.480 -20.476   1.553  1.00  0.00     0.014 A 
BRANCH  31  35
HETATM   35  O   UNL     1      45.154 -21.449   5.233  1.00  0.00    -0.356 OA
HETATM   36  C   UNL     1      44.233 -21.587   6.310  1.00  0.00     0.210 C 
ENDBRANCH  31  35
ENDBRANCH  26  29
ENDBRANCH   1  24
TORSDOF 7
ENDMDL
MODEL 2
REMARK VINA RESULT:      -9.5      2.609      3.105
REMARK  7 active torsions:
REMARK  status: ('A' for Active; 'I' for Inactive)
REMARK    1  A    between atoms: O_2  and  C_3 
REMARK    2  A    between atoms: C_5  and  C_6 
REMARK    3  A    between atoms: C_8  and  N_9 
REMARK    4  A    between atoms: N_12  and  C_14 
REMARK    5  A    between atoms: C_14  and  C_15 
REMARK       I    between atoms: C_15  and  N_16 
REMARK    6  A    between atoms: N_16  and  N_17 
REMARK       I    between atoms: N_17  and  C_18 
REMARK    7  A    between atoms: C_18  and  C_19 
ROOT
HETATM    1  N   UNL     1      43.045 -14.123   3.497  1.00  0.00    -0.357 N 
HETATM    2  C   UNL     1      43.456 -13.819   4.877  1.00  0.00     0.152 C 
HETATM    3  C   UNL     1      42.282 -13.203   5.675  1.00  0.00     0.255 C 
HETATM    4  N   UNL     1      41.747 -11.980   4.929  1.00  0.00    -0.060 N 
HETATM    5  H   UNL     1      42.543 -11.351   4.783  1.00  0.00     0.280 HD
HETATM    6  C   UNL     1      41.272 -12.382   3.523  1.00  0.00     0.255 C 
HETATM    7  C   UNL     1      42.473 -12.981   2.756  1.00  0.00     0.152 C 
ENDROOT
BRANCH   4   8
HETATM    8  C   UNL     1      40.720 -11.163   5.714  1.00  0.00     0.338 C 
BRANCH   8   9
HETATM    9  C   UNL     1      39.530 -11.930   6.294  1.00  0.00     0.262 C 
HETATM   10  N   UNL     1      39.500 -12.131   7.656  1.00  0.00    -0.266 N 
HETATM   11  H   UNL     1      38.636 -12.521   8.033  1.00  0.00     0.190 HD
HETATM   12  O   UNL     1      38.643 -12.400   5.582  1.00  0.00    -0.270 OA
BRANCH  10  13
HETATM   13  N   UNL     1      40.373 -11.493   8.557  1.00  0.00    -0.263 N 
HETATM   14  C   UNL     1      39.814 -10.661   9.520  1.00  0.00     0.270 C 
HETATM   15  O   UNL     1      38.665 -10.237   9.448  1.00  0.00    -0.266 OA
HETATM   16  H   UNL     1      41.214 -12.017   8.800  1.00  0.00     0.190 HD
BRANCH  14  17
HETATM   17  C   UNL     1      40.696 -10.280  10.653  1.00  0.00     0.033 A 
HETATM   18  C   UNL     1      42.082 -10.282  10.449  1.00  0.00     0.019 A 
HETATM   19  C   UNL     1      42.943  -9.949  11.498  1.00  0.00     0.025 A 
HETATM   20  C   UNL     1      42.421  -9.632  12.751  1.00  0.00     0.034 A 
HETATM   21 CL   UNL     1      43.479  -9.235  14.045  1.00  0.00    -0.084 Cl
HETATM   22  C   UNL     1      41.042  -9.643  12.963  1.00  0.00     0.025 A 
HETATM   23  C   UNL     1      40.175  -9.966  11.916  1.00  0.00     0.019 A 
ENDBRANCH  14  17
ENDBRANCH  10  13
ENDBRANCH   8   9
ENDBRANCH   4   8
BRANCH   1  24
HETATM   24  C   UNL     1      42.556 -15.363   3.170  1.00  0.00     0.169 A 
HETATM   25  N   UNL     1      43.319 -16.433   3.133  1.00  0.00    -0.223 NA
HETATM   26  C   UNL     1      42.586 -17.575   2.844  1.00  0.00     0.076 A 
HETATM   27  C   UNL     1      41.242 -17.351   2.629  1.00  0.00     0.085 A 
HETATM   28  S   UNL     1      40.896 -15.686   2.803  1.00  0.00    -0.062 SA
BRANCH  26  29
HETATM   29  C   UNL     1      43.217 -18.890   2.819  1.00  0.00    -0.004 A 
HETATM   30  C   UNL     1      43.941 -19.387   3.911  1.00  0.00     0.050 A 
HETATM   31  C   UNL     1      44.551 -20.647   3.862  1.00  0.00     0.069 A 
HETATM   32  C   UNL     1      44.436 -21.421   2.709  1.00  0.00     0.037 A 
HETATM   33  C   UNL     1      43.711 -20.942   1.616  1.00  0.00     0.004 A 
HETATM   34  C   UNL     1      43.104 -19.686   1.672  1.00  0.00     0.014 A 
BRANCH  31  35
HETATM   35  O   UNL     1      45.223 -20.996   5.002  1.00  0.00    -0.356 OA
HETATM   36  C   UNL     1      45.211 -22.374   5.361  1.00  0.00     0.210 C 
ENDBRANCH  31  35
ENDBRANCH  26  29
ENDBRANCH   1  24
TORSDOF 7
ENDMDL
MODEL 3
REMARK VINA RESULT:      -9.4      5.977      9.475
REMARK  7 active torsions:
REMARK  status: ('A' for Active; 'I' for Inactive)
REMARK    1  A    between atoms: O_2  and  C_3 
REMARK    2  A    between atoms: C_5  and  C_6 
REMARK    3  A    between atoms: C_8  and  N_9 
REMARK    4  A    between atoms: N_12  and  C_14 
REMARK    5  A    between atoms: C_14  and  C_15 
REMARK       I    between atoms: C_15  and  N_16 
REMARK    6  A    between atoms: N_16  and  N_17 
REMARK       I    between atoms: N_17  and  C_18 
REMARK    7  A    between atoms: C_18  and  C_19 
ROOT
HETATM    1  N   UNL     1      42.580 -14.591   4.858  1.00  0.00    -0.357 N 
HETATM    2  C   UNL     1      41.111 -14.510   4.843  1.00  0.00     0.152 C 
HETATM    3  C   UNL     1      40.537 -15.196   3.581  1.00  0.00     0.255 C 
HETATM    4  N   UNL     1      41.179 -14.585   2.334  1.00  0.00    -0.060 N 
HETATM    5  H   UNL     1      41.019 -13.574   2.384  1.00  0.00     0.280 HD
HETATM    6  C   UNL     1      42.705 -14.765   2.382  1.00  0.00     0.255 C 
HETATM    7  C   UNL     1      43.240 -14.059   3.648  1.00  0.00     0.152 C 
ENDROOT
BRANCH   4   8
HETATM    8  C   UNL     1      40.548 -15.034   1.016  1.00  0.00     0.338 C 
BRANCH   8   9
HETATM    9  C   UNL     1      41.228 -16.197   0.291  1.00  0.00     0.262 C 
HETATM   10  N   UNL     1      41.764 -15.950  -0.954  1.00  0.00    -0.266 N 
HETATM   11  H   UNL     1      42.329 -16.699  -1.356  1.00  0.00     0.190 HD
HETATM   12  O   UNL     1      41.267 -17.332   0.764  1.00  0.00    -0.270 OA
BRANCH  10  13
HETATM   13  N   UNL     1      41.914 -14.659  -1.495  1.00  0.00    -0.263 N 
HETATM   14  C   UNL     1      41.506 -14.456  -2.808  1.00  0.00     0.270 C 
HETATM   15  O   UNL     1      41.301 -15.378  -3.591  1.00  0.00    -0.266 OA
HETATM   16  H   UNL     1      41.810 -13.891  -0.832  1.00  0.00     0.190 HD
BRANCH  14  17
HETATM   17  C   UNL     1      41.352 -13.043  -3.239  1.00  0.00     0.033 A 
HETATM   18  C   UNL     1      42.471 -12.203  -3.183  1.00  0.00     0.019 A 
HETATM   19  C   UNL     1      42.358 -10.862  -3.561  1.00  0.00     0.025 A 
HETATM   20  C   UNL     1      41.125 -10.360  -3.976  1.00  0.00     0.034 A 
HETATM   21 CL   UNL     1      40.981  -8.708  -4.427  1.00  0.00    -0.084 Cl
HETATM   22  C   UNL     1      40.004 -11.189  -4.018  1.00  0.00     0.025 A 
HETATM   23  C   UNL     1      40.113 -12.533  -3.651  1.00  0.00     0.019 A 
ENDBRANCH  14  17
ENDBRANCH  10  13
ENDBRANCH   8   9
ENDBRANCH   4   8
BRANCH   1  24
HETATM   24  C   UNL     1      43.218 -15.629   5.488  1.00  0.00     0.169 A 
HETATM   25  N   UNL     1      43.224 -16.851   5.002  1.00  0.00    -0.223 NA
HETATM   26  C   UNL     1      43.990 -17.707   5.780  1.00  0.00     0.076 A 
HETATM   27  C   UNL     1      44.549 -17.119   6.895  1.00  0.00     0.085 A 
HETATM   28  S   UNL     1      44.115 -15.466   6.959  1.00  0.00    -0.062 SA
BRANCH  26  29
HETATM   29  C   UNL     1      44.195 -19.098   5.392  1.00  0.00    -0.004 A 
HETATM   30  C   UNL     1      44.465 -19.468   4.067  1.00  0.00     0.050 A 
HETATM   31  C   UNL     1      44.645 -20.811   3.713  1.00  0.00     0.069 A 
HETATM   32  C   UNL     1      44.553 -21.798   4.693  1.00  0.00     0.037 A 
HETATM   33  C   UNL     1      44.292 -21.444   6.018  1.00  0.00     0.004 A 
HETATM   34  C   UNL     1      44.116 -20.103   6.365  1.00  0.00     0.014 A 
BRANCH  31  35
HETATM   35  O   UNL     1      44.901 -21.018   2.385  1.00  0.00    -0.356 OA
HETATM   36  C   UNL     1      43.907 -21.712   1.638  1.00  0.00     0.210 C 
ENDBRANCH  31  35
ENDBRANCH  26  29
ENDBRANCH   1  24
TORSDOF 7
ENDMDL
MODEL 4
REMARK VINA RESULT:      -9.3      2.474      3.025
REMARK  7 active torsions:
REMARK  status: ('A' for Active; 'I' for Inactive)
REMARK    1  A    between atoms: O_2  and  C_3 
REMARK    2  A    between atoms: C_5  and  C_6 
REMARK    3  A    between atoms: C_8  and  N_9 
REMARK    4  A    between atoms: N_12  and  C_14 
REMARK    5  A    between atoms: C_14  and  C_15 
REMARK       I    between atoms: C_15  and  N_16 
REMARK    6  A    between atoms: N_16  and  N_17 
REMARK       I    between atoms: N_17  and  C_18 
REMARK    7  A    between atoms: C_18  and  C_19 
ROOT
HETATM    1  N   UNL     1      43.080 -15.360   5.426  1.00  0.00    -0.357 N 
HETATM    2  C   UNL     1      42.134 -15.822   6.453  1.00  0.00     0.152 C 
HETATM    3  C   UNL     1      40.708 -15.298   6.159  1.00  0.00     0.255 C 
HETATM    4  N   UNL     1      40.744 -13.775   6.026  1.00  0.00    -0.060 N 
HETATM    5  H   UNL     1      41.166 -13.413   6.887  1.00  0.00     0.280 HD
HETATM    6  C   UNL     1      41.698 -13.365   4.892  1.00  0.00     0.255 C 
HETATM    7  C   UNL     1      43.110 -13.896   5.227  1.00  0.00     0.152 C 
ENDROOT
BRANCH   4   8
HETATM    8  C   UNL     1      39.366 -13.117   5.936  1.00  0.00     0.338 C 
BRANCH   8   9
HETATM    9  C   UNL     1      39.334 -11.645   5.521  1.00  0.00     0.262 C 
HETATM   10  N   UNL     1      39.618 -10.702   6.483  1.00  0.00    -0.266 N 
HETATM   11  H   UNL     1      39.725  -9.743   6.154  1.00  0.00     0.190 HD
HETATM   12  O   UNL     1      39.022 -11.292   4.385  1.00  0.00    -0.270 OA
BRANCH  10  13
HETATM   13  N   UNL     1      40.144 -11.017   7.751  1.00  0.00    -0.263 N 
HETATM   14  C   UNL     1      41.306 -10.366   8.149  1.00  0.00     0.270 C 
HETATM   15  O   UNL     1      42.037  -9.769   7.365  1.00  0.00    -0.266 OA
HETATM   16  H   UNL     1      39.456 -11.257   8.465  1.00  0.00     0.190 HD
BRANCH  14  17
HETATM   17  C   UNL     1      41.645 -10.449   9.593  1.00  0.00     0.033 A 
HETATM   18  C   UNL     1      40.623 -10.747  10.503  1.00  0.00     0.019 A 
HETATM   19  C   UNL     1      40.902 -10.812  11.870  1.00  0.00     0.025 A 
HETATM   20  C   UNL     1      42.194 -10.562  12.328  1.00  0.00     0.034 A 
HETATM   21 CL   UNL     1      42.536 -10.628  14.011  1.00  0.00    -0.084 Cl
HETATM   22  C   UNL     1      43.213 -10.249  11.428  1.00  0.00     0.025 A 
HETATM   23  C   UNL     1      42.943 -10.192  10.057  1.00  0.00     0.019 A 
ENDBRANCH  14  17
ENDBRANCH  10  13
ENDBRANCH   8   9
ENDBRANCH   4   8
BRANCH   1  24
HETATM   24  C   UNL     1      43.343 -16.126   4.320  1.00  0.00     0.169 A 
HETATM   25  N   UNL     1      43.580 -17.417   4.397  1.00  0.00    -0.223 NA
HETATM   26  C   UNL     1      43.750 -17.983   3.142  1.00  0.00     0.076 A 
HETATM   27  C   UNL     1      43.667 -17.088   2.097  1.00  0.00     0.085 A 
HETATM   28  S   UNL     1      43.362 -15.517   2.699  1.00  0.00    -0.062 SA
BRANCH  26  29
HETATM   29  C   UNL     1      43.956 -19.419   2.984  1.00  0.00    -0.004 A 
HETATM   30  C   UNL     1      44.476 -20.213   4.015  1.00  0.00     0.050 A 
HETATM   31  C   UNL     1      44.679 -21.587   3.837  1.00  0.00     0.069 A 
HETATM   32  C   UNL     1      44.359 -22.177   2.616  1.00  0.00     0.037 A 
HETATM   33  C   UNL     1      43.833 -21.399   1.582  1.00  0.00     0.004 A 
HETATM   34  C   UNL     1      43.631 -20.030   1.766  1.00  0.00     0.014 A 
BRANCH  31  35
HETATM   35  O   UNL     1      45.193 -22.229   4.931  1.00  0.00    -0.356 OA
HETATM   36  C   UNL     1      44.518 -22.034   6.169  1.00  0.00     0.210 C 
ENDBRANCH  31  35
ENDBRANCH  26  29
ENDBRANCH   1  24
TORSDOF 7
ENDMDL
MODEL 5
REMARK VINA RESULT:      -9.3      4.367     10.191
REMARK  7 active torsions:
REMARK  status: ('A' for Active; 'I' for Inactive)
REMARK    1  A    between atoms: O_2  and  C_3 
REMARK    2  A    between atoms: C_5  and  C_6 
REMARK    3  A    between atoms: C_8  and  N_9 
REMARK    4  A    between atoms: N_12  and  C_14 
REMARK    5  A    between atoms: C_14  and  C_15 
REMARK       I    between atoms: C_15  and  N_16 
REMARK    6  A    between atoms: N_16  and  N_17 
REMARK       I    between atoms: N_17  and  C_18 
REMARK    7  A    between atoms: C_18  and  C_19 
ROOT
HETATM    1  N   UNL     1      40.209 -10.164   5.364  1.00  0.00    -0.357 N 
HETATM    2  C   UNL     1      38.920 -10.698   4.898  1.00  0.00     0.152 C 
HETATM    3  C   UNL     1      39.012 -12.226   4.666  1.00  0.00     0.255 C 
HETATM    4  N   UNL     1      40.163 -12.525   3.705  1.00  0.00    -0.060 N 
HETATM    5  H   UNL     1      39.994 -11.971   2.859  1.00  0.00     0.280 HD
HETATM    6  C   UNL     1      41.487 -12.001   4.284  1.00  0.00     0.255 C 
HETATM    7  C   UNL     1      41.359 -10.475   4.491  1.00  0.00     0.152 C 
ENDROOT
BRANCH   4   8
HETATM    8  C   UNL     1      40.230 -13.979   3.236  1.00  0.00     0.338 C 
BRANCH   8   9
HETATM    9  C   UNL     1      39.182 -14.420   2.212  1.00  0.00     0.262 C 
HETATM   10  N   UNL     1      39.215 -15.729   1.785  1.00  0.00    -0.266 N 
HETATM   11  H   UNL     1      38.428 -16.034   1.212  1.00  0.00     0.190 HD
HETATM   12  O   UNL     1      38.358 -13.639   1.740  1.00  0.00    -0.270 OA
BRANCH  10  13
HETATM   13  N   UNL     1      40.006 -16.725   2.389  1.00  0.00    -0.263 N 
HETATM   14  C   UNL     1      41.097 -17.207   1.675  1.00  0.00     0.270 C 
HETATM   15  O   UNL     1      41.233 -17.028   0.469  1.00  0.00    -0.266 OA
HETATM   16  H   UNL     1      40.079 -16.672   3.405  1.00  0.00     0.190 HD
BRANCH  14  17
HETATM   17  C   UNL     1      42.097 -17.986   2.447  1.00  0.00     0.033 A 
HETATM   18  C   UNL     1      42.165 -17.797   3.833  1.00  0.00     0.019 A 
HETATM   19  C   UNL     1      43.109 -18.498   4.589  1.00  0.00     0.025 A 
HETATM   20  C   UNL     1      43.993 -19.372   3.958  1.00  0.00     0.034 A 
HETATM   21 CL   UNL     1      45.163 -20.224   4.884  1.00  0.00    -0.084 Cl
HETATM   22  C   UNL     1      43.940 -19.552   2.575  1.00  0.00     0.025 A 
HETATM   23  C   UNL     1      42.992 -18.861   1.815  1.00  0.00     0.019 A 
ENDBRANCH  14  17
ENDBRANCH  10  13
ENDBRANCH   8   9
ENDBRANCH   4   8
BRANCH   1  24
HETATM   24  C   UNL     1      40.479 -10.056   6.704  1.00  0.00     0.169 A 
HETATM   25  N   UNL     1      41.579 -10.536   7.241  1.00  0.00    -0.223 NA
HETATM   26  C   UNL     1      41.657 -10.245   8.596  1.00  0.00     0.076 A 
HETATM   27  C   UNL     1      40.573  -9.553   9.094  1.00  0.00     0.085 A 
HETATM   28  S   UNL     1      39.447  -9.257   7.842  1.00  0.00    -0.062 SA
BRANCH  26  29
HETATM   29  C   UNL     1      42.826 -10.622   9.382  1.00  0.00    -0.004 A 
HETATM   30  C   UNL     1      43.789 -11.519   8.899  1.00  0.00     0.050 A 
HETATM   31  C   UNL     1      44.898 -11.878   9.676  1.00  0.00     0.069 A 
HETATM   32  C   UNL     1      45.048 -11.335  10.951  1.00  0.00     0.037 A 
HETATM   33  C   UNL     1      44.101 -10.434  11.442  1.00  0.00     0.004 A 
HETATM   34  C   UNL     1      43.000 -10.079  10.662  1.00  0.00     0.014 A 
BRANCH  31  35
HETATM   35  O   UNL     1      45.750 -12.762   9.072  1.00  0.00    -0.356 OA
HETATM   36  C   UNL     1      45.377 -13.237   7.783  1.00  0.00     0.210 C 
ENDBRANCH  31  35
ENDBRANCH  26  29
ENDBRANCH   1  24
TORSDOF 7
ENDMDL
MODEL 6
REMARK VINA RESULT:      -9.3      5.340      9.037
REMARK  7 active torsions:
REMARK  status: ('A' for Active; 'I' for Inactive)
REMARK    1  A    between atoms: O_2  and  C_3 
REMARK    2  A    between atoms: C_5  and  C_6 
REMARK    3  A    between atoms: C_8  and  N_9 
REMARK    4  A    between atoms: N_12  and  C_14 
REMARK    5  A    between atoms: C_14  and  C_15 
REMARK       I    between atoms: C_15  and  N_16 
REMARK    6  A    between atoms: N_16  and  N_17 
REMARK       I    between atoms: N_17  and  C_18 
REMARK    7  A    between atoms: C_18  and  C_19 
ROOT
HETATM    1  N   UNL     1      40.068 -14.948   3.608  1.00  0.00    -0.357 N 
HETATM    2  C   UNL     1      40.118 -14.247   4.901  1.00  0.00     0.152 C 
HETATM    3  C   UNL     1      41.557 -13.767   5.208  1.00  0.00     0.255 C 
HETATM    4  N   UNL     1      42.514 -14.957   5.139  1.00  0.00    -0.060 N 
HETATM    5  H   UNL     1      42.151 -15.667   5.784  1.00  0.00     0.280 HD
HETATM    6  C   UNL     1      42.462 -15.600   3.743  1.00  0.00     0.255 C 
HETATM    7  C   UNL     1      41.015 -16.074   3.479  1.00  0.00     0.152 C 
ENDROOT
BRANCH   4   8
HETATM    8  C   UNL     1      43.933 -14.654   5.622  1.00  0.00     0.338 C 
BRANCH   8   9
HETATM    9  C   UNL     1      44.295 -15.128   7.031  1.00  0.00     0.262 C 
HETATM   10  N   UNL     1      44.605 -16.459   7.199  1.00  0.00    -0.266 N 
HETATM   11  H   UNL     1      44.975 -16.723   8.112  1.00  0.00     0.190 HD
HETATM   12  O   UNL     1      44.273 -14.374   8.003  1.00  0.00    -0.270 OA
BRANCH  10  13
HETATM   13  N   UNL     1      44.819 -17.350   6.129  1.00  0.00    -0.263 N 
HETATM   14  C   UNL     1      44.361 -18.655   6.272  1.00  0.00     0.270 C 
HETATM   15  O   UNL     1      44.053 -19.136   7.357  1.00  0.00    -0.266 OA
HETATM   16  H   UNL     1      44.801 -16.931   5.199  1.00  0.00     0.190 HD
BRANCH  14  17
HETATM   17  C   UNL     1      44.285 -19.465   5.030  1.00  0.00     0.033 A 
HETATM   18  C   UNL     1      44.730 -20.793   5.072  1.00  0.00     0.019 A 
HETATM   19  C   UNL     1      44.693 -21.579   3.917  1.00  0.00     0.025 A 
HETATM   20  C   UNL     1      44.228 -21.034   2.721  1.00  0.00     0.034 A 
HETATM   21 CL   UNL     1      44.195 -21.995   1.297  1.00  0.00    -0.084 Cl
HETATM   22  C   UNL     1      43.798 -19.708   2.670  1.00  0.00     0.025 A 
HETATM   23  C   UNL     1      43.824 -18.919   3.824  1.00  0.00     0.019 A 
ENDBRANCH  14  17
ENDBRANCH  10  13
ENDBRANCH   8   9
ENDBRANCH   4   8
BRANCH   1  24
HETATM   24  C   UNL     1      39.775 -14.269   2.453  1.00  0.00     0.169 A 
HETATM   25  N   UNL     1      39.941 -14.801   1.262  1.00  0.00    -0.223 NA
HETATM   26  C   UNL     1      39.512 -13.948   0.256  1.00  0.00     0.076 A 
HETATM   27  C   UNL     1      39.039 -12.732   0.702  1.00  0.00     0.085 A 
HETATM   28  S   UNL     1      39.124 -12.666   2.408  1.00  0.00    -0.062 SA
BRANCH  26  29
HETATM   29  C   UNL     1      39.539 -14.359  -1.144  1.00  0.00    -0.004 A 
HETATM   30  C   UNL     1      38.457 -14.132  -2.005  1.00  0.00     0.050 A 
HETATM   31  C   UNL     1      38.498 -14.547  -3.343  1.00  0.00     0.069 A 
HETATM   32  C   UNL     1      39.632 -15.196  -3.826  1.00  0.00     0.037 A 
HETATM   33  C   UNL     1      40.721 -15.422  -2.981  1.00  0.00     0.004 A 
HETATM   34  C   UNL     1      40.675 -15.004  -1.650  1.00  0.00     0.014 A 
BRANCH  31  35
HETATM   35  O   UNL     1      37.369 -14.258  -4.060  1.00  0.00    -0.356 OA
HETATM   36  C   UNL     1      36.816 -12.957  -3.895  1.00  0.00     0.210 C 
ENDBRANCH  31  35
ENDBRANCH  26  29
ENDBRANCH   1  24
TORSDOF 7
ENDMDL
MODEL 7
REMARK VINA RESULT:      -9.1      4.141      9.930
REMARK  7 active torsions:
REMARK  status: ('A' for Active; 'I' for Inactive)
REMARK    1  A    between atoms: O_2  and  C_3 
REMARK    2  A    between atoms: C_5  and  C_6 
REMARK    3  A    between atoms: C_8  and  N_9 
REMARK    4  A    between atoms: N_12  and  C_14 
REMARK    5  A    between atoms: C_14  and  C_15 
REMARK       I    between atoms: C_15  and  N_16 
REMARK    6  A    between atoms: N_16  and  N_17 
REMARK       I    between atoms: N_17  and  C_18 
REMARK    7  A    between atoms: C_18  and  C_19 
ROOT
HETATM    1  N   UNL     1      39.325 -11.919   5.870  1.00  0.00    -0.357 N 
HETATM    2  C   UNL     1      39.486 -13.364   6.092  1.00  0.00     0.152 C 
HETATM    3  C   UNL     1      40.527 -13.956   5.111  1.00  0.00     0.255 C 
HETATM    4  N   UNL     1      40.124 -13.615   3.676  1.00  0.00    -0.060 N 
HETATM    5  H   UNL     1      39.168 -13.961   3.547  1.00  0.00     0.280 HD
HETATM    6  C   UNL     1      40.041 -12.090   3.497  1.00  0.00     0.255 C 
HETATM    7  C   UNL     1      38.986 -11.540   4.483  1.00  0.00     0.152 C 
ENDROOT
BRANCH   4   8
HETATM    8  C   UNL     1      40.960 -14.315   2.604  1.00  0.00     0.338 C 
BRANCH   8   9
HETATM    9  C   UNL     1      42.346 -13.730   2.323  1.00  0.00     0.262 C 
HETATM   10  N   UNL     1      43.439 -14.411   2.810  1.00  0.00    -0.266 N 
HETATM   11  H   UNL     1      44.351 -14.080   2.495  1.00  0.00     0.190 HD
HETATM   12  O   UNL     1      42.499 -12.666   1.725  1.00  0.00    -0.270 OA
BRANCH  10  13
HETATM   13  N   UNL     1      43.370 -15.708   3.353  1.00  0.00    -0.263 N 
HETATM   14  C   UNL     1      43.655 -16.778   2.513  1.00  0.00     0.270 C 
HETATM   15  O   UNL     1      43.677 -16.676   1.291  1.00  0.00    -0.266 OA
HETATM   16  H   UNL     1      43.625 -15.786   4.338  1.00  0.00     0.190 HD
BRANCH  14  17
HETATM   17  C   UNL     1      43.912 -18.084   3.172  1.00  0.00     0.033 A 
HETATM   18  C   UNL     1      43.982 -18.123   4.571  1.00  0.00     0.019 A 
HETATM   19  C   UNL     1      44.242 -19.330   5.224  1.00  0.00     0.025 A 
HETATM   20  C   UNL     1      44.449 -20.491   4.481  1.00  0.00     0.034 A 
HETATM   21 CL   UNL     1      44.784 -21.974   5.282  1.00  0.00    -0.084 Cl
HETATM   22  C   UNL     1      44.396 -20.455   3.087  1.00  0.00     0.025 A 
HETATM   23  C   UNL     1      44.127 -19.252   2.428  1.00  0.00     0.019 A 
ENDBRANCH  14  17
ENDBRANCH  10  13
ENDBRANCH   8   9
ENDBRANCH   4   8
BRANCH   1  24
HETATM   24  C   UNL     1      40.073 -11.014   6.578  1.00  0.00     0.169 A 
HETATM   25  N   UNL     1      40.860 -11.373   7.569  1.00  0.00    -0.223 NA
HETATM   26  C   UNL     1      41.562 -10.292   8.083  1.00  0.00     0.076 A 
HETATM   27  C   UNL     1      41.272  -9.085   7.481  1.00  0.00     0.085 A 
HETATM   28  S   UNL     1      40.112  -9.315   6.247  1.00  0.00    -0.062 SA
BRANCH  26  29
HETATM   29  C   UNL     1      42.546 -10.468   9.145  1.00  0.00    -0.004 A 
HETATM   30  C   UNL     1      43.619 -11.361   9.022  1.00  0.00     0.050 A 
HETATM   31  C   UNL     1      44.546 -11.526  10.060  1.00  0.00     0.069 A 
HETATM   32  C   UNL     1      44.400 -10.790  11.234  1.00  0.00     0.037 A 
HETATM   33  C   UNL     1      43.340  -9.890  11.367  1.00  0.00     0.004 A 
HETATM   34  C   UNL     1      42.422  -9.729  10.328  1.00  0.00     0.014 A 
BRANCH  31  35
HETATM   35  O   UNL     1      45.537 -12.432   9.796  1.00  0.00    -0.356 OA
HETATM   36  C   UNL     1      46.004 -12.503   8.453  1.00  0.00     0.210 C 
ENDBRANCH  31  35
ENDBRANCH  26  29
ENDBRANCH   1  24
TORSDOF 7
ENDMDL
MODEL 8
REMARK VINA RESULT:      -9.1      5.006      9.031
REMARK  7 active torsions:
REMARK  status: ('A' for Active; 'I' for Inactive)
REMARK    1  A    between atoms: O_2  and  C_3 
REMARK    2  A    between atoms: C_5  and  C_6 
REMARK    3  A    between atoms: C_8  and  N_9 
REMARK    4  A    between atoms: N_12  and  C_14 
REMARK    5  A    between atoms: C_14  and  C_15 
REMARK       I    between atoms: C_15  and  N_16 
REMARK    6  A    between atoms: N_16  and  N_17 
REMARK       I    between atoms: N_17  and  C_18 
REMARK    7  A    between atoms: C_18  and  C_19 
ROOT
HETATM    1  N   UNL     1      39.617 -11.879   2.406  1.00  0.00    -0.357 N 
HETATM    2  C   UNL     1      38.813 -12.634   1.432  1.00  0.00     0.152 C 
HETATM    3  C   UNL     1      39.699 -13.629   0.645  1.00  0.00     0.255 C 
HETATM    4  N   UNL     1      40.861 -12.874  -0.001  1.00  0.00    -0.060 N 
HETATM    5  H   UNL     1      40.449 -12.125  -0.567  1.00  0.00     0.280 HD
HETATM    6  C   UNL     1      41.697 -12.166   1.077  1.00  0.00     0.255 C 
HETATM    7  C   UNL     1      40.782 -11.175   1.832  1.00  0.00     0.152 C 
ENDROOT
BRANCH   4   8
HETATM    8  C   UNL     1      41.693 -13.711  -0.973  1.00  0.00     0.338 C 
BRANCH   8   9
HETATM    9  C   UNL     1      40.965 -14.838  -1.706  1.00  0.00     0.262 C 
HETATM   10  N   UNL     1      41.296 -16.135  -1.378  1.00  0.00    -0.266 N 
HETATM   11  H   UNL     1      40.704 -16.864  -1.777  1.00  0.00     0.190 HD
HETATM   12  O   UNL     1      40.143 -14.619  -2.595  1.00  0.00    -0.270 OA
BRANCH  10  13
HETATM   13  N   UNL     1      42.092 -16.478  -0.269  1.00  0.00    -0.263 N 
HETATM   14  C   UNL     1      41.465 -17.076   0.818  1.00  0.00     0.270 C 
HETATM   15  O   UNL     1      40.249 -17.057   0.978  1.00  0.00    -0.266 OA
HETATM   16  H   UNL     1      43.051 -16.752  -0.485  1.00  0.00     0.190 HD
BRANCH  14  17
HETATM   17  C   UNL     1      42.353 -17.732   1.811  1.00  0.00     0.033 A 
HETATM   18  C   UNL     1      43.466 -18.443   1.345  1.00  0.00     0.019 A 
HETATM   19  C   UNL     1      44.312 -19.091   2.249  1.00  0.00     0.025 A 
HETATM   20  C   UNL     1      44.035 -19.042   3.614  1.00  0.00     0.034 A 
HETATM   21 CL   UNL     1      45.065 -19.850   4.727  1.00  0.00    -0.084 Cl
HETATM   22  C   UNL     1      42.919 -18.349   4.084  1.00  0.00     0.025 A 
HETATM   23  C   UNL     1      42.075 -17.691   3.184  1.00  0.00     0.019 A 
ENDBRANCH  14  17
ENDBRANCH  10  13
ENDBRANCH   8   9
ENDBRANCH   4   8
BRANCH   1  24
HETATM   24  C   UNL     1      39.755 -12.323   3.696  1.00  0.00     0.169 A 
HETATM   25  N   UNL     1      40.462 -13.389   4.002  1.00  0.00    -0.223 NA
HETATM   26  C   UNL     1      40.508 -13.597   5.373  1.00  0.00     0.076 A 
HETATM   27  C   UNL     1      39.792 -12.680   6.113  1.00  0.00     0.085 A 
HETATM   28  S   UNL     1      39.061 -11.537   5.073  1.00  0.00    -0.062 SA
BRANCH  26  29
HETATM   29  C   UNL     1      41.294 -14.685   5.944  1.00  0.00    -0.004 A 
HETATM   30  C   UNL     1      42.671 -14.563   6.177  1.00  0.00     0.050 A 
HETATM   31  C   UNL     1      43.411 -15.625   6.714  1.00  0.00     0.069 A 
HETATM   32  C   UNL     1      42.768 -16.822   7.023  1.00  0.00     0.037 A 
HETATM   33  C   UNL     1      41.396 -16.955   6.804  1.00  0.00     0.004 A 
HETATM   34  C   UNL     1      40.664 -15.892   6.270  1.00  0.00     0.014 A 
BRANCH  31  35
HETATM   35  O   UNL     1      44.742 -15.358   6.884  1.00  0.00    -0.356 OA
HETATM   36  C   UNL     1      45.133 -13.989   6.866  1.00  0.00     0.210 C 
ENDBRANCH  31  35
ENDBRANCH  26  29
ENDBRANCH   1  24
TORSDOF 7
ENDMDL
MODEL 9
REMARK VINA RESULT:      -9.1      4.373      5.350
REMARK  7 active torsions:
REMARK  status: ('A' for Active; 'I' for Inactive)
REMARK    1  A    between atoms: O_2  and  C_3 
REMARK    2  A    between atoms: C_5  and  C_6 
REMARK    3  A    between atoms: C_8  and  N_9 
REMARK    4  A    between atoms: N_12  and  C_14 
REMARK    5  A    between atoms: C_14  and  C_15 
REMARK       I    between atoms: C_15  and  N_16 
REMARK    6  A    between atoms: N_16  and  N_17 
REMARK       I    between atoms: N_17  and  C_18 
REMARK    7  A    between atoms: C_18  and  C_19 
ROOT
HETATM    1  N   UNL     1      40.770 -16.179   1.137  1.00  0.00    -0.357 N 
HETATM    2  C   UNL     1      40.718 -15.030   0.221  1.00  0.00     0.152 C 
HETATM    3  C   UNL     1      40.746 -13.699   1.009  1.00  0.00     0.255 C 
HETATM    4  N   UNL     1      39.613 -13.693   2.036  1.00  0.00    -0.060 N 
HETATM    5  H   UNL     1      38.745 -13.868   1.520  1.00  0.00     0.280 HD
HETATM    6  C   UNL     1      39.767 -14.879   3.002  1.00  0.00     0.255 C 
HETATM    7  C   UNL     1      39.723 -16.187   2.180  1.00  0.00     0.152 C 
ENDROOT
BRANCH   4   8
HETATM    8  C   UNL     1      39.407 -12.351   2.739  1.00  0.00     0.338 C 
BRANCH   8   9
HETATM    9  C   UNL     1      40.605 -11.401   2.772  1.00  0.00     0.262 C 
HETATM   10  N   UNL     1      41.625 -11.687   3.653  1.00  0.00    -0.266 N 
HETATM   11  H   UNL     1      42.469 -11.122   3.560  1.00  0.00     0.190 HD
HETATM   12  O   UNL     1      40.657 -10.387   2.078  1.00  0.00    -0.270 OA
BRANCH  10  13
HETATM   13  N   UNL     1      41.729 -12.902   4.356  1.00  0.00    -0.263 N 
HETATM   14  C   UNL     1      42.935 -13.589   4.287  1.00  0.00     0.270 C 
HETATM   15  O   UNL     1      43.788 -13.351   3.438  1.00  0.00    -0.266 OA
HETATM   16  H   UNL     1      41.192 -12.955   5.222  1.00  0.00     0.190 HD
BRANCH  14  17
HETATM   17  C   UNL     1      43.139 -14.665   5.290  1.00  0.00     0.033 A 
HETATM   18  C   UNL     1      43.887 -14.373   6.438  1.00  0.00     0.019 A 
HETATM   19  C   UNL     1      44.117 -15.366   7.394  1.00  0.00     0.025 A 
HETATM   20  C   UNL     1      43.616 -16.651   7.193  1.00  0.00     0.034 A 
HETATM   21 CL   UNL     1      43.910 -17.878   8.360  1.00  0.00    -0.084 Cl
HETATM   22  C   UNL     1      42.884 -16.952   6.044  1.00  0.00     0.025 A 
HETATM   23  C   UNL     1      42.642 -15.960   5.089  1.00  0.00     0.019 A 
ENDBRANCH  14  17
ENDBRANCH  10  13
ENDBRANCH   8   9
ENDBRANCH   4   8
BRANCH   1  24
HETATM   24  C   UNL     1      41.970 -16.747   1.482  1.00  0.00     0.169 A 
HETATM   25  N   UNL     1      42.065 -17.989   1.904  1.00  0.00    -0.223 NA
HETATM   26  C   UNL     1      43.385 -18.355   2.124  1.00  0.00     0.076 A 
HETATM   27  C   UNL     1      44.302 -17.352   1.888  1.00  0.00     0.085 A 
HETATM   28  S   UNL     1      43.495 -15.936   1.373  1.00  0.00    -0.062 SA
BRANCH  26  29
HETATM   29  C   UNL     1      43.734 -19.711   2.532  1.00  0.00    -0.004 A 
HETATM   30  C   UNL     1      44.175 -20.007   3.829  1.00  0.00     0.050 A 
HETATM   31  C   UNL     1      44.518 -21.315   4.197  1.00  0.00     0.069 A 
HETATM   32  C   UNL     1      44.420 -22.340   3.258  1.00  0.00     0.037 A 
HETATM   33  C   UNL     1      43.975 -22.061   1.964  1.00  0.00     0.004 A 
HETATM   34  C   UNL     1      43.632 -20.757   1.605  1.00  0.00     0.014 A 
BRANCH  31  35
HETATM   35  O   UNL     1      44.931 -21.448   5.494  1.00  0.00    -0.356 OA
HETATM   36  C   UNL     1      43.985 -21.126   6.508  1.00  0.00     0.210 C 
ENDBRANCH  31  35
ENDBRANCH  26  29
ENDBRANCH   1  24
TORSDOF 7
ENDMDL
MODEL 10
REMARK VINA RESULT:      -8.9      5.355      8.300
REMARK  7 active torsions:
REMARK  status: ('A' for Active; 'I' for Inactive)
REMARK    1  A    between atoms: O_2  and  C_3 
REMARK    2  A    between atoms: C_5  and  C_6 
REMARK    3  A    between atoms: C_8  and  N_9 
REMARK    4  A    between atoms: N_12  and  C_14 
REMARK    5  A    between atoms: C_14  and  C_15 
REMARK       I    between atoms: C_15  and  N_16 
REMARK    6  A    between atoms: N_16  and  N_17 
REMARK       I    between atoms: N_17  and  C_18 
REMARK    7  A    between atoms: C_18  and  C_19 
ROOT
HETATM    1  N   UNL     1      42.955 -14.059   4.849  1.00  0.00    -0.357 N 
HETATM    2  C   UNL     1      42.480 -13.172   5.923  1.00  0.00     0.152 C 
HETATM    3  C   UNL     1      41.236 -12.374   5.464  1.00  0.00     0.255 C 
HETATM    4  N   UNL     1      41.561 -11.624   4.173  1.00  0.00    -0.060 N 
HETATM    5  H   UNL     1      42.391 -11.053   4.363  1.00  0.00     0.280 HD
HETATM    6  C   UNL     1      41.983 -12.615   3.075  1.00  0.00     0.255 C 
HETATM    7  C   UNL     1      43.231 -13.382   3.565  1.00  0.00     0.152 C 
ENDROOT
BRANCH   4   8
HETATM    8  C   UNL     1      40.480 -10.638   3.727  1.00  0.00     0.338 C 
BRANCH   8   9
HETATM    9  C   UNL     1      39.036 -10.995   4.083  1.00  0.00     0.262 C 
HETATM   10  N   UNL     1      38.243 -11.525   3.089  1.00  0.00    -0.266 N 
HETATM   11  H   UNL     1      37.333 -11.882   3.382  1.00  0.00     0.190 HD
HETATM   12  O   UNL     1      38.564 -10.783   5.199  1.00  0.00    -0.270 OA
BRANCH  10  13
HETATM   13  N   UNL     1      38.740 -11.955   1.844  1.00  0.00    -0.263 N 
HETATM   14  C   UNL     1      38.922 -13.320   1.655  1.00  0.00     0.270 C 
HETATM   15  O   UNL     1      38.950 -14.122   2.584  1.00  0.00    -0.266 OA
HETATM   16  H   UNL     1      38.462 -11.390   1.041  1.00  0.00     0.190 HD
BRANCH  14  17
HETATM   17  C   UNL     1      39.110 -13.772   0.253  1.00  0.00     0.033 A 
HETATM   18  C   UNL     1      38.031 -13.667  -0.633  1.00  0.00     0.019 A 
HETATM   19  C   UNL     1      38.166 -14.102  -1.954  1.00  0.00     0.025 A 
HETATM   20  C   UNL     1      39.371 -14.657  -2.382  1.00  0.00     0.034 A 
HETATM   21 CL   UNL     1      39.535 -15.205  -4.002  1.00  0.00    -0.084 Cl
HETATM   22  C   UNL     1      40.445 -14.779  -1.499  1.00  0.00     0.025 A 
HETATM   23  C   UNL     1      40.319 -14.337  -0.179  1.00  0.00     0.019 A 
ENDBRANCH  14  17
ENDBRANCH  10  13
ENDBRANCH   8   9
ENDBRANCH   4   8
BRANCH   1  24
HETATM   24  C   UNL     1      42.516 -15.356   4.766  1.00  0.00     0.169 A 
HETATM   25  N   UNL     1      43.200 -16.291   4.144  1.00  0.00    -0.223 NA
HETATM   26  C   UNL     1      42.587 -17.531   4.255  1.00  0.00     0.076 A 
HETATM   27  C   UNL     1      41.399 -17.521   4.953  1.00  0.00     0.085 A 
HETATM   28  S   UNL     1      41.052 -15.934   5.486  1.00  0.00    -0.062 SA
BRANCH  26  29
HETATM   29  C   UNL     1      43.206 -18.730   3.698  1.00  0.00    -0.004 A 
HETATM   30  C   UNL     1      44.106 -19.512   4.434  1.00  0.00     0.050 A 
HETATM   31  C   UNL     1      44.700 -20.651   3.876  1.00  0.00     0.069 A 
HETATM   32  C   UNL     1      44.390 -21.016   2.567  1.00  0.00     0.037 A 
HETATM   33  C   UNL     1      43.488 -20.251   1.825  1.00  0.00     0.004 A 
HETATM   34  C   UNL     1      42.899 -19.118   2.388  1.00  0.00     0.014 A 
BRANCH  31  35
HETATM   35  O   UNL     1      45.557 -21.311   4.714  1.00  0.00    -0.356 OA
HETATM   36  C   UNL     1      45.152 -22.599   5.167  1.00  0.00     0.210 C 
ENDBRANCH  31  35
ENDBRANCH  26  29
ENDBRANCH   1  24
TORSDOF 7
ENDMDL
