MODEL 1
REMARK VINA RESULT:      -9.4      0.000      0.000
REMARK  6 active torsions:
REMARK  status: ('A' for Active; 'I' for Inactive)
REMARK    1  A    between atoms: C_5  and  N_6 
REMARK    2  A    between atoms: C_17  and  N_18 
REMARK    3  A    between atoms: C_17  and  C_29 
REMARK       I    between atoms: N_18  and  C_19 
REMARK    4  A    between atoms: C_19  and  C_20 
REMARK    5  A    between atoms: C_20  and  C_21 
REMARK    6  A    between atoms: C_21  and  C_22 
ROOT
HETATM    1  N   UNL     1      40.990 -12.982   6.099  1.00  0.00    -0.248 N 
HETATM    2  C   UNL     1      39.702 -13.520   5.870  1.00  0.00     0.335 A 
HETATM    3  O   UNL     1      38.649 -12.888   5.796  1.00  0.00    -0.246 OA
HETATM    4  N   UNL     1      39.644 -14.886   5.676  1.00  0.00    -0.274 N 
HETATM    5  C   UNL     1      40.694 -15.754   5.607  1.00  0.00     0.262 A 
HETATM    6  O   UNL     1      40.581 -16.942   5.342  1.00  0.00    -0.267 OA
HETATM    7  C   UNL     1      41.979 -15.154   5.888  1.00  0.00     0.101 A 
HETATM    8  C   UNL     1      42.072 -13.843   6.111  1.00  0.00     0.134 A 
HETATM    9  N   UNL     1      43.366 -13.548   6.407  1.00  0.00    -0.309 N 
HETATM   10  C   UNL     1      44.184 -14.669   6.320  1.00  0.00     0.266 A 
HETATM   11  O   UNL     1      45.397 -14.659   6.452  1.00  0.00    -0.270 OA
HETATM   12  C   UNL     1      43.283 -15.879   6.029  1.00  0.00     0.249 A 
HETATM   13  H   UNL     1      38.727 -15.255   5.468  1.00  0.00     0.173 HD
HETATM   14  H   UNL     1      43.734 -12.632   6.623  1.00  0.00     0.170 HD
ENDROOT
BRANCH  12  15
HETATM   15  N   UNL     1      43.661 -16.623   4.812  1.00  0.00    -0.332 N 
HETATM   16  C   UNL     1      43.566 -16.104   3.544  1.00  0.00     0.219 C 
HETATM   17  O   UNL     1      43.270 -14.938   3.318  1.00  0.00    -0.274 OA
HETATM   18  H   UNL     1      43.761 -17.628   4.907  1.00  0.00     0.164 HD
BRANCH  16  19
HETATM   19  C   UNL     1      43.803 -17.117   2.448  1.00  0.00     0.107 C 
BRANCH  19  20
HETATM   20  C   UNL     1      42.795 -18.259   2.565  1.00  0.00     0.047 C 
BRANCH  20  21
HETATM   21  C   UNL     1      43.455 -19.607   2.726  1.00  0.00    -0.058 A 
HETATM   22  C   UNL     1      44.213 -19.893   3.871  1.00  0.00     0.007 A 
HETATM   23  C   UNL     1      44.813 -21.143   4.029  1.00  0.00     0.001 A 
HETATM   24  C   UNL     1      44.663 -22.120   3.047  1.00  0.00     0.000 A 
HETATM   25  C   UNL     1      43.909 -21.848   1.907  1.00  0.00     0.001 A 
HETATM   26  C   UNL     1      43.306 -20.599   1.748  1.00  0.00     0.007 A 
ENDBRANCH  20  21
ENDBRANCH  19  20
ENDBRANCH  16  19
ENDBRANCH  12  15
BRANCH  12  27
HETATM   27  C   UNL     1      43.333 -16.725   7.309  1.00  0.00     0.426 C 
HETATM   28  F   UNL     1      42.185 -17.405   7.532  1.00  0.00    -0.167 F 
HETATM   29  F   UNL     1      44.329 -17.643   7.244  1.00  0.00    -0.167 F 
HETATM   30  F   UNL     1      43.587 -15.975   8.406  1.00  0.00    -0.167 F 
ENDBRANCH  12  27
BRANCH   1  31
HETATM   31  C   UNL     1      41.116 -11.563   6.306  1.00  0.00     0.045 A 
HETATM   32  C   UNL     1      41.344 -10.698   5.227  1.00  0.00     0.031 A 
HETATM   33  C   UNL     1      41.425  -9.314   5.416  1.00  0.00     0.009 A 
HETATM   34  C   UNL     1      41.300  -8.763   6.693  1.00  0.00    -0.062 A 
HETATM   35  C   UNL     1      41.350  -7.276   6.885  1.00  0.00     0.048 C 
HETATM   36  C   UNL     1      41.083  -9.618   7.777  1.00  0.00     0.009 A 
HETATM   37  C   UNL     1      41.001 -11.003   7.587  1.00  0.00     0.031 A 
ENDBRANCH   1  31
TORSDOF 6
ENDMDL
MODEL 2
REMARK VINA RESULT:      -9.3      4.268      4.994
REMARK  6 active torsions:
REMARK  status: ('A' for Active; 'I' for Inactive)
REMARK    1  A    between atoms: C_5  and  N_6 
REMARK    2  A    between atoms: C_17  and  N_18 
REMARK    3  A    between atoms: C_17  and  C_29 
REMARK       I    between atoms: N_18  and  C_19 
REMARK    4  A    between atoms: C_19  and  C_20 
REMARK    5  A    between atoms: C_20  and  C_21 
REMARK    6  A    between atoms: C_21  and  C_22 
ROOT
HETATM    1  N   UNL     1      40.871 -13.110   0.382  1.00  0.00    -0.248 N 
HETATM    2  C   UNL     1      39.929 -13.981  -0.217  1.00  0.00     0.335 A 
HETATM    3  O   UNL     1      39.488 -13.904  -1.363  1.00  0.00    -0.246 OA
HETATM    4  N   UNL     1      39.500 -15.035   0.566  1.00  0.00    -0.274 N 
HETATM    5  C   UNL     1      39.939 -15.368   1.813  1.00  0.00     0.262 A 
HETATM    6  O   UNL     1      39.583 -16.369   2.417  1.00  0.00    -0.267 OA
HETATM    7  C   UNL     1      40.869 -14.422   2.387  1.00  0.00     0.101 A 
HETATM    8  C   UNL     1      41.284 -13.374   1.674  1.00  0.00     0.134 A 
HETATM    9  N   UNL     1      42.098 -12.616   2.458  1.00  0.00    -0.309 N 
HETATM   10  C   UNL     1      42.294 -13.193   3.707  1.00  0.00     0.266 A 
HETATM   11  O   UNL     1      43.048 -12.760   4.563  1.00  0.00    -0.270 OA
HETATM   12  C   UNL     1      41.406 -14.444   3.786  1.00  0.00     0.249 A 
HETATM   13  H   UNL     1      38.863 -15.676   0.116  1.00  0.00     0.173 HD
HETATM   14  H   UNL     1      42.557 -11.758   2.184  1.00  0.00     0.170 HD
ENDROOT
BRANCH  12  15
HETATM   15  N   UNL     1      42.147 -15.681   4.097  1.00  0.00    -0.332 N 
HETATM   16  C   UNL     1      43.210 -16.137   3.358  1.00  0.00     0.219 C 
HETATM   17  O   UNL     1      43.713 -15.496   2.443  1.00  0.00    -0.274 OA
HETATM   18  H   UNL     1      41.696 -16.333   4.731  1.00  0.00     0.164 HD
BRANCH  16  19
HETATM   19  C   UNL     1      43.670 -17.526   3.735  1.00  0.00     0.107 C 
BRANCH  19  20
HETATM   20  C   UNL     1      43.953 -18.343   2.475  1.00  0.00     0.047 C 
BRANCH  20  21
HETATM   21  C   UNL     1      44.166 -19.809   2.765  1.00  0.00    -0.058 A 
HETATM   22  C   UNL     1      44.644 -20.222   4.017  1.00  0.00     0.007 A 
HETATM   23  C   UNL     1      44.828 -21.578   4.292  1.00  0.00     0.001 A 
HETATM   24  C   UNL     1      44.538 -22.534   3.320  1.00  0.00     0.000 A 
HETATM   25  C   UNL     1      44.059 -22.135   2.075  1.00  0.00     0.001 A 
HETATM   26  C   UNL     1      43.871 -20.780   1.798  1.00  0.00     0.007 A 
ENDBRANCH  20  21
ENDBRANCH  19  20
ENDBRANCH  16  19
ENDBRANCH  12  15
BRANCH  12  27
HETATM   27  C   UNL     1      40.325 -14.096   4.819  1.00  0.00     0.426 C 
HETATM   28  F   UNL     1      39.343 -13.319   4.306  1.00  0.00    -0.167 F 
HETATM   29  F   UNL     1      39.732 -15.218   5.296  1.00  0.00    -0.167 F 
HETATM   30  F   UNL     1      40.836 -13.456   5.896  1.00  0.00    -0.167 F 
ENDBRANCH  12  27
BRANCH   1  31
HETATM   31  C   UNL     1      41.358 -11.993  -0.385  1.00  0.00     0.045 A 
HETATM   32  C   UNL     1      42.484 -12.124  -1.209  1.00  0.00     0.031 A 
HETATM   33  C   UNL     1      42.938 -11.055  -1.988  1.00  0.00     0.009 A 
HETATM   34  C   UNL     1      42.286  -9.820  -1.946  1.00  0.00    -0.062 A 
HETATM   35  C   UNL     1      42.754  -8.688  -2.812  1.00  0.00     0.048 C 
HETATM   36  C   UNL     1      41.169  -9.675  -1.120  1.00  0.00     0.009 A 
HETATM   37  C   UNL     1      40.716 -10.747  -0.341  1.00  0.00     0.031 A 
ENDBRANCH   1  31
TORSDOF 6
ENDMDL
MODEL 3
REMARK VINA RESULT:      -9.3      5.011      5.887
REMARK  6 active torsions:
REMARK  status: ('A' for Active; 'I' for Inactive)
REMARK    1  A    between atoms: C_5  and  N_6 
REMARK    2  A    between atoms: C_17  and  N_18 
REMARK    3  A    between atoms: C_17  and  C_29 
REMARK       I    between atoms: N_18  and  C_19 
REMARK    4  A    between atoms: C_19  and  C_20 
REMARK    5  A    between atoms: C_20  and  C_21 
REMARK    6  A    between atoms: C_21  and  C_22 
ROOT
HETATM    1  N   UNL     1      40.329 -13.050  -0.555  1.00  0.00    -0.248 N 
HETATM    2  C   UNL     1      39.044 -13.578  -0.826  1.00  0.00     0.335 A 
HETATM    3  O   UNL     1      38.368 -13.374  -1.833  1.00  0.00    -0.246 OA
HETATM    4  N   UNL     1      38.529 -14.432   0.130  1.00  0.00    -0.274 N 
HETATM    5  C   UNL     1      39.151 -14.877   1.259  1.00  0.00     0.262 A 
HETATM    6  O   UNL     1      38.673 -15.707   2.019  1.00  0.00    -0.267 OA
HETATM    7  C   UNL     1      40.442 -14.274   1.501  1.00  0.00     0.101 A 
HETATM    8  C   UNL     1      40.961 -13.421   0.617  1.00  0.00     0.134 A 
HETATM    9  N   UNL     1      42.141 -12.957   1.108  1.00  0.00    -0.309 N 
HETATM   10  C   UNL     1      42.467 -13.556   2.320  1.00  0.00     0.266 A 
HETATM   11  O   UNL     1      43.511 -13.380   2.926  1.00  0.00    -0.270 OA
HETATM   12  C   UNL     1      41.288 -14.455   2.725  1.00  0.00     0.249 A 
HETATM   13  H   UNL     1      37.632 -14.839  -0.093  1.00  0.00     0.173 HD
HETATM   14  H   UNL     1      42.755 -12.295   0.655  1.00  0.00     0.170 HD
ENDROOT
BRANCH  12  15
HETATM   15  N   UNL     1      41.667 -15.862   2.959  1.00  0.00    -0.332 N 
HETATM   16  C   UNL     1      42.354 -16.626   2.048  1.00  0.00     0.219 C 
HETATM   17  O   UNL     1      42.816 -16.173   1.008  1.00  0.00    -0.274 OA
HETATM   18  H   UNL     1      41.188 -16.341   3.715  1.00  0.00     0.164 HD
BRANCH  16  19
HETATM   19  C   UNL     1      42.439 -18.090   2.415  1.00  0.00     0.107 C 
BRANCH  19  20
HETATM   20  C   UNL     1      43.828 -18.632   2.083  1.00  0.00     0.047 C 
BRANCH  20  21
HETATM   21  C   UNL     1      44.137 -19.924   2.799  1.00  0.00    -0.058 A 
HETATM   22  C   UNL     1      44.061 -21.147   2.119  1.00  0.00     0.007 A 
HETATM   23  C   UNL     1      44.361 -22.342   2.775  1.00  0.00     0.001 A 
HETATM   24  C   UNL     1      44.739 -22.327   4.116  1.00  0.00     0.000 A 
HETATM   25  C   UNL     1      44.822 -21.117   4.800  1.00  0.00     0.001 A 
HETATM   26  C   UNL     1      44.525 -19.920   4.146  1.00  0.00     0.007 A 
ENDBRANCH  20  21
ENDBRANCH  19  20
ENDBRANCH  16  19
ENDBRANCH  12  15
BRANCH  12  27
HETATM   27  C   UNL     1      40.673 -13.769   3.953  1.00  0.00     0.426 C 
HETATM   28  F   UNL     1      40.036 -12.617   3.644  1.00  0.00    -0.167 F 
HETATM   29  F   UNL     1      39.761 -14.575   4.551  1.00  0.00    -0.167 F 
HETATM   30  F   UNL     1      41.598 -13.488   4.897  1.00  0.00    -0.167 F 
ENDBRANCH  12  27
BRANCH   1  31
HETATM   31  C   UNL     1      40.921 -12.156  -1.515  1.00  0.00     0.045 A 
HETATM   32  C   UNL     1      41.764 -12.640  -2.524  1.00  0.00     0.031 A 
HETATM   33  C   UNL     1      42.308 -11.782  -3.486  1.00  0.00     0.009 A 
HETATM   34  C   UNL     1      42.039 -10.412  -3.448  1.00  0.00    -0.062 A 
HETATM   35  C   UNL     1      42.594  -9.501  -4.502  1.00  0.00     0.048 C 
HETATM   36  C   UNL     1      41.208  -9.916  -2.438  1.00  0.00     0.009 A 
HETATM   37  C   UNL     1      40.663 -10.778  -1.478  1.00  0.00     0.031 A 
ENDBRANCH   1  31
TORSDOF 6
ENDMDL
MODEL 4
REMARK VINA RESULT:      -9.2      2.593      3.125
REMARK  6 active torsions:
REMARK  status: ('A' for Active; 'I' for Inactive)
REMARK    1  A    between atoms: C_5  and  N_6 
REMARK    2  A    between atoms: C_17  and  N_18 
REMARK    3  A    between atoms: C_17  and  C_29 
REMARK       I    between atoms: N_18  and  C_19 
REMARK    4  A    between atoms: C_19  and  C_20 
REMARK    5  A    between atoms: C_20  and  C_21 
REMARK    6  A    between atoms: C_21  and  C_22 
ROOT
HETATM    1  N   UNL     1      39.665 -13.417   2.631  1.00  0.00    -0.248 N 
HETATM    2  C   UNL     1      38.749 -14.109   1.804  1.00  0.00     0.335 A 
HETATM    3  O   UNL     1      37.897 -13.604   1.075  1.00  0.00    -0.246 OA
HETATM    4  N   UNL     1      38.861 -15.486   1.801  1.00  0.00    -0.274 N 
HETATM    5  C   UNL     1      39.800 -16.238   2.443  1.00  0.00     0.262 A 
HETATM    6  O   UNL     1      39.899 -17.451   2.325  1.00  0.00    -0.267 OA
HETATM    7  C   UNL     1      40.681 -15.481   3.302  1.00  0.00     0.101 A 
HETATM    8  C   UNL     1      40.585 -14.152   3.356  1.00  0.00     0.134 A 
HETATM    9  N   UNL     1      41.477 -13.693   4.275  1.00  0.00    -0.309 N 
HETATM   10  C   UNL     1      42.243 -14.723   4.809  1.00  0.00     0.266 A 
HETATM   11  O   UNL     1      43.171 -14.570   5.586  1.00  0.00    -0.270 OA
HETATM   12  C   UNL     1      41.707 -16.045   4.237  1.00  0.00     0.249 A 
HETATM   13  H   UNL     1      38.234 -15.969   1.173  1.00  0.00     0.173 HD
HETATM   14  H   UNL     1      41.625 -12.727   4.530  1.00  0.00     0.170 HD
ENDROOT
BRANCH  12  15
HETATM   15  N   UNL     1      42.731 -16.853   3.548  1.00  0.00    -0.332 N 
HETATM   16  C   UNL     1      43.498 -16.384   2.510  1.00  0.00     0.219 C 
HETATM   17  O   UNL     1      43.482 -15.217   2.141  1.00  0.00    -0.274 OA
HETATM   18  H   UNL     1      42.688 -17.857   3.690  1.00  0.00     0.164 HD
BRANCH  16  19
HETATM   19  C   UNL     1      44.320 -17.451   1.824  1.00  0.00     0.107 C 
BRANCH  19  20
HETATM   20  C   UNL     1      43.467 -18.695   1.583  1.00  0.00     0.047 C 
BRANCH  20  21
HETATM   21  C   UNL     1      43.940 -19.890   2.375  1.00  0.00    -0.058 A 
HETATM   22  C   UNL     1      44.382 -19.735   3.696  1.00  0.00     0.007 A 
HETATM   23  C   UNL     1      44.807 -20.840   4.435  1.00  0.00     0.001 A 
HETATM   24  C   UNL     1      44.794 -22.111   3.862  1.00  0.00     0.000 A 
HETATM   25  C   UNL     1      44.352 -22.277   2.552  1.00  0.00     0.001 A 
HETATM   26  C   UNL     1      43.925 -21.173   1.811  1.00  0.00     0.007 A 
ENDBRANCH  20  21
ENDBRANCH  19  20
ENDBRANCH  16  19
ENDBRANCH  12  15
BRANCH  12  27
HETATM   27  C   UNL     1      41.060 -16.758   5.433  1.00  0.00     0.426 C 
HETATM   28  F   UNL     1      40.638 -18.007   5.132  1.00  0.00    -0.167 F 
HETATM   29  F   UNL     1      41.939 -16.875   6.460  1.00  0.00    -0.167 F 
HETATM   30  F   UNL     1      40.003 -16.073   5.924  1.00  0.00    -0.167 F 
ENDBRANCH  12  27
BRANCH   1  31
HETATM   31  C   UNL     1      39.601 -11.980   2.676  1.00  0.00     0.045 A 
HETATM   32  C   UNL     1      38.743 -11.327   3.572  1.00  0.00     0.031 A 
HETATM   33  C   UNL     1      38.706  -9.931   3.650  1.00  0.00     0.009 A 
HETATM   34  C   UNL     1      39.513  -9.152   2.818  1.00  0.00    -0.062 A 
HETATM   35  C   UNL     1      39.497  -7.657   2.931  1.00  0.00     0.048 C 
HETATM   36  C   UNL     1      40.364  -9.793   1.913  1.00  0.00     0.009 A 
HETATM   37  C   UNL     1      40.401 -11.190   1.837  1.00  0.00     0.031 A 
ENDBRANCH   1  31
TORSDOF 6
ENDMDL
MODEL 5
REMARK VINA RESULT:      -9.1      5.076      6.213
REMARK  6 active torsions:
REMARK  status: ('A' for Active; 'I' for Inactive)
REMARK    1  A    between atoms: C_5  and  N_6 
REMARK    2  A    between atoms: C_17  and  N_18 
REMARK    3  A    between atoms: C_17  and  C_29 
REMARK       I    between atoms: N_18  and  C_19 
REMARK    4  A    between atoms: C_19  and  C_20 
REMARK    5  A    between atoms: C_20  and  C_21 
REMARK    6  A    between atoms: C_21  and  C_22 
ROOT
HETATM    1  N   UNL     1      41.791 -12.771  -1.032  1.00  0.00    -0.248 N 
HETATM    2  C   UNL     1      41.839 -13.808  -1.994  1.00  0.00     0.335 A 
HETATM    3  O   UNL     1      42.122 -13.687  -3.185  1.00  0.00    -0.246 OA
HETATM    4  N   UNL     1      41.572 -15.079  -1.525  1.00  0.00    -0.274 N 
HETATM    5  C   UNL     1      41.345 -15.450  -0.232  1.00  0.00     0.262 A 
HETATM    6  O   UNL     1      41.206 -16.609   0.131  1.00  0.00    -0.267 OA
HETATM    7  C   UNL     1      41.270 -14.345   0.697  1.00  0.00     0.101 A 
HETATM    8  C   UNL     1      41.491 -13.099   0.277  1.00  0.00     0.134 A 
HETATM    9  N   UNL     1      41.300 -12.252   1.324  1.00  0.00    -0.309 N 
HETATM   10  C   UNL     1      41.009 -12.939   2.497  1.00  0.00     0.266 A 
HETATM   11  O   UNL     1      40.881 -12.421   3.594  1.00  0.00    -0.270 OA
HETATM   12  C   UNL     1      40.891 -14.430   2.145  1.00  0.00     0.249 A 
HETATM   13  H   UNL     1      41.653 -15.818  -2.208  1.00  0.00     0.173 HD
HETATM   14  H   UNL     1      41.396 -11.246   1.301  1.00  0.00     0.170 HD
ENDROOT
BRANCH  12  15
HETATM   15  N   UNL     1      41.793 -15.298   2.925  1.00  0.00    -0.332 N 
HETATM   16  C   UNL     1      43.112 -15.003   3.166  1.00  0.00     0.219 C 
HETATM   17  O   UNL     1      43.627 -13.936   2.855  1.00  0.00    -0.274 OA
HETATM   18  H   UNL     1      41.486 -16.254   3.075  1.00  0.00     0.164 HD
BRANCH  16  19
HETATM   19  C   UNL     1      43.889 -16.135   3.798  1.00  0.00     0.107 C 
BRANCH  19  20
HETATM   20  C   UNL     1      42.948 -17.290   4.137  1.00  0.00     0.047 C 
BRANCH  20  21
HETATM   21  C   UNL     1      43.433 -18.615   3.602  1.00  0.00    -0.058 A 
HETATM   22  C   UNL     1      43.063 -19.039   2.317  1.00  0.00     0.007 A 
HETATM   23  C   UNL     1      43.521 -20.257   1.814  1.00  0.00     0.001 A 
HETATM   24  C   UNL     1      44.354 -21.064   2.588  1.00  0.00     0.000 A 
HETATM   25  C   UNL     1      44.732 -20.651   3.863  1.00  0.00     0.001 A 
HETATM   26  C   UNL     1      44.277 -19.431   4.368  1.00  0.00     0.007 A 
ENDBRANCH  20  21
ENDBRANCH  19  20
ENDBRANCH  16  19
ENDBRANCH  12  15
BRANCH  12  27
HETATM   27  C   UNL     1      39.404 -14.762   2.329  1.00  0.00     0.426 C 
HETATM   28  F   UNL     1      39.104 -16.035   1.982  1.00  0.00    -0.167 F 
HETATM   29  F   UNL     1      39.030 -14.607   3.623  1.00  0.00    -0.167 F 
HETATM   30  F   UNL     1      38.605 -13.941   1.609  1.00  0.00    -0.167 F 
ENDBRANCH  12  27
BRANCH   1  31
HETATM   31  C   UNL     1      42.062 -11.424  -1.459  1.00  0.00     0.045 A 
HETATM   32  C   UNL     1      43.345 -10.873  -1.329  1.00  0.00     0.031 A 
HETATM   33  C   UNL     1      43.625  -9.579  -1.782  1.00  0.00     0.009 A 
HETATM   34  C   UNL     1      42.622  -8.796  -2.357  1.00  0.00    -0.062 A 
HETATM   35  C   UNL     1      42.936  -7.424  -2.874  1.00  0.00     0.048 C 
HETATM   36  C   UNL     1      41.337  -9.331  -2.481  1.00  0.00     0.009 A 
HETATM   37  C   UNL     1      41.059 -10.627  -2.029  1.00  0.00     0.031 A 
ENDBRANCH   1  31
TORSDOF 6
ENDMDL
MODEL 6
REMARK VINA RESULT:      -9.0      6.699      9.970
REMARK  6 active torsions:
REMARK  status: ('A' for Active; 'I' for Inactive)
REMARK    1  A    between atoms: C_5  and  N_6 
REMARK    2  A    between atoms: C_17  and  N_18 
REMARK    3  A    between atoms: C_17  and  C_29 
REMARK       I    between atoms: N_18  and  C_19 
REMARK    4  A    between atoms: C_19  and  C_20 
REMARK    5  A    between atoms: C_20  and  C_21 
REMARK    6  A    between atoms: C_21  and  C_22 
ROOT
HETATM    1  N   UNL     1      41.590 -15.206   0.810  1.00  0.00    -0.248 N 
HETATM    2  C   UNL     1      41.477 -14.145   1.739  1.00  0.00     0.335 A 
HETATM    3  O   UNL     1      41.899 -14.138   2.895  1.00  0.00    -0.246 OA
HETATM    4  N   UNL     1      40.862 -13.000   1.274  1.00  0.00    -0.274 N 
HETATM    5  C   UNL     1      40.423 -12.756   0.006  1.00  0.00     0.262 A 
HETATM    6  O   UNL     1      39.969 -11.684  -0.365  1.00  0.00    -0.267 OA
HETATM    7  C   UNL     1      40.529 -13.889  -0.886  1.00  0.00     0.101 A 
HETATM    8  C   UNL     1      41.090 -15.023  -0.465  1.00  0.00     0.134 A 
HETATM    9  N   UNL     1      41.010 -15.940  -1.467  1.00  0.00    -0.309 N 
HETATM   10  C   UNL     1      40.444 -15.400  -2.616  1.00  0.00     0.266 A 
HETATM   11  O   UNL     1      40.338 -15.985  -3.682  1.00  0.00    -0.270 OA
HETATM   12  C   UNL     1      39.999 -13.966  -2.286  1.00  0.00     0.249 A 
HETATM   13  H   UNL     1      40.826 -12.231   1.929  1.00  0.00     0.173 HD
HETATM   14  H   UNL     1      41.351 -16.890  -1.433  1.00  0.00     0.170 HD
ENDROOT
BRANCH  12  15
HETATM   15  N   UNL     1      40.579 -12.944  -3.177  1.00  0.00    -0.332 N 
HETATM   16  C   UNL     1      41.927 -12.788  -3.380  1.00  0.00     0.219 C 
HETATM   17  O   UNL     1      42.766 -13.560  -2.931  1.00  0.00    -0.274 OA
HETATM   18  H   UNL     1      39.967 -12.182  -3.452  1.00  0.00     0.164 HD
BRANCH  16  19
HETATM   19  C   UNL     1      42.292 -11.546  -4.160  1.00  0.00     0.107 C 
BRANCH  19  20
HETATM   20  C   UNL     1      41.580 -10.331  -3.569  1.00  0.00     0.047 C 
BRANCH  20  21
HETATM   21  C   UNL     1      42.496  -9.460  -2.744  1.00  0.00    -0.058 A 
HETATM   22  C   UNL     1      43.327 -10.030  -1.768  1.00  0.00     0.007 A 
HETATM   23  C   UNL     1      44.185  -9.230  -1.014  1.00  0.00     0.001 A 
HETATM   24  C   UNL     1      44.223  -7.852  -1.225  1.00  0.00     0.000 A 
HETATM   25  C   UNL     1      43.406  -7.276  -2.195  1.00  0.00     0.001 A 
HETATM   26  C   UNL     1      42.548  -8.075  -2.952  1.00  0.00     0.007 A 
ENDBRANCH  20  21
ENDBRANCH  19  20
ENDBRANCH  16  19
ENDBRANCH  12  15
BRANCH  12  27
HETATM   27  C   UNL     1      38.465 -14.013  -2.315  1.00  0.00     0.426 C 
HETATM   28  F   UNL     1      37.986 -14.948  -3.168  1.00  0.00    -0.167 F 
HETATM   29  F   UNL     1      37.967 -14.307  -1.088  1.00  0.00    -0.167 F 
HETATM   30  F   UNL     1      37.925 -12.823  -2.662  1.00  0.00    -0.167 F 
ENDBRANCH  12  27
BRANCH   1  31
HETATM   31  C   UNL     1      42.225 -16.427   1.235  1.00  0.00     0.045 A 
HETATM   32  C   UNL     1      41.461 -17.537   1.620  1.00  0.00     0.031 A 
HETATM   33  C   UNL     1      42.071 -18.740   1.993  1.00  0.00     0.009 A 
HETATM   34  C   UNL     1      43.463 -18.854   2.010  1.00  0.00    -0.062 A 
HETATM   35  C   UNL     1      44.111 -20.157   2.374  1.00  0.00     0.048 C 
HETATM   36  C   UNL     1      44.234 -17.750   1.637  1.00  0.00     0.009 A 
HETATM   37  C   UNL     1      43.622 -16.547   1.263  1.00  0.00     0.031 A 
ENDBRANCH   1  31
TORSDOF 6
ENDMDL
MODEL 7
REMARK VINA RESULT:      -9.0      1.526      2.115
REMARK  6 active torsions:
REMARK  status: ('A' for Active; 'I' for Inactive)
REMARK    1  A    between atoms: C_5  and  N_6 
REMARK    2  A    between atoms: C_17  and  N_18 
REMARK    3  A    between atoms: C_17  and  C_29 
REMARK       I    between atoms: N_18  and  C_19 
REMARK    4  A    between atoms: C_19  and  C_20 
REMARK    5  A    between atoms: C_20  and  C_21 
REMARK    6  A    between atoms: C_21  and  C_22 
ROOT
HETATM    1  N   UNL     1      40.455 -12.638   4.506  1.00  0.00    -0.248 N 
HETATM    2  C   UNL     1      39.460 -12.790   3.512  1.00  0.00     0.335 A 
HETATM    3  O   UNL     1      38.754 -11.898   3.042  1.00  0.00    -0.246 OA
HETATM    4  N   UNL     1      39.303 -14.065   3.005  1.00  0.00    -0.274 N 
HETATM    5  C   UNL     1      40.049 -15.167   3.302  1.00  0.00     0.262 A 
HETATM    6  O   UNL     1      39.917 -16.250   2.749  1.00  0.00    -0.267 OA
HETATM    7  C   UNL     1      41.022 -14.961   4.350  1.00  0.00     0.101 A 
HETATM    8  C   UNL     1      41.182 -13.750   4.887  1.00  0.00     0.134 A 
HETATM    9  N   UNL     1      42.105 -13.840   5.882  1.00  0.00    -0.309 N 
HETATM   10  C   UNL     1      42.633 -15.122   5.982  1.00  0.00     0.266 A 
HETATM   11  O   UNL     1      43.538 -15.447   6.733  1.00  0.00    -0.270 OA
HETATM   12  C   UNL     1      41.877 -16.015   4.985  1.00  0.00     0.249 A 
HETATM   13  H   UNL     1      38.622 -14.155   2.264  1.00  0.00     0.173 HD
HETATM   14  H   UNL     1      42.427 -13.081   6.466  1.00  0.00     0.170 HD
ENDROOT
BRANCH  12  15
HETATM   15  N   UNL     1      42.754 -16.703   4.019  1.00  0.00    -0.332 N 
HETATM   16  C   UNL     1      43.485 -16.051   3.058  1.00  0.00     0.219 C 
HETATM   17  O   UNL     1      43.566 -14.830   2.991  1.00  0.00    -0.274 OA
HETATM   18  H   UNL     1      42.615 -17.703   3.913  1.00  0.00     0.164 HD
BRANCH  16  19
HETATM   19  C   UNL     1      44.135 -16.971   2.051  1.00  0.00     0.107 C 
BRANCH  19  20
HETATM   20  C   UNL     1      43.209 -18.147   1.743  1.00  0.00     0.047 C 
BRANCH  20  21
HETATM   21  C   UNL     1      43.717 -19.453   2.304  1.00  0.00    -0.058 A 
HETATM   22  C   UNL     1      43.514 -20.651   1.605  1.00  0.00     0.007 A 
HETATM   23  C   UNL     1      43.995 -21.858   2.114  1.00  0.00     0.001 A 
HETATM   24  C   UNL     1      44.683 -21.881   3.326  1.00  0.00     0.000 A 
HETATM   25  C   UNL     1      44.894 -20.696   4.027  1.00  0.00     0.001 A 
HETATM   26  C   UNL     1      44.416 -19.487   3.518  1.00  0.00     0.007 A 
ENDBRANCH  20  21
ENDBRANCH  19  20
ENDBRANCH  16  19
ENDBRANCH  12  15
BRANCH  12  27
HETATM   27  C   UNL     1      41.052 -16.970   5.860  1.00  0.00     0.426 C 
HETATM   28  F   UNL     1      39.951 -16.383   6.381  1.00  0.00    -0.167 F 
HETATM   29  F   UNL     1      40.627 -18.039   5.141  1.00  0.00    -0.167 F 
HETATM   30  F   UNL     1      41.775 -17.475   6.886  1.00  0.00    -0.167 F 
ENDBRANCH  12  27
BRANCH   1  31
HETATM   31  C   UNL     1      40.669 -11.332   5.072  1.00  0.00     0.045 A 
HETATM   32  C   UNL     1      40.137 -10.996   6.325  1.00  0.00     0.031 A 
HETATM   33  C   UNL     1      40.376  -9.743   6.899  1.00  0.00     0.009 A 
HETATM   34  C   UNL     1      41.136  -8.786   6.223  1.00  0.00    -0.062 A 
HETATM   35  C   UNL     1      41.421  -7.458   6.859  1.00  0.00     0.048 C 
HETATM   36  C   UNL     1      41.662  -9.107   4.968  1.00  0.00     0.009 A 
HETATM   37  C   UNL     1      41.423 -10.362   4.396  1.00  0.00     0.031 A 
ENDBRANCH   1  31
TORSDOF 6
ENDMDL
MODEL 8
REMARK VINA RESULT:      -8.8      6.246      7.665
REMARK  6 active torsions:
REMARK  status: ('A' for Active; 'I' for Inactive)
REMARK    1  A    between atoms: C_5  and  N_6 
REMARK    2  A    between atoms: C_17  and  N_18 
REMARK    3  A    between atoms: C_17  and  C_29 
REMARK       I    between atoms: N_18  and  C_19 
REMARK    4  A    between atoms: C_19  and  C_20 
REMARK    5  A    between atoms: C_20  and  C_21 
REMARK    6  A    between atoms: C_21  and  C_22 
ROOT
HETATM    1  N   UNL     1      41.017 -13.365  -2.342  1.00  0.00    -0.248 N 
HETATM    2  C   UNL     1      41.272 -14.696  -2.749  1.00  0.00     0.335 A 
HETATM    3  O   UNL     1      41.606 -15.065  -3.874  1.00  0.00    -0.246 OA
HETATM    4  N   UNL     1      41.165 -15.659  -1.765  1.00  0.00    -0.274 N 
HETATM    5  C   UNL     1      40.917 -15.458  -0.439  1.00  0.00     0.262 A 
HETATM    6  O   UNL     1      40.926 -16.347   0.400  1.00  0.00    -0.267 OA
HETATM    7  C   UNL     1      40.627 -14.085  -0.091  1.00  0.00     0.101 A 
HETATM    8  C   UNL     1      40.689 -13.130  -1.020  1.00  0.00     0.134 A 
HETATM    9  N   UNL     1      40.315 -11.952  -0.452  1.00  0.00    -0.309 N 
HETATM   10  C   UNL     1      40.057 -12.094   0.906  1.00  0.00     0.266 A 
HETATM   11  O   UNL     1      39.789 -11.176   1.664  1.00  0.00    -0.270 OA
HETATM   12  C   UNL     1      40.178 -13.587   1.250  1.00  0.00     0.249 A 
HETATM   13  H   UNL     1      41.393 -16.599  -2.053  1.00  0.00     0.173 HD
HETATM   14  H   UNL     1      40.265 -11.057  -0.917  1.00  0.00     0.170 HD
ENDROOT
BRANCH  12  15
HETATM   15  N   UNL     1      41.148 -13.874   2.323  1.00  0.00    -0.332 N 
HETATM   16  C   UNL     1      42.414 -13.345   2.365  1.00  0.00     0.219 C 
HETATM   17  O   UNL     1      42.811 -12.495   1.577  1.00  0.00    -0.274 OA
HETATM   18  H   UNL     1      40.950 -14.677   2.911  1.00  0.00     0.164 HD
BRANCH  16  19
HETATM   19  C   UNL     1      43.296 -13.947   3.435  1.00  0.00     0.107 C 
BRANCH  19  20
HETATM   20  C   UNL     1      42.629 -15.188   4.025  1.00  0.00     0.047 C 
BRANCH  20  21
HETATM   21  C   UNL     1      43.134 -16.470   3.411  1.00  0.00    -0.058 A 
HETATM   22  C   UNL     1      42.978 -17.689   4.086  1.00  0.00     0.007 A 
HETATM   23  C   UNL     1      43.432 -18.879   3.514  1.00  0.00     0.001 A 
HETATM   24  C   UNL     1      44.046 -18.863   2.263  1.00  0.00     0.000 A 
HETATM   25  C   UNL     1      44.202 -17.659   1.581  1.00  0.00     0.001 A 
HETATM   26  C   UNL     1      43.747 -16.468   2.150  1.00  0.00     0.007 A 
ENDBRANCH  20  21
ENDBRANCH  19  20
ENDBRANCH  16  19
ENDBRANCH  12  15
BRANCH  12  27
HETATM   27  C   UNL     1      38.746 -14.034   1.576  1.00  0.00     0.426 C 
HETATM   28  F   UNL     1      38.705 -15.195   2.269  1.00  0.00    -0.167 F 
HETATM   29  F   UNL     1      38.109 -13.103   2.329  1.00  0.00    -0.167 F 
HETATM   30  F   UNL     1      37.995 -14.192   0.463  1.00  0.00    -0.167 F 
ENDBRANCH  12  27
BRANCH   1  31
HETATM   31  C   UNL     1      41.115 -12.316  -3.323  1.00  0.00     0.045 A 
HETATM   32  C   UNL     1      39.967 -11.804  -3.945  1.00  0.00     0.031 A 
HETATM   33  C   UNL     1      40.051 -10.756  -4.867  1.00  0.00     0.009 A 
HETATM   34  C   UNL     1      41.290 -10.206  -5.206  1.00  0.00    -0.062 A 
HETATM   35  C   UNL     1      41.372  -9.058  -6.167  1.00  0.00     0.048 C 
HETATM   36  C   UNL     1      42.442 -10.716  -4.599  1.00  0.00     0.009 A 
HETATM   37  C   UNL     1      42.355 -11.765  -3.675  1.00  0.00     0.031 A 
ENDBRANCH   1  31
TORSDOF 6
ENDMDL
MODEL 9
REMARK VINA RESULT:      -8.7      2.927      3.553
REMARK  6 active torsions:
REMARK  status: ('A' for Active; 'I' for Inactive)
REMARK    1  A    between atoms: C_5  and  N_6 
REMARK    2  A    between atoms: C_17  and  N_18 
REMARK    3  A    between atoms: C_17  and  C_29 
REMARK       I    between atoms: N_18  and  C_19 
REMARK    4  A    between atoms: C_19  and  C_20 
REMARK    5  A    between atoms: C_20  and  C_21 
REMARK    6  A    between atoms: C_21  and  C_22 
ROOT
HETATM    1  N   UNL     1      39.697 -13.396   2.213  1.00  0.00    -0.248 N 
HETATM    2  C   UNL     1      38.751 -14.281   1.644  1.00  0.00     0.335 A 
HETATM    3  O   UNL     1      37.805 -13.973   0.920  1.00  0.00    -0.246 OA
HETATM    4  N   UNL     1      38.945 -15.623   1.909  1.00  0.00    -0.274 N 
HETATM    5  C   UNL     1      39.983 -16.187   2.590  1.00  0.00     0.262 A 
HETATM    6  O   UNL     1      40.145 -17.392   2.711  1.00  0.00    -0.267 OA
HETATM    7  C   UNL     1      40.894 -15.232   3.180  1.00  0.00     0.101 A 
HETATM    8  C   UNL     1      40.722 -13.926   2.973  1.00  0.00     0.134 A 
HETATM    9  N   UNL     1      41.667 -13.250   3.682  1.00  0.00    -0.309 N 
HETATM   10  C   UNL     1      42.540 -14.115   4.331  1.00  0.00     0.266 A 
HETATM   11  O   UNL     1      43.526 -13.767   4.961  1.00  0.00    -0.270 OA
HETATM   12  C   UNL     1      42.035 -15.548   4.099  1.00  0.00     0.249 A 
HETATM   13  H   UNL     1      38.292 -16.251   1.461  1.00  0.00     0.173 HD
HETATM   14  H   UNL     1      41.780 -12.247   3.718  1.00  0.00     0.170 HD
ENDROOT
BRANCH  12  15
HETATM   15  N   UNL     1      43.036 -16.440   3.486  1.00  0.00    -0.332 N 
HETATM   16  C   UNL     1      43.412 -16.369   2.167  1.00  0.00     0.219 C 
HETATM   17  O   UNL     1      43.035 -15.483   1.411  1.00  0.00    -0.274 OA
HETATM   18  H   UNL     1      43.268 -17.284   4.000  1.00  0.00     0.164 HD
BRANCH  16  19
HETATM   19  C   UNL     1      44.286 -17.516   1.715  1.00  0.00     0.107 C 
BRANCH  19  20
HETATM   20  C   UNL     1      43.447 -18.784   1.563  1.00  0.00     0.047 C 
BRANCH  20  21
HETATM   21  C   UNL     1      43.926 -19.911   2.445  1.00  0.00    -0.058 A 
HETATM   22  C   UNL     1      43.943 -21.228   1.966  1.00  0.00     0.007 A 
HETATM   23  C   UNL     1      44.398 -22.271   2.775  1.00  0.00     0.001 A 
HETATM   24  C   UNL     1      44.841 -22.008   4.070  1.00  0.00     0.000 A 
HETATM   25  C   UNL     1      44.832 -20.702   4.555  1.00  0.00     0.001 A 
HETATM   26  C   UNL     1      44.380 -19.658   3.747  1.00  0.00     0.007 A 
ENDBRANCH  20  21
ENDBRANCH  19  20
ENDBRANCH  16  19
ENDBRANCH  12  15
BRANCH  12  27
HETATM   27  C   UNL     1      41.547 -16.021   5.475  1.00  0.00     0.426 C 
HETATM   28  F   UNL     1      42.529 -16.027   6.406  1.00  0.00    -0.167 F 
HETATM   29  F   UNL     1      40.564 -15.212   5.945  1.00  0.00    -0.167 F 
HETATM   30  F   UNL     1      41.016 -17.264   5.429  1.00  0.00    -0.167 F 
ENDBRANCH  12  27
BRANCH   1  31
HETATM   31  C   UNL     1      39.549 -11.984   1.972  1.00  0.00     0.045 A 
HETATM   32  C   UNL     1      40.200 -11.368   0.894  1.00  0.00     0.031 A 
HETATM   33  C   UNL     1      40.028 -10.006   0.628  1.00  0.00     0.009 A 
HETATM   34  C   UNL     1      39.214  -9.220   1.449  1.00  0.00    -0.062 A 
HETATM   35  C   UNL     1      39.003  -7.769   1.138  1.00  0.00     0.048 C 
HETATM   36  C   UNL     1      38.569  -9.823   2.532  1.00  0.00     0.009 A 
HETATM   37  C   UNL     1      38.742 -11.187   2.796  1.00  0.00     0.031 A 
ENDBRANCH   1  31
TORSDOF 6
ENDMDL
MODEL 10
REMARK VINA RESULT:      -8.3      6.477      7.619
REMARK  6 active torsions:
REMARK  status: ('A' for Active; 'I' for Inactive)
REMARK    1  A    between atoms: C_5  and  N_6 
REMARK    2  A    between atoms: C_17  and  N_18 
REMARK    3  A    between atoms: C_17  and  C_29 
REMARK       I    between atoms: N_18  and  C_19 
REMARK    4  A    between atoms: C_19  and  C_20 
REMARK    5  A    between atoms: C_20  and  C_21 
REMARK    6  A    between atoms: C_21  and  C_22 
ROOT
HETATM    1  N   UNL     1      38.837 -11.213  -0.242  1.00  0.00    -0.248 N 
HETATM    2  C   UNL     1      39.616 -10.251   0.444  1.00  0.00     0.335 A 
HETATM    3  O   UNL     1      39.198  -9.245   1.014  1.00  0.00    -0.246 OA
HETATM    4  N   UNL     1      40.973 -10.502   0.498  1.00  0.00    -0.274 N 
HETATM    5  C   UNL     1      41.627 -11.605   0.033  1.00  0.00     0.262 A 
HETATM    6  O   UNL     1      42.821 -11.809   0.195  1.00  0.00    -0.267 OA
HETATM    7  C   UNL     1      40.786 -12.531  -0.691  1.00  0.00     0.101 A 
HETATM    8  C   UNL     1      39.475 -12.309  -0.793  1.00  0.00     0.134 A 
HETATM    9  N   UNL     1      38.932 -13.286  -1.567  1.00  0.00    -0.309 N 
HETATM   10  C   UNL     1      39.879 -14.230  -1.946  1.00  0.00     0.266 A 
HETATM   11  O   UNL     1      39.635 -15.251  -2.568  1.00  0.00    -0.270 OA
HETATM   12  C   UNL     1      41.246 -13.748  -1.436  1.00  0.00     0.249 A 
HETATM   13  H   UNL     1      41.515  -9.835   1.028  1.00  0.00     0.173 HD
HETATM   14  H   UNL     1      37.957 -13.373  -1.818  1.00  0.00     0.170 HD
ENDROOT
BRANCH  12  15
HETATM   15  N   UNL     1      41.937 -14.724  -0.572  1.00  0.00    -0.332 N 
HETATM   16  C   UNL     1      41.361 -15.304   0.531  1.00  0.00     0.219 C 
HETATM   17  O   UNL     1      40.183 -15.151   0.830  1.00  0.00    -0.274 OA
HETATM   18  H   UNL     1      42.946 -14.776  -0.663  1.00  0.00     0.164 HD
BRANCH  16  19
HETATM   19  C   UNL     1      42.325 -16.100   1.380  1.00  0.00     0.107 C 
BRANCH  19  20
HETATM   20  C   UNL     1      41.892 -17.564   1.429  1.00  0.00     0.047 C 
BRANCH  20  21
HETATM   21  C   UNL     1      42.801 -18.415   2.281  1.00  0.00    -0.058 A 
HETATM   22  C   UNL     1      43.341 -19.605   1.773  1.00  0.00     0.007 A 
HETATM   23  C   UNL     1      44.194 -20.386   2.553  1.00  0.00     0.001 A 
HETATM   24  C   UNL     1      44.516 -19.988   3.850  1.00  0.00     0.000 A 
HETATM   25  C   UNL     1      43.989 -18.805   4.364  1.00  0.00     0.001 A 
HETATM   26  C   UNL     1      43.138 -18.021   3.584  1.00  0.00     0.007 A 
ENDBRANCH  20  21
ENDBRANCH  19  20
ENDBRANCH  16  19
ENDBRANCH  12  15
BRANCH  12  27
HETATM   27  C   UNL     1      42.032 -13.380  -2.703  1.00  0.00     0.426 C 
HETATM   28  F   UNL     1      42.129 -14.410  -3.575  1.00  0.00    -0.167 F 
HETATM   29  F   UNL     1      41.433 -12.359  -3.364  1.00  0.00    -0.167 F 
HETATM   30  F   UNL     1      43.285 -12.959  -2.421  1.00  0.00    -0.167 F 
ENDBRANCH  12  27
BRANCH   1  31
HETATM   31  C   UNL     1      37.415 -11.009  -0.332  1.00  0.00     0.045 A 
HETATM   32  C   UNL     1      36.852 -10.343  -1.430  1.00  0.00     0.031 A 
HETATM   33  C   UNL     1      35.468 -10.179  -1.544  1.00  0.00     0.009 A 
HETATM   34  C   UNL     1      34.612 -10.659  -0.549  1.00  0.00    -0.062 A 
HETATM   35  C   UNL     1      33.127 -10.513  -0.694  1.00  0.00     0.048 C 
HETATM   36  C   UNL     1      35.164 -11.314   0.555  1.00  0.00     0.009 A 
HETATM   37  C   UNL     1      36.550 -11.479   0.666  1.00  0.00     0.031 A 
ENDBRANCH   1  31
TORSDOF 6
ENDMDL
