MODEL 1
REMARK VINA RESULT:      -8.1      0.000      0.000
REMARK  6 active torsions:
REMARK  status: ('A' for Active; 'I' for Inactive)
REMARK    1  A    between atoms: C_2  and  N_3 
REMARK    2  A    between atoms: C_5  and  C_6 
REMARK    3  A    between atoms: C_6  and  N_7 
REMARK       I    between atoms: N_7  and  C_8 
REMARK    4  A    between atoms: C_8  and  C_9 
REMARK    5  A    between atoms: C_9  and  C_10 
REMARK    6  A    between atoms: C_11  and  C_12 
ROOT
HETATM    1  C   UNL     1      42.764 -15.776   4.142  1.00  0.00     0.005 A 
HETATM    2  C   UNL     1      42.947 -17.106   4.527  1.00  0.00     0.069 A 
HETATM    3  N   UNL     1      42.580 -17.134   5.854  1.00  0.00    -0.277 N 
HETATM    4  H   UNL     1      42.587 -17.929   6.483  1.00  0.00     0.189 HD
HETATM    5  N   UNL     1      42.185 -15.957   6.347  1.00  0.00    -0.179 NA
HETATM    6  C   UNL     1      42.208 -15.139   5.296  1.00  0.00     0.059 A 
HETATM    7  C   UNL     1      41.701 -13.750   5.455  1.00  0.00     0.073 C 
ENDROOT
BRANCH   1   8
HETATM    8  C   UNL     1      43.023 -15.115   2.825  1.00  0.00     0.146 C 
BRANCH   8   9
HETATM    9  C   UNL     1      41.903 -15.421   1.838  1.00  0.00     0.222 C 
HETATM   10  N   UNL     1      42.281 -15.732   0.552  1.00  0.00    -0.359 N 
HETATM   11  H   UNL     1      43.240 -15.538   0.281  1.00  0.00     0.162 HD
HETATM   12  O   UNL     1      40.714 -15.484   2.157  1.00  0.00    -0.273 OA
BRANCH  10  13
HETATM   13  C   UNL     1      41.317 -16.002  -0.510  1.00  0.00     0.155 C 
BRANCH  13  14
HETATM   14  C   UNL     1      40.851 -14.778  -1.349  1.00  0.00     0.206 C 
HETATM   15  N   UNL     1      39.330 -14.612  -1.323  1.00  0.00    -0.066 N 
HETATM   16  H   UNL     1      38.946 -15.488  -0.908  1.00  0.00     0.280 HD
HETATM   17  C   UNL     1      38.846 -14.573  -2.751  1.00  0.00     0.235 C 
HETATM   18  C   UNL     1      39.924 -15.302  -3.521  1.00  0.00     0.030 C 
HETATM   19  C   UNL     1      41.202 -14.866  -2.834  1.00  0.00     0.036 C 
BRANCH  15  20
HETATM   20  C   UNL     1      38.836 -13.502  -0.443  1.00  0.00     0.231 C 
HETATM   21  C   UNL     1      37.807 -14.021   0.544  1.00  0.00     0.034 C 
ENDBRANCH  15  20
ENDBRANCH  13  14
ENDBRANCH  10  13
ENDBRANCH   8   9
ENDBRANCH   1   8
BRANCH   2  22
HETATM   22  C   UNL     1      43.395 -18.328   3.841  1.00  0.00    -0.007 A 
HETATM   23  C   UNL     1      44.370 -19.171   4.386  1.00  0.00     0.015 A 
HETATM   24  C   UNL     1      44.768 -20.344   3.733  1.00  0.00     0.024 A 
HETATM   25  C   UNL     1      44.186 -20.693   2.520  1.00  0.00     0.034 A 
HETATM   26 CL   UNL     1      44.662 -22.141   1.728  1.00  0.00    -0.084 Cl
HETATM   27  C   UNL     1      43.220 -19.872   1.952  1.00  0.00     0.024 A 
HETATM   28  C   UNL     1      42.832 -18.696   2.605  1.00  0.00     0.015 A 
ENDBRANCH   2  22
TORSDOF 6
ENDMDL
MODEL 2
REMARK VINA RESULT:      -7.7      1.534      2.257
REMARK  6 active torsions:
REMARK  status: ('A' for Active; 'I' for Inactive)
REMARK    1  A    between atoms: C_2  and  N_3 
REMARK    2  A    between atoms: C_5  and  C_6 
REMARK    3  A    between atoms: C_6  and  N_7 
REMARK       I    between atoms: N_7  and  C_8 
REMARK    4  A    between atoms: C_8  and  C_9 
REMARK    5  A    between atoms: C_9  and  C_10 
REMARK    6  A    between atoms: C_11  and  C_12 
ROOT
HETATM    1  C   UNL     1      42.711 -15.676   4.529  1.00  0.00     0.005 A 
HETATM    2  C   UNL     1      42.520 -17.056   4.631  1.00  0.00     0.069 A 
HETATM    3  N   UNL     1      41.568 -17.200   5.616  1.00  0.00    -0.277 N 
HETATM    4  H   UNL     1      41.177 -18.061   5.979  1.00  0.00     0.189 HD
HETATM    5  N   UNL     1      41.140 -16.052   6.147  1.00  0.00    -0.179 NA
HETATM    6  C   UNL     1      41.760 -15.111   5.436  1.00  0.00     0.059 A 
HETATM    7  C   UNL     1      41.419 -13.685   5.679  1.00  0.00     0.073 C 
ENDROOT
BRANCH   1   8
HETATM    8  C   UNL     1      43.644 -14.900   3.653  1.00  0.00     0.146 C 
BRANCH   8   9
HETATM    9  C   UNL     1      42.905 -14.333   2.447  1.00  0.00     0.222 C 
HETATM   10  N   UNL     1      42.314 -15.245   1.601  1.00  0.00    -0.359 N 
HETATM   11  H   UNL     1      42.574 -16.220   1.702  1.00  0.00     0.162 HD
HETATM   12  O   UNL     1      42.747 -13.127   2.250  1.00  0.00    -0.273 OA
BRANCH  10  13
HETATM   13  C   UNL     1      41.613 -14.851   0.383  1.00  0.00     0.155 C 
BRANCH  13  14
HETATM   14  C   UNL     1      40.084 -14.598   0.517  1.00  0.00     0.206 C 
HETATM   15  N   UNL     1      39.764 -13.116   0.724  1.00  0.00    -0.066 N 
HETATM   16  H   UNL     1      40.672 -12.646   0.930  1.00  0.00     0.280 HD
HETATM   17  C   UNL     1      38.932 -12.995   1.976  1.00  0.00     0.235 C 
HETATM   18  C   UNL     1      39.288 -14.230   2.771  1.00  0.00     0.030 C 
HETATM   19  C   UNL     1      39.435 -15.301   1.710  1.00  0.00     0.036 C 
BRANCH  15  20
HETATM   20  C   UNL     1      39.217 -12.419  -0.485  1.00  0.00     0.231 C 
HETATM   21  C   UNL     1      38.610 -13.420  -1.451  1.00  0.00     0.034 C 
ENDBRANCH  15  20
ENDBRANCH  13  14
ENDBRANCH  10  13
ENDBRANCH   8   9
ENDBRANCH   1   8
BRANCH   2  22
HETATM   22  C   UNL     1      43.081 -18.230   3.945  1.00  0.00    -0.007 A 
HETATM   23  C   UNL     1      44.045 -19.049   4.543  1.00  0.00     0.015 A 
HETATM   24  C   UNL     1      44.551 -20.178   3.887  1.00  0.00     0.024 A 
HETATM   25  C   UNL     1      44.091 -20.507   2.618  1.00  0.00     0.034 A 
HETATM   26 CL   UNL     1      44.699 -21.902   1.821  1.00  0.00    -0.084 Cl
HETATM   27  C   UNL     1      43.139 -19.708   1.996  1.00  0.00     0.024 A 
HETATM   28  C   UNL     1      42.643 -18.576   2.653  1.00  0.00     0.015 A 
ENDBRANCH   2  22
TORSDOF 6
ENDMDL
MODEL 3
REMARK VINA RESULT:      -7.7      1.914      5.997
REMARK  6 active torsions:
REMARK  status: ('A' for Active; 'I' for Inactive)
REMARK    1  A    between atoms: C_2  and  N_3 
REMARK    2  A    between atoms: C_5  and  C_6 
REMARK    3  A    between atoms: C_6  and  N_7 
REMARK       I    between atoms: N_7  and  C_8 
REMARK    4  A    between atoms: C_8  and  C_9 
REMARK    5  A    between atoms: C_9  and  C_10 
REMARK    6  A    between atoms: C_11  and  C_12 
ROOT
HETATM    1  C   UNL     1      41.644 -14.562   0.725  1.00  0.00     0.005 A 
HETATM    2  C   UNL     1      41.820 -15.905   0.382  1.00  0.00     0.069 A 
HETATM    3  N   UNL     1      41.221 -16.026  -0.852  1.00  0.00    -0.277 N 
HETATM    4  H   UNL     1      41.137 -16.860  -1.421  1.00  0.00     0.189 HD
HETATM    5  N   UNL     1      40.684 -14.897  -1.323  1.00  0.00    -0.179 NA
HETATM    6  C   UNL     1      41.009 -13.977  -0.416  1.00  0.00     0.059 A 
HETATM    7  C   UNL     1      40.672 -12.554  -0.683  1.00  0.00     0.073 C 
ENDROOT
BRANCH   1   8
HETATM    8  C   UNL     1      42.050 -13.828   1.965  1.00  0.00     0.146 C 
BRANCH   8   9
HETATM    9  C   UNL     1      41.195 -14.260   3.151  1.00  0.00     0.222 C 
HETATM   10  N   UNL     1      41.727 -14.048   4.403  1.00  0.00    -0.359 N 
HETATM   11  H   UNL     1      42.714 -13.821   4.465  1.00  0.00     0.162 HD
HETATM   12  O   UNL     1      40.049 -14.698   3.040  1.00  0.00    -0.273 OA
BRANCH  10  13
HETATM   13  C   UNL     1      41.043 -14.451   5.628  1.00  0.00     0.155 C 
BRANCH  13  14
HETATM   14  C   UNL     1      41.584 -15.728   6.332  1.00  0.00     0.206 C 
HETATM   15  N   UNL     1      43.038 -16.018   5.957  1.00  0.00    -0.066 N 
HETATM   16  H   UNL     1      43.263 -15.395   5.151  1.00  0.00     0.280 HD
HETATM   17  C   UNL     1      43.107 -17.430   5.432  1.00  0.00     0.235 C 
HETATM   18  C   UNL     1      41.703 -17.706   4.945  1.00  0.00     0.030 C 
HETATM   19  C   UNL     1      40.832 -17.009   5.970  1.00  0.00     0.036 C 
BRANCH  15  20
HETATM   20  C   UNL     1      44.040 -15.674   7.020  1.00  0.00     0.231 C 
HETATM   21  C   UNL     1      44.664 -14.318   6.747  1.00  0.00     0.034 C 
ENDBRANCH  15  20
ENDBRANCH  13  14
ENDBRANCH  10  13
ENDBRANCH   8   9
ENDBRANCH   1   8
BRANCH   2  22
HETATM   22  C   UNL     1      42.464 -17.059   1.026  1.00  0.00    -0.007 A 
HETATM   23  C   UNL     1      41.766 -18.240   1.304  1.00  0.00     0.015 A 
HETATM   24  C   UNL     1      42.400 -19.340   1.894  1.00  0.00     0.024 A 
HETATM   25  C   UNL     1      43.751 -19.274   2.212  1.00  0.00     0.034 A 
HETATM   26 CL   UNL     1      44.532 -20.630   2.920  1.00  0.00    -0.084 Cl
HETATM   27  C   UNL     1      44.468 -18.112   1.955  1.00  0.00     0.024 A 
HETATM   28  C   UNL     1      43.828 -17.012   1.372  1.00  0.00     0.015 A 
ENDBRANCH   2  22
TORSDOF 6
ENDMDL
MODEL 4
REMARK VINA RESULT:      -7.6      4.137      7.881
REMARK  6 active torsions:
REMARK  status: ('A' for Active; 'I' for Inactive)
REMARK    1  A    between atoms: C_2  and  N_3 
REMARK    2  A    between atoms: C_5  and  C_6 
REMARK    3  A    between atoms: C_6  and  N_7 
REMARK       I    between atoms: N_7  and  C_8 
REMARK    4  A    between atoms: C_8  and  C_9 
REMARK    5  A    between atoms: C_9  and  C_10 
REMARK    6  A    between atoms: C_11  and  C_12 
ROOT
HETATM    1  C   UNL     1      42.319 -14.640   5.398  1.00  0.00     0.005 A 
HETATM    2  C   UNL     1      41.932 -15.901   4.938  1.00  0.00     0.069 A 
HETATM    3  N   UNL     1      40.556 -15.880   4.992  1.00  0.00    -0.277 N 
HETATM    4  H   UNL     1      39.915 -16.625   4.744  1.00  0.00     0.189 HD
HETATM    5  N   UNL     1      40.035 -14.736   5.441  1.00  0.00    -0.179 NA
HETATM    6  C   UNL     1      41.090 -13.940   5.610  1.00  0.00     0.059 A 
HETATM    7  C   UNL     1      40.865 -12.520   5.991  1.00  0.00     0.073 C 
ENDROOT
BRANCH   1   8
HETATM    8  C   UNL     1      43.688 -14.071   5.599  1.00  0.00     0.146 C 
BRANCH   8   9
HETATM    9  C   UNL     1      44.062 -14.073   7.077  1.00  0.00     0.222 C 
HETATM   10  N   UNL     1      43.977 -12.868   7.736  1.00  0.00    -0.359 N 
HETATM   11  H   UNL     1      43.880 -12.028   7.175  1.00  0.00     0.162 HD
HETATM   12  O   UNL     1      44.347 -15.094   7.705  1.00  0.00    -0.273 OA
BRANCH  10  13
HETATM   13  C   UNL     1      44.346 -12.709   9.139  1.00  0.00     0.155 C 
BRANCH  13  14
HETATM   14  C   UNL     1      43.812 -11.436   9.855  1.00  0.00     0.206 C 
HETATM   15  N   UNL     1      42.813 -11.778  10.961  1.00  0.00    -0.066 N 
HETATM   16  H   UNL     1      42.571 -12.784  10.839  1.00  0.00     0.280 HD
HETATM   17  C   UNL     1      41.546 -11.003  10.694  1.00  0.00     0.235 C 
HETATM   18  C   UNL     1      41.588 -10.739   9.206  1.00  0.00     0.030 C 
HETATM   19  C   UNL     1      43.056 -10.473   8.939  1.00  0.00     0.036 C 
BRANCH  15  20
HETATM   20  C   UNL     1      43.357 -11.663  12.355  1.00  0.00     0.231 C 
HETATM   21  C   UNL     1      42.860 -10.393  13.020  1.00  0.00     0.034 C 
ENDBRANCH  15  20
ENDBRANCH  13  14
ENDBRANCH  10  13
ENDBRANCH   8   9
ENDBRANCH   1   8
BRANCH   2  22
HETATM   22  C   UNL     1      42.652 -17.089   4.454  1.00  0.00    -0.007 A 
HETATM   23  C   UNL     1      43.431 -17.882   5.305  1.00  0.00     0.015 A 
HETATM   24  C   UNL     1      44.090 -19.025   4.836  1.00  0.00     0.024 A 
HETATM   25  C   UNL     1      43.972 -19.395   3.501  1.00  0.00     0.034 A 
HETATM   26 CL   UNL     1      44.767 -20.806   2.930  1.00  0.00    -0.084 Cl
HETATM   27  C   UNL     1      43.212 -18.622   2.632  1.00  0.00     0.024 A 
HETATM   28  C   UNL     1      42.562 -17.476   3.105  1.00  0.00     0.015 A 
ENDBRANCH   2  22
TORSDOF 6
ENDMDL
MODEL 5
REMARK VINA RESULT:      -7.5      2.845      6.271
REMARK  6 active torsions:
REMARK  status: ('A' for Active; 'I' for Inactive)
REMARK    1  A    between atoms: C_2  and  N_3 
REMARK    2  A    between atoms: C_5  and  C_6 
REMARK    3  A    between atoms: C_6  and  N_7 
REMARK       I    between atoms: N_7  and  C_8 
REMARK    4  A    between atoms: C_8  and  C_9 
REMARK    5  A    between atoms: C_9  and  C_10 
REMARK    6  A    between atoms: C_11  and  C_12 
ROOT
HETATM    1  C   UNL     1      41.154 -14.751   2.287  1.00  0.00     0.005 A 
HETATM    2  C   UNL     1      40.780 -15.043   3.601  1.00  0.00     0.069 A 
HETATM    3  N   UNL     1      39.447 -14.704   3.662  1.00  0.00    -0.277 N 
HETATM    4  H   UNL     1      38.828 -14.766   4.462  1.00  0.00     0.189 HD
HETATM    5  N   UNL     1      38.942 -14.226   2.522  1.00  0.00    -0.179 NA
HETATM    6  C   UNL     1      39.944 -14.330   1.651  1.00  0.00     0.059 A 
HETATM    7  C   UNL     1      39.694 -13.997   0.224  1.00  0.00     0.073 C 
ENDROOT
BRANCH   1   8
HETATM    8  C   UNL     1      42.488 -14.876   1.619  1.00  0.00     0.146 C 
BRANCH   8   9
HETATM    9  C   UNL     1      42.796 -16.334   1.299  1.00  0.00     0.222 C 
HETATM   10  N   UNL     1      43.820 -16.919   2.009  1.00  0.00    -0.359 N 
HETATM   11  H   UNL     1      44.436 -16.310   2.538  1.00  0.00     0.162 HD
HETATM   12  O   UNL     1      42.131 -17.014   0.515  1.00  0.00    -0.273 OA
BRANCH  10  13
HETATM   13  C   UNL     1      44.256 -18.292   1.778  1.00  0.00     0.155 C 
BRANCH  13  14
HETATM   14  C   UNL     1      43.650 -19.377   2.714  1.00  0.00     0.206 C 
HETATM   15  N   UNL     1      44.655 -19.854   3.764  1.00  0.00    -0.066 N 
HETATM   16  H   UNL     1      45.584 -19.480   3.473  1.00  0.00     0.280 HD
HETATM   17  C   UNL     1      44.753 -21.356   3.659  1.00  0.00     0.235 C 
HETATM   18  C   UNL     1      44.326 -21.651   2.240  1.00  0.00     0.030 C 
HETATM   19  C   UNL     1      43.213 -20.653   1.993  1.00  0.00     0.036 C 
BRANCH  15  20
HETATM   20  C   UNL     1      44.421 -19.317   5.145  1.00  0.00     0.231 C 
HETATM   21  C   UNL     1      44.025 -20.435   6.092  1.00  0.00     0.034 C 
ENDBRANCH  15  20
ENDBRANCH  13  14
ENDBRANCH  10  13
ENDBRANCH   8   9
ENDBRANCH   1   8
BRANCH   2  22
HETATM   22  C   UNL     1      41.476 -15.593   4.774  1.00  0.00    -0.007 A 
HETATM   23  C   UNL     1      42.654 -15.025   5.273  1.00  0.00     0.015 A 
HETATM   24  C   UNL     1      43.290 -15.545   6.407  1.00  0.00     0.024 A 
HETATM   25  C   UNL     1      42.749 -16.644   7.064  1.00  0.00     0.034 A 
HETATM   26 CL   UNL     1      43.521 -17.270   8.464  1.00  0.00    -0.084 Cl
HETATM   27  C   UNL     1      41.585 -17.233   6.587  1.00  0.00     0.024 A 
HETATM   28  C   UNL     1      40.957 -16.715   5.448  1.00  0.00     0.015 A 
ENDBRANCH   2  22
TORSDOF 6
ENDMDL
MODEL 6
REMARK VINA RESULT:      -7.5      1.107      2.143
REMARK  6 active torsions:
REMARK  status: ('A' for Active; 'I' for Inactive)
REMARK    1  A    between atoms: C_2  and  N_3 
REMARK    2  A    between atoms: C_5  and  C_6 
REMARK    3  A    between atoms: C_6  and  N_7 
REMARK       I    between atoms: N_7  and  C_8 
REMARK    4  A    between atoms: C_8  and  C_9 
REMARK    5  A    between atoms: C_9  and  C_10 
REMARK    6  A    between atoms: C_11  and  C_12 
ROOT
HETATM    1  C   UNL     1      43.148 -15.742   4.133  1.00  0.00     0.005 A 
HETATM    2  C   UNL     1      43.366 -17.061   4.536  1.00  0.00     0.069 A 
HETATM    3  N   UNL     1      43.311 -17.014   5.911  1.00  0.00    -0.277 N 
HETATM    4  H   UNL     1      43.433 -17.781   6.563  1.00  0.00     0.189 HD
HETATM    5  N   UNL     1      43.081 -15.800   6.417  1.00  0.00    -0.179 NA
HETATM    6  C   UNL     1      42.892 -15.030   5.346  1.00  0.00     0.059 A 
HETATM    7  C   UNL     1      42.485 -13.614   5.543  1.00  0.00     0.073 C 
ENDROOT
BRANCH   1   8
HETATM    8  C   UNL     1      43.123 -15.151   2.758  1.00  0.00     0.146 C 
BRANCH   8   9
HETATM    9  C   UNL     1      41.701 -15.119   2.210  1.00  0.00     0.222 C 
HETATM   10  N   UNL     1      41.491 -14.357   1.083  1.00  0.00    -0.359 N 
HETATM   11  H   UNL     1      42.221 -13.708   0.808  1.00  0.00     0.162 HD
HETATM   12  O   UNL     1      40.778 -15.793   2.672  1.00  0.00    -0.273 OA
BRANCH  10  13
HETATM   13  C   UNL     1      40.174 -14.196   0.474  1.00  0.00     0.155 C 
BRANCH  13  14
HETATM   14  C   UNL     1      40.150 -13.913  -1.055  1.00  0.00     0.206 C 
HETATM   15  N   UNL     1      41.350 -14.533  -1.772  1.00  0.00    -0.066 N 
HETATM   16  H   UNL     1      42.015 -14.833  -1.027  1.00  0.00     0.280 HD
HETATM   17  C   UNL     1      42.044 -13.438  -2.543  1.00  0.00     0.235 C 
HETATM   18  C   UNL     1      41.652 -12.174  -1.812  1.00  0.00     0.030 C 
HETATM   19  C   UNL     1      40.211 -12.429  -1.419  1.00  0.00     0.036 C 
BRANCH  15  20
HETATM   20  C   UNL     1      41.040 -15.775  -2.554  1.00  0.00     0.231 C 
HETATM   21  C   UNL     1      39.925 -15.515  -3.550  1.00  0.00     0.034 C 
ENDBRANCH  15  20
ENDBRANCH  13  14
ENDBRANCH  10  13
ENDBRANCH   8   9
ENDBRANCH   1   8
BRANCH   2  22
HETATM   22  C   UNL     1      43.602 -18.331   3.832  1.00  0.00    -0.007 A 
HETATM   23  C   UNL     1      43.001 -18.620   2.601  1.00  0.00     0.015 A 
HETATM   24  C   UNL     1      43.255 -19.823   1.930  1.00  0.00     0.024 A 
HETATM   25  C   UNL     1      44.125 -20.755   2.483  1.00  0.00     0.034 A 
HETATM   26 CL   UNL     1      44.451 -22.222   1.652  1.00  0.00    -0.084 Cl
HETATM   27  C   UNL     1      44.732 -20.498   3.707  1.00  0.00     0.024 A 
HETATM   28  C   UNL     1      44.467 -19.297   4.377  1.00  0.00     0.015 A 
ENDBRANCH   2  22
TORSDOF 6
ENDMDL
MODEL 7
REMARK VINA RESULT:      -7.4      1.539      2.322
REMARK  6 active torsions:
REMARK  status: ('A' for Active; 'I' for Inactive)
REMARK    1  A    between atoms: C_2  and  N_3 
REMARK    2  A    between atoms: C_5  and  C_6 
REMARK    3  A    between atoms: C_6  and  N_7 
REMARK       I    between atoms: N_7  and  C_8 
REMARK    4  A    between atoms: C_8  and  C_9 
REMARK    5  A    between atoms: C_9  and  C_10 
REMARK    6  A    between atoms: C_11  and  C_12 
ROOT
HETATM    1  C   UNL     1      41.224 -16.107   3.541  1.00  0.00     0.005 A 
HETATM    2  C   UNL     1      42.275 -16.906   3.998  1.00  0.00     0.069 A 
HETATM    3  N   UNL     1      42.692 -16.295   5.159  1.00  0.00    -0.277 N 
HETATM    4  H   UNL     1      43.446 -16.581   5.773  1.00  0.00     0.189 HD
HETATM    5  N   UNL     1      42.013 -15.191   5.481  1.00  0.00    -0.179 NA
HETATM    6  C   UNL     1      41.060 -15.111   4.554  1.00  0.00     0.059 A 
HETATM    7  C   UNL     1      40.026 -14.050   4.678  1.00  0.00     0.073 C 
ENDROOT
BRANCH   1   8
HETATM    8  C   UNL     1      40.387 -16.237   2.307  1.00  0.00     0.146 C 
BRANCH   8   9
HETATM    9  C   UNL     1      41.104 -15.637   1.103  1.00  0.00     0.222 C 
HETATM   10  N   UNL     1      40.563 -15.908  -0.134  1.00  0.00    -0.359 N 
HETATM   11  H   UNL     1      39.866 -16.642  -0.195  1.00  0.00     0.162 HD
HETATM   12  O   UNL     1      42.067 -14.874   1.195  1.00  0.00    -0.273 OA
BRANCH  10  13
HETATM   13  C   UNL     1      41.167 -15.439  -1.378  1.00  0.00     0.155 C 
BRANCH  13  14
HETATM   14  C   UNL     1      40.779 -14.005  -1.837  1.00  0.00     0.206 C 
HETATM   15  N   UNL     1      41.590 -12.931  -1.110  1.00  0.00    -0.066 N 
HETATM   16  H   UNL     1      42.076 -13.413  -0.323  1.00  0.00     0.280 HD
HETATM   17  C   UNL     1      40.617 -11.966  -0.479  1.00  0.00     0.235 C 
HETATM   18  C   UNL     1      39.353 -12.779  -0.315  1.00  0.00     0.030 C 
HETATM   19  C   UNL     1      39.321 -13.633  -1.566  1.00  0.00     0.036 C 
BRANCH  15  20
HETATM   20  C   UNL     1      42.679 -12.305  -1.930  1.00  0.00     0.231 C 
HETATM   21  C   UNL     1      42.260 -12.205  -3.386  1.00  0.00     0.034 C 
ENDBRANCH  15  20
ENDBRANCH  13  14
ENDBRANCH  10  13
ENDBRANCH   8   9
ENDBRANCH   1   8
BRANCH   2  22
HETATM   22  C   UNL     1      42.919 -18.138   3.518  1.00  0.00    -0.007 A 
HETATM   23  C   UNL     1      43.826 -18.857   4.305  1.00  0.00     0.015 A 
HETATM   24  C   UNL     1      44.412 -20.042   3.844  1.00  0.00     0.024 A 
HETATM   25  C   UNL     1      44.091 -20.530   2.583  1.00  0.00     0.034 A 
HETATM   26 CL   UNL     1      44.797 -21.993   2.024  1.00  0.00    -0.084 Cl
HETATM   27  C   UNL     1      43.199 -19.833   1.776  1.00  0.00     0.024 A 
HETATM   28  C   UNL     1      42.623 -18.644   2.239  1.00  0.00     0.015 A 
ENDBRANCH   2  22
TORSDOF 6
ENDMDL
MODEL 8
REMARK VINA RESULT:      -7.4      1.336      1.763
REMARK  6 active torsions:
REMARK  status: ('A' for Active; 'I' for Inactive)
REMARK    1  A    between atoms: C_2  and  N_3 
REMARK    2  A    between atoms: C_5  and  C_6 
REMARK    3  A    between atoms: C_6  and  N_7 
REMARK       I    between atoms: N_7  and  C_8 
REMARK    4  A    between atoms: C_8  and  C_9 
REMARK    5  A    between atoms: C_9  and  C_10 
REMARK    6  A    between atoms: C_11  and  C_12 
ROOT
HETATM    1  C   UNL     1      42.634 -15.566   4.128  1.00  0.00     0.005 A 
HETATM    2  C   UNL     1      42.540 -16.935   4.394  1.00  0.00     0.069 A 
HETATM    3  N   UNL     1      41.721 -17.015   5.498  1.00  0.00    -0.277 N 
HETATM    4  H   UNL     1      41.428 -17.849   5.993  1.00  0.00     0.189 HD
HETATM    5  N   UNL     1      41.289 -15.837   5.957  1.00  0.00    -0.179 NA
HETATM    6  C   UNL     1      41.764 -14.952   5.082  1.00  0.00     0.059 A 
HETATM    7  C   UNL     1      41.367 -13.525   5.217  1.00  0.00     0.073 C 
ENDROOT
BRANCH   1   8
HETATM    8  C   UNL     1      43.408 -14.847   3.068  1.00  0.00     0.146 C 
BRANCH   8   9
HETATM    9  C   UNL     1      42.471 -14.256   2.022  1.00  0.00     0.222 C 
HETATM   10  N   UNL     1      41.584 -15.124   1.428  1.00  0.00    -0.359 N 
HETATM   11  H   UNL     1      41.739 -16.119   1.556  1.00  0.00     0.162 HD
HETATM   12  O   UNL     1      42.419 -13.053   1.756  1.00  0.00    -0.273 OA
BRANCH  10  13
HETATM   13  C   UNL     1      40.658 -14.710   0.378  1.00  0.00     0.155 C 
BRANCH  13  14
HETATM   14  C   UNL     1      41.269 -14.492  -1.035  1.00  0.00     0.206 C 
HETATM   15  N   UNL     1      40.724 -13.231  -1.707  1.00  0.00    -0.066 N 
HETATM   16  H   UNL     1      39.911 -12.920  -1.133  1.00  0.00     0.280 HD
HETATM   17  C   UNL     1      40.166 -13.628  -3.051  1.00  0.00     0.235 C 
HETATM   18  C   UNL     1      39.837 -15.094  -2.889  1.00  0.00     0.030 C 
HETATM   19  C   UNL     1      40.969 -15.616  -2.028  1.00  0.00     0.036 C 
BRANCH  15  20
HETATM   20  C   UNL     1      41.672 -12.068  -1.720  1.00  0.00     0.231 C 
HETATM   21  C   UNL     1      42.814 -12.320  -2.688  1.00  0.00     0.034 C 
ENDBRANCH  15  20
ENDBRANCH  13  14
ENDBRANCH  10  13
ENDBRANCH   8   9
ENDBRANCH   1   8
BRANCH   2  22
HETATM   22  C   UNL     1      43.087 -18.148   3.768  1.00  0.00    -0.007 A 
HETATM   23  C   UNL     1      43.986 -18.988   4.436  1.00  0.00     0.015 A 
HETATM   24  C   UNL     1      44.478 -20.153   3.837  1.00  0.00     0.024 A 
HETATM   25  C   UNL     1      44.070 -20.499   2.554  1.00  0.00     0.034 A 
HETATM   26 CL   UNL     1      44.660 -21.938   1.826  1.00  0.00    -0.084 Cl
HETATM   27  C   UNL     1      43.184 -19.681   1.864  1.00  0.00     0.024 A 
HETATM   28  C   UNL     1      42.701 -18.512   2.465  1.00  0.00     0.015 A 
ENDBRANCH   2  22
TORSDOF 6
ENDMDL
MODEL 9
REMARK VINA RESULT:      -7.4      2.856      4.542
REMARK  6 active torsions:
REMARK  status: ('A' for Active; 'I' for Inactive)
REMARK    1  A    between atoms: C_2  and  N_3 
REMARK    2  A    between atoms: C_5  and  C_6 
REMARK    3  A    between atoms: C_6  and  N_7 
REMARK       I    between atoms: N_7  and  C_8 
REMARK    4  A    between atoms: C_8  and  C_9 
REMARK    5  A    between atoms: C_9  and  C_10 
REMARK    6  A    between atoms: C_11  and  C_12 
ROOT
HETATM    1  C   UNL     1      44.044 -18.790   2.863  1.00  0.00     0.005 A 
HETATM    2  C   UNL     1      43.943 -18.435   4.211  1.00  0.00     0.069 A 
HETATM    3  N   UNL     1      43.924 -19.637   4.882  1.00  0.00    -0.277 N 
HETATM    4  H   UNL     1      43.849 -19.787   5.882  1.00  0.00     0.189 HD
HETATM    5  N   UNL     1      44.000 -20.714   4.097  1.00  0.00    -0.179 NA
HETATM    6  C   UNL     1      44.162 -20.215   2.872  1.00  0.00     0.059 A 
HETATM    7  C   UNL     1      44.409 -21.150   1.743  1.00  0.00     0.073 C 
ENDROOT
BRANCH   1   8
HETATM    8  C   UNL     1      44.077 -17.923   1.643  1.00  0.00     0.146 C 
BRANCH   8   9
HETATM    9  C   UNL     1      42.666 -17.537   1.217  1.00  0.00     0.222 C 
HETATM   10  N   UNL     1      42.559 -16.568   0.245  1.00  0.00    -0.359 N 
HETATM   11  H   UNL     1      43.387 -16.027   0.024  1.00  0.00     0.162 HD
HETATM   12  O   UNL     1      41.652 -18.101   1.632  1.00  0.00    -0.273 OA
BRANCH  10  13
HETATM   13  C   UNL     1      41.273 -16.066  -0.229  1.00  0.00     0.155 C 
BRANCH  13  14
HETATM   14  C   UNL     1      40.696 -14.829   0.516  1.00  0.00     0.206 C 
HETATM   15  N   UNL     1      39.537 -15.205   1.440  1.00  0.00    -0.066 N 
HETATM   16  H   UNL     1      39.273 -16.184   1.197  1.00  0.00     0.280 HD
HETATM   17  C   UNL     1      38.355 -14.344   1.071  1.00  0.00     0.235 C 
HETATM   18  C   UNL     1      38.619 -13.961  -0.367  1.00  0.00     0.030 C 
HETATM   19  C   UNL     1      40.119 -13.755  -0.406  1.00  0.00     0.036 C 
BRANCH  15  20
HETATM   20  C   UNL     1      39.883 -15.234   2.900  1.00  0.00     0.231 C 
HETATM   21  C   UNL     1      39.868 -13.832   3.481  1.00  0.00     0.034 C 
ENDBRANCH  15  20
ENDBRANCH  13  14
ENDBRANCH  10  13
ENDBRANCH   8   9
ENDBRANCH   1   8
BRANCH   2  22
HETATM   22  C   UNL     1      43.877 -17.159   4.940  1.00  0.00    -0.007 A 
HETATM   23  C   UNL     1      44.428 -17.005   6.218  1.00  0.00     0.015 A 
HETATM   24  C   UNL     1      44.380 -15.778   6.889  1.00  0.00     0.024 A 
HETATM   25  C   UNL     1      43.780 -14.679   6.284  1.00  0.00     0.034 A 
HETATM   26 CL   UNL     1      43.735 -13.169   7.102  1.00  0.00    -0.084 Cl
HETATM   27  C   UNL     1      43.218 -14.805   5.020  1.00  0.00     0.024 A 
HETATM   28  C   UNL     1      43.262 -16.037   4.356  1.00  0.00     0.015 A 
ENDBRANCH   2  22
TORSDOF 6
ENDMDL
MODEL 10
REMARK VINA RESULT:      -7.4      2.798      4.512
REMARK  6 active torsions:
REMARK  status: ('A' for Active; 'I' for Inactive)
REMARK    1  A    between atoms: C_2  and  N_3 
REMARK    2  A    between atoms: C_5  and  C_6 
REMARK    3  A    between atoms: C_6  and  N_7 
REMARK       I    between atoms: N_7  and  C_8 
REMARK    4  A    between atoms: C_8  and  C_9 
REMARK    5  A    between atoms: C_9  and  C_10 
REMARK    6  A    between atoms: C_11  and  C_12 
ROOT
HETATM    1  C   UNL     1      43.228 -18.912   3.300  1.00  0.00     0.005 A 
HETATM    2  C   UNL     1      43.310 -18.056   4.400  1.00  0.00     0.069 A 
HETATM    3  N   UNL     1      44.316 -18.588   5.176  1.00  0.00    -0.277 N 
HETATM    4  H   UNL     1      44.660 -18.245   6.065  1.00  0.00     0.189 HD
HETATM    5  N   UNL     1      44.877 -19.692   4.678  1.00  0.00    -0.179 NA
HETATM    6  C   UNL     1      44.287 -19.854   3.495  1.00  0.00     0.059 A 
HETATM    7  C   UNL     1      44.764 -20.938   2.596  1.00  0.00     0.073 C 
ENDROOT
BRANCH   1   8
HETATM    8  C   UNL     1      42.302 -18.877   2.124  1.00  0.00     0.146 C 
BRANCH   8   9
HETATM    9  C   UNL     1      42.606 -17.679   1.233  1.00  0.00     0.222 C 
HETATM   10  N   UNL     1      41.526 -16.952   0.787  1.00  0.00    -0.359 N 
HETATM   11  H   UNL     1      40.604 -17.362   0.894  1.00  0.00     0.162 HD
HETATM   12  O   UNL     1      43.748 -17.296   0.974  1.00  0.00    -0.273 OA
BRANCH  10  13
HETATM   13  C   UNL     1      41.661 -15.808  -0.109  1.00  0.00     0.155 C 
BRANCH  13  14
HETATM   14  C   UNL     1      40.910 -14.511   0.308  1.00  0.00     0.206 C 
HETATM   15  N   UNL     1      39.392 -14.670   0.205  1.00  0.00    -0.066 N 
HETATM   16  H   UNL     1      39.224 -15.557  -0.319  1.00  0.00     0.280 HD
HETATM   17  C   UNL     1      38.869 -13.558  -0.669  1.00  0.00     0.235 C 
HETATM   18  C   UNL     1      40.058 -13.174  -1.520  1.00  0.00     0.030 C 
HETATM   19  C   UNL     1      41.227 -13.295  -0.564  1.00  0.00     0.036 C 
BRANCH  15  20
HETATM   20  C   UNL     1      38.689 -14.843   1.519  1.00  0.00     0.231 C 
HETATM   21  C   UNL     1      39.507 -14.236   2.645  1.00  0.00     0.034 C 
ENDBRANCH  15  20
ENDBRANCH  13  14
ENDBRANCH  10  13
ENDBRANCH   8   9
ENDBRANCH   1   8
BRANCH   2  22
HETATM   22  C   UNL     1      42.604 -16.833   4.812  1.00  0.00    -0.007 A 
HETATM   23  C   UNL     1      41.388 -16.875   5.504  1.00  0.00     0.015 A 
HETATM   24  C   UNL     1      40.740 -15.703   5.912  1.00  0.00     0.024 A 
HETATM   25  C   UNL     1      41.308 -14.465   5.635  1.00  0.00     0.034 A 
HETATM   26 CL   UNL     1      40.521 -13.027   6.150  1.00  0.00    -0.084 Cl
HETATM   27  C   UNL     1      42.510 -14.392   4.943  1.00  0.00     0.024 A 
HETATM   28  C   UNL     1      43.149 -15.567   4.530  1.00  0.00     0.015 A 
ENDBRANCH   2  22
TORSDOF 6
ENDMDL
