MODEL 1
REMARK VINA RESULT:      -8.2      0.000      0.000
REMARK  3 active torsions:
REMARK  status: ('A' for Active; 'I' for Inactive)
REMARK    1  A    between atoms: C_3  and  C_4 
REMARK    2  A    between atoms: C_10  and  C_11 
REMARK    3  A    between atoms: C_14  and  O_15 
ROOT
HETATM    1  C   UNL     1      39.848 -14.409  -0.446  1.00  0.00    -0.007 A 
HETATM    2  C   UNL     1      40.959 -15.261  -0.516  1.00  0.00     0.047 A 
HETATM    3  C   UNL     1      41.266 -16.056   0.600  1.00  0.00     0.086 A 
HETATM    4  C   UNL     1      40.471 -15.984   1.734  1.00  0.00     0.063 A 
HETATM    5  N   UNL     1      41.052 -16.867   2.607  1.00  0.00    -0.338 N 
HETATM    6  H   UNL     1      40.714 -17.089   3.530  1.00  0.00     0.167 HD
HETATM    7  C   UNL     1      42.149 -17.437   2.000  1.00  0.00     0.139 A 
HETATM    8  N   UNL     1      42.283 -16.961   0.774  1.00  0.00    -0.228 NA
HETATM    9  C   UNL     1      39.350 -15.165   1.835  1.00  0.00     0.033 A 
HETATM   10  C   UNL     1      39.054 -14.378   0.715  1.00  0.00     0.016 A 
ENDROOT
BRANCH   1  11
HETATM   11  C   UNL     1      39.471 -13.506  -1.581  1.00  0.00     0.069 C 
HETATM   12  C   UNL     1      38.050 -13.550  -2.128  1.00  0.00     0.045 C 
HETATM   13  C   UNL     1      37.940 -14.703  -3.128  1.00  0.00     0.017 C 
HETATM   14  C   UNL     1      37.696 -12.214  -2.761  1.00  0.00     0.115 C 
HETATM   15  C   UNL     1      38.814 -11.681  -3.611  1.00  0.00     0.238 C 
HETATM   16  N   UNL     1      40.077 -11.991  -3.188  1.00  0.00    -0.247 N 
HETATM   17  O   UNL     1      38.614 -10.949  -4.578  1.00  0.00    -0.272 OA
HETATM   18  N   UNL     1      40.403 -12.783  -2.132  1.00  0.00    -0.176 NA
HETATM   19  H   UNL     1      40.850 -11.557  -3.683  1.00  0.00     0.192 HD
ENDBRANCH   1  11
BRANCH   7  20
HETATM   20  C   UNL     1      42.996 -18.452   2.632  1.00  0.00     0.010 A 
HETATM   21  C   UNL     1      43.355 -18.307   3.977  1.00  0.00     0.018 A 
HETATM   22  C   UNL     1      44.179 -19.247   4.603  1.00  0.00     0.037 A 
HETATM   23  C   UNL     1      44.648 -20.359   3.902  1.00  0.00     0.068 A 
HETATM   24  C   UNL     1      44.285 -20.522   2.566  1.00  0.00     0.037 A 
HETATM   25  C   UNL     1      43.465 -19.574   1.936  1.00  0.00     0.018 A 
BRANCH  23  26
HETATM   26  O   UNL     1      45.443 -21.201   4.629  1.00  0.00    -0.356 OA
HETATM   27  C   UNL     1      44.892 -22.462   4.985  1.00  0.00     0.210 C 
ENDBRANCH  23  26
ENDBRANCH   7  20
TORSDOF 3
ENDMDL
MODEL 2
REMARK VINA RESULT:      -8.1      2.282      9.548
REMARK  3 active torsions:
REMARK  status: ('A' for Active; 'I' for Inactive)
REMARK    1  A    between atoms: C_3  and  C_4 
REMARK    2  A    between atoms: C_10  and  C_11 
REMARK    3  A    between atoms: C_14  and  O_15 
ROOT
HETATM    1  C   UNL     1      43.091 -17.388   3.570  1.00  0.00    -0.007 A 
HETATM    2  C   UNL     1      42.010 -16.553   3.252  1.00  0.00     0.047 A 
HETATM    3  C   UNL     1      41.773 -16.248   1.902  1.00  0.00     0.086 A 
HETATM    4  C   UNL     1      42.602 -16.775   0.924  1.00  0.00     0.063 A 
HETATM    5  N   UNL     1      42.096 -16.276  -0.249  1.00  0.00    -0.338 N 
HETATM    6  H   UNL     1      42.443 -16.480  -1.173  1.00  0.00     0.167 HD
HETATM    7  C   UNL     1      41.005 -15.485   0.038  1.00  0.00     0.139 A 
HETATM    8  N   UNL     1      40.791 -15.470   1.342  1.00  0.00    -0.228 NA
HETATM    9  C   UNL     1      43.672 -17.622   1.198  1.00  0.00     0.033 A 
HETATM   10  C   UNL     1      43.897 -17.920   2.548  1.00  0.00     0.016 A 
ENDROOT
BRANCH   1  11
HETATM   11  C   UNL     1      43.429 -17.737   4.989  1.00  0.00     0.069 C 
HETATM   12  C   UNL     1      44.702 -18.522   5.278  1.00  0.00     0.045 C 
HETATM   13  C   UNL     1      44.423 -20.012   5.075  1.00  0.00     0.017 C 
HETATM   14  C   UNL     1      45.186 -18.222   6.689  1.00  0.00     0.115 C 
HETATM   15  C   UNL     1      44.059 -18.222   7.681  1.00  0.00     0.238 C 
HETATM   16  N   UNL     1      42.851 -17.793   7.203  1.00  0.00    -0.247 N 
HETATM   17  O   UNL     1      44.223 -18.512   8.864  1.00  0.00    -0.272 OA
HETATM   18  N   UNL     1      42.569 -17.444   5.920  1.00  0.00    -0.176 NA
HETATM   19  H   UNL     1      42.100 -17.684   7.877  1.00  0.00     0.192 HD
ENDBRANCH   1  11
BRANCH   7  20
HETATM   20  C   UNL     1      40.196 -14.810  -0.980  1.00  0.00     0.010 A 
HETATM   21  C   UNL     1      39.107 -14.025  -0.583  1.00  0.00     0.018 A 
HETATM   22  C   UNL     1      38.305 -13.384  -1.531  1.00  0.00     0.037 A 
HETATM   23  C   UNL     1      38.582 -13.501  -2.893  1.00  0.00     0.068 A 
HETATM   24  C   UNL     1      39.674 -14.268  -3.300  1.00  0.00     0.037 A 
HETATM   25  C   UNL     1      40.474 -14.918  -2.349  1.00  0.00     0.018 A 
BRANCH  23  26
HETATM   26  O   UNL     1      37.722 -12.826  -3.714  1.00  0.00    -0.356 OA
HETATM   27  C   UNL     1      36.638 -13.565  -4.261  1.00  0.00     0.210 C 
ENDBRANCH  23  26
ENDBRANCH   7  20
TORSDOF 3
ENDMDL
MODEL 3
REMARK VINA RESULT:      -8.0      2.740      9.707
REMARK  3 active torsions:
REMARK  status: ('A' for Active; 'I' for Inactive)
REMARK    1  A    between atoms: C_3  and  C_4 
REMARK    2  A    between atoms: C_10  and  C_11 
REMARK    3  A    between atoms: C_14  and  O_15 
ROOT
HETATM    1  C   UNL     1      43.173 -18.392   2.945  1.00  0.00    -0.007 A 
HETATM    2  C   UNL     1      42.035 -17.725   3.418  1.00  0.00     0.047 A 
HETATM    3  C   UNL     1      41.512 -16.666   2.657  1.00  0.00     0.086 A 
HETATM    4  C   UNL     1      42.126 -16.309   1.467  1.00  0.00     0.063 A 
HETATM    5  N   UNL     1      41.375 -15.260   1.004  1.00  0.00    -0.338 N 
HETATM    6  H   UNL     1      41.523 -14.768   0.137  1.00  0.00     0.167 HD
HETATM    7  C   UNL     1      40.354 -15.015   1.895  1.00  0.00     0.139 A 
HETATM    8  N   UNL     1      40.420 -15.873   2.900  1.00  0.00    -0.228 NA
HETATM    9  C   UNL     1      43.246 -16.959   0.954  1.00  0.00     0.033 A 
HETATM   10  C   UNL     1      43.757 -18.014   1.722  1.00  0.00     0.016 A 
ENDROOT
BRANCH   1  11
HETATM   11  C   UNL     1      43.810 -19.511   3.713  1.00  0.00     0.069 C 
HETATM   12  C   UNL     1      43.912 -19.410   5.229  1.00  0.00     0.045 C 
HETATM   13  C   UNL     1      45.148 -18.583   5.589  1.00  0.00     0.017 C 
HETATM   14  C   UNL     1      43.964 -20.802   5.839  1.00  0.00     0.115 C 
HETATM   15  C   UNL     1      44.886 -21.714   5.081  1.00  0.00     0.238 C 
HETATM   16  N   UNL     1      44.962 -21.489   3.733  1.00  0.00    -0.247 N 
HETATM   17  O   UNL     1      45.475 -22.650   5.618  1.00  0.00    -0.272 OA
HETATM   18  N   UNL     1      44.348 -20.490   3.046  1.00  0.00    -0.176 NA
HETATM   19  H   UNL     1      45.496 -22.156   3.184  1.00  0.00     0.192 HD
ENDBRANCH   1  11
BRANCH   7  20
HETATM   20  C   UNL     1      39.336 -13.979   1.707  1.00  0.00     0.010 A 
HETATM   21  C   UNL     1      39.431 -12.783   2.429  1.00  0.00     0.018 A 
HETATM   22  C   UNL     1      38.465 -11.783   2.287  1.00  0.00     0.037 A 
HETATM   23  C   UNL     1      37.393 -11.950   1.409  1.00  0.00     0.068 A 
HETATM   24  C   UNL     1      37.296 -13.131   0.673  1.00  0.00     0.037 A 
HETATM   25  C   UNL     1      38.261 -14.138   0.822  1.00  0.00     0.018 A 
BRANCH  23  26
HETATM   26  O   UNL     1      36.520 -10.899   1.363  1.00  0.00    -0.356 OA
HETATM   27  C   UNL     1      35.349 -11.067   0.574  1.00  0.00     0.210 C 
ENDBRANCH  23  26
ENDBRANCH   7  20
TORSDOF 3
ENDMDL
MODEL 4
REMARK VINA RESULT:      -7.9      0.977      1.690
REMARK  3 active torsions:
REMARK  status: ('A' for Active; 'I' for Inactive)
REMARK    1  A    between atoms: C_3  and  C_4 
REMARK    2  A    between atoms: C_10  and  C_11 
REMARK    3  A    between atoms: C_14  and  O_15 
ROOT
HETATM    1  C   UNL     1      39.703 -14.290  -0.307  1.00  0.00    -0.007 A 
HETATM    2  C   UNL     1      40.865 -15.075  -0.330  1.00  0.00     0.047 A 
HETATM    3  C   UNL     1      41.154 -15.877   0.786  1.00  0.00     0.086 A 
HETATM    4  C   UNL     1      40.293 -15.877   1.873  1.00  0.00     0.063 A 
HETATM    5  N   UNL     1      40.873 -16.745   2.761  1.00  0.00    -0.338 N 
HETATM    6  H   UNL     1      40.497 -17.008   3.658  1.00  0.00     0.167 HD
HETATM    7  C   UNL     1      42.035 -17.238   2.208  1.00  0.00     0.139 A 
HETATM    8  N   UNL     1      42.210 -16.726   1.001  1.00  0.00    -0.228 NA
HETATM    9  C   UNL     1      39.121 -15.126   1.925  1.00  0.00     0.033 A 
HETATM   10  C   UNL     1      38.844 -14.331   0.805  1.00  0.00     0.016 A 
ENDROOT
BRANCH   1  11
HETATM   11  C   UNL     1      39.340 -13.384  -1.445  1.00  0.00     0.069 C 
HETATM   12  C   UNL     1      40.424 -12.537  -2.098  1.00  0.00     0.045 C 
HETATM   13  C   UNL     1      40.626 -11.266  -1.271  1.00  0.00     0.017 C 
HETATM   14  C   UNL     1      40.041 -12.223  -3.536  1.00  0.00     0.115 C 
HETATM   15  C   UNL     1      38.598 -11.824  -3.659  1.00  0.00     0.238 C 
HETATM   16  N   UNL     1      37.742 -12.425  -2.775  1.00  0.00    -0.247 N 
HETATM   17  O   UNL     1      38.196 -11.071  -4.542  1.00  0.00    -0.272 OA
HETATM   18  N   UNL     1      38.085 -13.274  -1.771  1.00  0.00    -0.176 NA
HETATM   19  H   UNL     1      36.750 -12.253  -2.905  1.00  0.00     0.192 HD
ENDBRANCH   1  11
BRANCH   7  20
HETATM   20  C   UNL     1      42.903 -18.216   2.867  1.00  0.00     0.010 A 
HETATM   21  C   UNL     1      43.546 -19.193   2.098  1.00  0.00     0.018 A 
HETATM   22  C   UNL     1      44.365 -20.152   2.701  1.00  0.00     0.037 A 
HETATM   23  C   UNL     1      44.571 -20.146   4.081  1.00  0.00     0.068 A 
HETATM   24  C   UNL     1      43.947 -19.168   4.855  1.00  0.00     0.037 A 
HETATM   25  C   UNL     1      43.119 -18.211   4.252  1.00  0.00     0.018 A 
BRANCH  23  26
HETATM   26  O   UNL     1      45.392 -21.136   4.543  1.00  0.00    -0.356 OA
HETATM   27  C   UNL     1      44.795 -22.400   4.804  1.00  0.00     0.210 C 
ENDBRANCH  23  26
ENDBRANCH   7  20
TORSDOF 3
ENDMDL
MODEL 5
REMARK VINA RESULT:      -7.9      2.003      9.578
REMARK  3 active torsions:
REMARK  status: ('A' for Active; 'I' for Inactive)
REMARK    1  A    between atoms: C_3  and  C_4 
REMARK    2  A    between atoms: C_10  and  C_11 
REMARK    3  A    between atoms: C_14  and  O_15 
ROOT
HETATM    1  C   UNL     1      42.790 -18.352   3.375  1.00  0.00    -0.007 A 
HETATM    2  C   UNL     1      42.828 -18.074   2.002  1.00  0.00     0.047 A 
HETATM    3  C   UNL     1      42.042 -17.019   1.509  1.00  0.00     0.086 A 
HETATM    4  C   UNL     1      41.256 -16.283   2.383  1.00  0.00     0.063 A 
HETATM    5  N   UNL     1      40.634 -15.363   1.580  1.00  0.00    -0.338 N 
HETATM    6  H   UNL     1      40.003 -14.641   1.891  1.00  0.00     0.167 HD
HETATM    7  C   UNL     1      41.045 -15.556   0.279  1.00  0.00     0.139 A 
HETATM    8  N   UNL     1      41.912 -16.553   0.225  1.00  0.00    -0.228 NA
HETATM    9  C   UNL     1      41.207 -16.516   3.755  1.00  0.00     0.033 A 
HETATM   10  C   UNL     1      41.996 -17.570   4.233  1.00  0.00     0.016 A 
ENDROOT
BRANCH   1  11
HETATM   11  C   UNL     1      43.575 -19.480   3.975  1.00  0.00     0.069 C 
HETATM   12  C   UNL     1      43.869 -19.470   5.470  1.00  0.00     0.045 C 
HETATM   13  C   UNL     1      45.099 -18.598   5.727  1.00  0.00     0.017 C 
HETATM   14  C   UNL     1      44.067 -20.893   5.968  1.00  0.00     0.115 C 
HETATM   15  C   UNL     1      44.927 -21.700   5.038  1.00  0.00     0.238 C 
HETATM   16  N   UNL     1      44.815 -21.386   3.710  1.00  0.00    -0.247 N 
HETATM   17  O   UNL     1      45.625 -22.633   5.428  1.00  0.00    -0.272 OA
HETATM   18  N   UNL     1      44.069 -20.383   3.178  1.00  0.00    -0.176 NA
HETATM   19  H   UNL     1      45.304 -21.985   3.052  1.00  0.00     0.192 HD
ENDBRANCH   1  11
BRANCH   7  20
HETATM   20  C   UNL     1      40.603 -14.732  -0.848  1.00  0.00     0.010 A 
HETATM   21  C   UNL     1      39.770 -13.632  -0.611  1.00  0.00     0.018 A 
HETATM   22  C   UNL     1      39.315 -12.839  -1.668  1.00  0.00     0.037 A 
HETATM   23  C   UNL     1      39.695 -13.118  -2.981  1.00  0.00     0.068 A 
HETATM   24  C   UNL     1      40.537 -14.202  -3.228  1.00  0.00     0.037 A 
HETATM   25  C   UNL     1      40.987 -15.003  -2.169  1.00  0.00     0.018 A 
BRANCH  23  26
HETATM   26  O   UNL     1      39.182 -12.267  -3.920  1.00  0.00    -0.356 OA
HETATM   27  C   UNL     1      39.736 -10.959  -3.977  1.00  0.00     0.210 C 
ENDBRANCH  23  26
ENDBRANCH   7  20
TORSDOF 3
ENDMDL
MODEL 6
REMARK VINA RESULT:      -7.7      2.599      9.586
REMARK  3 active torsions:
REMARK  status: ('A' for Active; 'I' for Inactive)
REMARK    1  A    between atoms: C_3  and  C_4 
REMARK    2  A    between atoms: C_10  and  C_11 
REMARK    3  A    between atoms: C_14  and  O_15 
ROOT
HETATM    1  C   UNL     1      42.848 -18.107   2.520  1.00  0.00    -0.007 A 
HETATM    2  C   UNL     1      41.802 -17.375   3.099  1.00  0.00     0.047 A 
HETATM    3  C   UNL     1      41.236 -16.319   2.366  1.00  0.00     0.086 A 
HETATM    4  C   UNL     1      41.717 -16.028   1.099  1.00  0.00     0.063 A 
HETATM    5  N   UNL     1      40.960 -14.962   0.689  1.00  0.00    -0.338 N 
HETATM    6  H   UNL     1      41.023 -14.505  -0.207  1.00  0.00     0.167 HD
HETATM    7  C   UNL     1      40.063 -14.643   1.685  1.00  0.00     0.139 A 
HETATM    8  N   UNL     1      40.213 -15.470   2.706  1.00  0.00    -0.228 NA
HETATM    9  C   UNL     1      42.741 -16.743   0.483  1.00  0.00     0.033 A 
HETATM   10  C   UNL     1      43.296 -17.794   1.224  1.00  0.00     0.016 A 
ENDROOT
BRANCH   1  11
HETATM   11  C   UNL     1      43.526 -19.228   3.248  1.00  0.00     0.069 C 
HETATM   12  C   UNL     1      44.199 -20.336   2.449  1.00  0.00     0.045 C 
HETATM   13  C   UNL     1      43.142 -21.363   2.038  1.00  0.00     0.017 C 
HETATM   14  C   UNL     1      45.313 -20.965   3.271  1.00  0.00     0.115 C 
HETATM   15  C   UNL     1      44.893 -21.211   4.691  1.00  0.00     0.238 C 
HETATM   16  N   UNL     1      44.006 -20.307   5.210  1.00  0.00    -0.247 N 
HETATM   17  O   UNL     1      45.370 -22.116   5.372  1.00  0.00    -0.272 OA
HETATM   18  N   UNL     1      43.428 -19.272   4.545  1.00  0.00    -0.176 NA
HETATM   19  H   UNL     1      43.787 -20.390   6.198  1.00  0.00     0.192 HD
ENDBRANCH   1  11
BRANCH   7  20
HETATM   20  C   UNL     1      39.073 -13.569   1.579  1.00  0.00     0.010 A 
HETATM   21  C   UNL     1      38.045 -13.672   0.635  1.00  0.00     0.018 A 
HETATM   22  C   UNL     1      37.096 -12.654   0.497  1.00  0.00     0.037 A 
HETATM   23  C   UNL     1      37.146 -11.521   1.309  1.00  0.00     0.068 A 
HETATM   24  C   UNL     1      38.157 -11.414   2.263  1.00  0.00     0.037 A 
HETATM   25  C   UNL     1      39.114 -12.431   2.397  1.00  0.00     0.018 A 
BRANCH  23  26
HETATM   26  O   UNL     1      36.162 -10.602   1.073  1.00  0.00    -0.356 OA
HETATM   27  C   UNL     1      34.974 -11.075   0.451  1.00  0.00     0.210 C 
ENDBRANCH  23  26
ENDBRANCH   7  20
TORSDOF 3
ENDMDL
MODEL 7
REMARK VINA RESULT:      -7.6      5.467      7.077
REMARK  3 active torsions:
REMARK  status: ('A' for Active; 'I' for Inactive)
REMARK    1  A    between atoms: C_3  and  C_4 
REMARK    2  A    between atoms: C_10  and  C_11 
REMARK    3  A    between atoms: C_14  and  O_15 
ROOT
HETATM    1  C   UNL     1      40.073 -12.693   5.881  1.00  0.00    -0.007 A 
HETATM    2  C   UNL     1      40.930 -13.759   6.191  1.00  0.00     0.047 A 
HETATM    3  C   UNL     1      41.206 -14.709   5.194  1.00  0.00     0.086 A 
HETATM    4  C   UNL     1      40.633 -14.573   3.938  1.00  0.00     0.063 A 
HETATM    5  N   UNL     1      41.102 -15.653   3.237  1.00  0.00    -0.338 N 
HETATM    6  H   UNL     1      40.906 -15.856   2.269  1.00  0.00     0.167 HD
HETATM    7  C   UNL     1      41.924 -16.394   4.057  1.00  0.00     0.139 A 
HETATM    8  N   UNL     1      42.005 -15.823   5.247  1.00  0.00    -0.228 NA
HETATM    9  C   UNL     1      39.793 -13.519   3.587  1.00  0.00     0.033 A 
HETATM   10  C   UNL     1      39.527 -12.577   4.590  1.00  0.00     0.016 A 
ENDROOT
BRANCH   1  11
HETATM   11  C   UNL     1      39.704 -11.654   6.897  1.00  0.00     0.069 C 
HETATM   12  C   UNL     1      40.089 -10.201   6.650  1.00  0.00     0.045 C 
HETATM   13  C   UNL     1      41.538  -9.990   7.094  1.00  0.00     0.017 C 
HETATM   14  C   UNL     1      39.129  -9.279   7.386  1.00  0.00     0.115 C 
HETATM   15  C   UNL     1      38.849  -9.756   8.782  1.00  0.00     0.238 C 
HETATM   16  N   UNL     1      38.853 -11.114   8.953  1.00  0.00    -0.247 N 
HETATM   17  O   UNL     1      38.558  -8.988   9.695  1.00  0.00    -0.272 OA
HETATM   18  N   UNL     1      39.155 -12.046   8.010  1.00  0.00    -0.176 NA
HETATM   19  H   UNL     1      38.564 -11.466   9.860  1.00  0.00     0.192 HD
ENDBRANCH   1  11
BRANCH   7  20
HETATM   20  C   UNL     1      42.625 -17.607   3.630  1.00  0.00     0.010 A 
HETATM   21  C   UNL     1      42.457 -18.073   2.321  1.00  0.00     0.018 A 
HETATM   22  C   UNL     1      43.097 -19.239   1.889  1.00  0.00     0.037 A 
HETATM   23  C   UNL     1      43.928 -19.954   2.751  1.00  0.00     0.068 A 
HETATM   24  C   UNL     1      44.115 -19.492   4.054  1.00  0.00     0.037 A 
HETATM   25  C   UNL     1      43.467 -18.326   4.489  1.00  0.00     0.018 A 
BRANCH  23  26
HETATM   26  O   UNL     1      44.492 -21.074   2.207  1.00  0.00    -0.356 OA
HETATM   27  C   UNL     1      44.465 -22.258   2.993  1.00  0.00     0.210 C 
ENDBRANCH  23  26
ENDBRANCH   7  20
TORSDOF 3
ENDMDL
MODEL 8
REMARK VINA RESULT:      -7.6      2.922      9.852
REMARK  3 active torsions:
REMARK  status: ('A' for Active; 'I' for Inactive)
REMARK    1  A    between atoms: C_3  and  C_4 
REMARK    2  A    between atoms: C_10  and  C_11 
REMARK    3  A    between atoms: C_14  and  O_15 
ROOT
HETATM    1  C   UNL     1      42.345 -17.733   4.760  1.00  0.00    -0.007 A 
HETATM    2  C   UNL     1      41.820 -17.354   3.517  1.00  0.00     0.047 A 
HETATM    3  C   UNL     1      40.964 -16.241   3.462  1.00  0.00     0.086 A 
HETATM    4  C   UNL     1      40.663 -15.549   4.624  1.00  0.00     0.063 A 
HETATM    5  N   UNL     1      39.817 -14.552   4.211  1.00  0.00    -0.338 N 
HETATM    6  H   UNL     1      39.419 -13.837   4.799  1.00  0.00     0.167 HD
HETATM    7  C   UNL     1      39.633 -14.660   2.850  1.00  0.00     0.139 A 
HETATM    8  N   UNL     1      40.335 -15.677   2.380  1.00  0.00    -0.228 NA
HETATM    9  C   UNL     1      41.180 -15.883   5.873  1.00  0.00     0.033 A 
HETATM   10  C   UNL     1      42.033 -16.994   5.915  1.00  0.00     0.016 A 
ENDROOT
BRANCH   1  11
HETATM   11  C   UNL     1      43.241 -18.926   4.909  1.00  0.00     0.069 C 
HETATM   12  C   UNL     1      43.723 -19.327   6.297  1.00  0.00     0.045 C 
HETATM   13  C   UNL     1      44.943 -18.480   6.662  1.00  0.00     0.017 C 
HETATM   14  C   UNL     1      44.035 -20.815   6.328  1.00  0.00     0.115 C 
HETATM   15  C   UNL     1      44.797 -21.255   5.111  1.00  0.00     0.238 C 
HETATM   16  N   UNL     1      44.505 -20.580   3.956  1.00  0.00    -0.247 N 
HETATM   17  O   UNL     1      45.572 -22.208   5.129  1.00  0.00    -0.272 OA
HETATM   18  N   UNL     1      43.661 -19.523   3.831  1.00  0.00    -0.176 NA
HETATM   19  H   UNL     1      44.927 -20.927   3.101  1.00  0.00     0.192 HD
ENDBRANCH   1  11
BRANCH   7  20
HETATM   20  C   UNL     1      38.808 -13.740   2.063  1.00  0.00     0.010 A 
HETATM   21  C   UNL     1      38.778 -12.382   2.401  1.00  0.00     0.018 A 
HETATM   22  C   UNL     1      37.986 -11.484   1.681  1.00  0.00     0.037 A 
HETATM   23  C   UNL     1      37.220 -11.920   0.599  1.00  0.00     0.068 A 
HETATM   24  C   UNL     1      37.253 -13.268   0.244  1.00  0.00     0.037 A 
HETATM   25  C   UNL     1      38.042 -14.171   0.971  1.00  0.00     0.018 A 
BRANCH  23  26
HETATM   26  O   UNL     1      36.491 -10.942  -0.019  1.00  0.00    -0.356 OA
HETATM   27  C   UNL     1      36.623 -10.833  -1.430  1.00  0.00     0.210 C 
ENDBRANCH  23  26
ENDBRANCH   7  20
TORSDOF 3
ENDMDL
MODEL 9
REMARK VINA RESULT:      -7.5      1.904      9.487
REMARK  3 active torsions:
REMARK  status: ('A' for Active; 'I' for Inactive)
REMARK    1  A    between atoms: C_3  and  C_4 
REMARK    2  A    between atoms: C_10  and  C_11 
REMARK    3  A    between atoms: C_14  and  O_15 
ROOT
HETATM    1  C   UNL     1      43.276 -17.737   2.744  1.00  0.00    -0.007 A 
HETATM    2  C   UNL     1      42.596 -17.755   1.518  1.00  0.00     0.047 A 
HETATM    3  C   UNL     1      42.084 -16.546   1.017  1.00  0.00     0.086 A 
HETATM    4  C   UNL     1      42.263 -15.375   1.737  1.00  0.00     0.063 A 
HETATM    5  N   UNL     1      41.645 -14.417   0.976  1.00  0.00    -0.338 N 
HETATM    6  H   UNL     1      41.604 -13.433   1.189  1.00  0.00     0.167 HD
HETATM    7  C   UNL     1      41.125 -15.011  -0.152  1.00  0.00     0.139 A 
HETATM    8  N   UNL     1      41.396 -16.305  -0.145  1.00  0.00    -0.228 NA
HETATM    9  C   UNL     1      42.948 -15.314   2.948  1.00  0.00     0.033 A 
HETATM   10  C   UNL     1      43.455 -16.526   3.435  1.00  0.00     0.016 A 
ENDROOT
BRANCH   1  11
HETATM   11  C   UNL     1      43.826 -18.988   3.361  1.00  0.00     0.069 C 
HETATM   12  C   UNL     1      44.344 -20.099   2.457  1.00  0.00     0.045 C 
HETATM   13  C   UNL     1      43.162 -20.955   1.997  1.00  0.00     0.017 C 
HETATM   14  C   UNL     1      45.388 -20.923   3.194  1.00  0.00     0.115 C 
HETATM   15  C   UNL     1      44.968 -21.233   4.602  1.00  0.00     0.238 C 
HETATM   16  N   UNL     1      44.208 -20.274   5.216  1.00  0.00    -0.247 N 
HETATM   17  O   UNL     1      45.344 -22.241   5.195  1.00  0.00    -0.272 OA
HETATM   18  N   UNL     1      43.748 -19.126   4.653  1.00  0.00    -0.176 NA
HETATM   19  H   UNL     1      44.000 -20.410   6.200  1.00  0.00     0.192 HD
ENDBRANCH   1  11
BRANCH   7  20
HETATM   20  C   UNL     1      40.418 -14.281  -1.207  1.00  0.00     0.010 A 
HETATM   21  C   UNL     1      39.182 -13.688  -0.924  1.00  0.00     0.018 A 
HETATM   22  C   UNL     1      38.474 -13.002  -1.915  1.00  0.00     0.037 A 
HETATM   23  C   UNL     1      38.993 -12.881  -3.204  1.00  0.00     0.068 A 
HETATM   24  C   UNL     1      40.230 -13.455  -3.495  1.00  0.00     0.037 A 
HETATM   25  C   UNL     1      40.937 -14.150  -2.503  1.00  0.00     0.018 A 
BRANCH  23  26
HETATM   26  O   UNL     1      38.202 -12.187  -4.078  1.00  0.00    -0.356 OA
HETATM   27  C   UNL     1      36.853 -11.962  -3.688  1.00  0.00     0.210 C 
ENDBRANCH  23  26
ENDBRANCH   7  20
TORSDOF 3
ENDMDL
MODEL 10
REMARK VINA RESULT:      -7.4      2.781      9.389
REMARK  3 active torsions:
REMARK  status: ('A' for Active; 'I' for Inactive)
REMARK    1  A    between atoms: C_3  and  C_4 
REMARK    2  A    between atoms: C_10  and  C_11 
REMARK    3  A    between atoms: C_14  and  O_15 
ROOT
HETATM    1  C   UNL     1      41.945 -16.355   3.671  1.00  0.00    -0.007 A 
HETATM    2  C   UNL     1      42.413 -15.249   2.948  1.00  0.00     0.047 A 
HETATM    3  C   UNL     1      41.929 -15.045   1.645  1.00  0.00     0.086 A 
HETATM    4  C   UNL     1      41.007 -15.931   1.110  1.00  0.00     0.063 A 
HETATM    5  N   UNL     1      40.765 -15.444  -0.149  1.00  0.00    -0.338 N 
HETATM    6  H   UNL     1      40.117 -15.832  -0.815  1.00  0.00     0.167 HD
HETATM    7  C   UNL     1      41.521 -14.308  -0.339  1.00  0.00     0.139 A 
HETATM    8  N   UNL     1      42.224 -14.048   0.750  1.00  0.00    -0.228 NA
HETATM    9  C   UNL     1      40.504 -17.030   1.803  1.00  0.00     0.033 A 
HETATM   10  C   UNL     1      40.995 -17.221   3.101  1.00  0.00     0.016 A 
ENDROOT
BRANCH   1  11
HETATM   11  C   UNL     1      42.435 -16.659   5.055  1.00  0.00     0.069 C 
HETATM   12  C   UNL     1      43.791 -17.330   5.234  1.00  0.00     0.045 C 
HETATM   13  C   UNL     1      43.624 -18.841   5.059  1.00  0.00     0.017 C 
HETATM   14  C   UNL     1      44.368 -16.976   6.595  1.00  0.00     0.115 C 
HETATM   15  C   UNL     1      43.337 -17.063   7.683  1.00  0.00     0.238 C 
HETATM   16  N   UNL     1      42.059 -16.742   7.312  1.00  0.00    -0.247 N 
HETATM   17  O   UNL     1      43.628 -17.326   8.848  1.00  0.00    -0.272 OA
HETATM   18  N   UNL     1      41.637 -16.432   6.058  1.00  0.00    -0.176 NA
HETATM   19  H   UNL     1      41.363 -16.691   8.049  1.00  0.00     0.192 HD
ENDBRANCH   1  11
BRANCH   7  20
HETATM   20  C   UNL     1      41.494 -13.505  -1.564  1.00  0.00     0.010 A 
HETATM   21  C   UNL     1      42.455 -12.505  -1.751  1.00  0.00     0.018 A 
HETATM   22  C   UNL     1      42.443 -11.709  -2.901  1.00  0.00     0.037 A 
HETATM   23  C   UNL     1      41.482 -11.906  -3.892  1.00  0.00     0.068 A 
HETATM   24  C   UNL     1      40.528 -12.909  -3.723  1.00  0.00     0.037 A 
HETATM   25  C   UNL     1      40.535 -13.703  -2.567  1.00  0.00     0.018 A 
BRANCH  23  26
HETATM   26  O   UNL     1      41.581 -11.062  -4.963  1.00  0.00    -0.356 OA
HETATM   27  C   UNL     1      40.422 -10.312  -5.303  1.00  0.00     0.210 C 
ENDBRANCH  23  26
ENDBRANCH   7  20
TORSDOF 3
ENDMDL
