MODEL 1
REMARK VINA RESULT:      -8.3      0.000      0.000
REMARK  8 active torsions:
REMARK  status: ('A' for Active; 'I' for Inactive)
REMARK    1  A    between atoms: C_4  and  C_5 
REMARK    2  A    between atoms: C_5  and  N_6 
REMARK       I    between atoms: N_6  and  C_7 
REMARK    3  A    between atoms: C_7  and  C_8 
REMARK    4  A    between atoms: C_9  and  N_10 
REMARK       I    between atoms: N_10  and  C_11 
REMARK    5  A    between atoms: C_11  and  C_12 
REMARK    6  A    between atoms: C_12  and  C_13 
REMARK    7  A    between atoms: C_13  and  C_14 
REMARK    8  A    between atoms: C_14  and  N_15 
ROOT
HETATM    1  C   UNL     1      42.688 -17.373   2.776  1.00  0.00     0.073 A 
HETATM    2  C   UNL     1      43.101 -16.791   3.970  1.00  0.00     0.093 A 
HETATM    3  S   UNL     1      44.072 -17.842   4.922  1.00  0.00    -0.075 SA
HETATM    4  C   UNL     1      44.042 -19.058   3.757  1.00  0.00    -0.008 A 
HETATM    5  C   UNL     1      43.237 -18.734   2.685  1.00  0.00    -0.026 A 
HETATM    6  C   UNL     1      43.022 -19.714   1.556  1.00  0.00     0.041 C 
HETATM    7  C   UNL     1      43.479 -21.137   1.920  1.00  0.00     0.005 C 
HETATM    8  C   UNL     1      44.835 -21.134   2.631  1.00  0.00     0.005 C 
HETATM    9  C   UNL     1      44.768 -20.353   3.948  1.00  0.00     0.047 C 
ENDROOT
BRANCH   2  10
HETATM   10  N   UNL     1      42.939 -15.632   4.699  1.00  0.00    -0.320 N 
HETATM   11  C   UNL     1      43.273 -14.345   4.357  1.00  0.00     0.222 C 
HETATM   12  O   UNL     1      43.892 -13.995   3.362  1.00  0.00    -0.273 OA
HETATM   13  H   UNL     1      42.766 -15.806   5.683  1.00  0.00     0.169 HD
BRANCH  11  14
HETATM   14  C   UNL     1      42.872 -13.370   5.456  1.00  0.00     0.105 C 
BRANCH  14  15
HETATM   15  C   UNL     1      42.067 -12.169   4.970  1.00  0.00     0.029 C 
BRANCH  15  16
HETATM   16  C   UNL     1      40.577 -12.293   5.297  1.00  0.00     0.136 C 
BRANCH  16  17
HETATM   17  N   UNL     1      39.798 -12.551   4.101  1.00  0.00    -0.280 N 
HETATM   18  C   UNL     1      39.256 -11.566   3.320  1.00  0.00     0.261 A 
HETATM   19  O   UNL     1      39.294 -10.358   3.468  1.00  0.00    -0.267 OA
HETATM   20  C   UNL     1      38.610 -12.237   2.194  1.00  0.00     0.048 A 
HETATM   21  C   UNL     1      38.828 -13.595   2.337  1.00  0.00     0.048 A 
HETATM   22  C   UNL     1      37.900 -11.719   1.128  1.00  0.00     0.018 A 
HETATM   23  C   UNL     1      39.613 -13.791   3.554  1.00  0.00     0.261 A 
HETATM   24  C   UNL     1      38.350 -14.513   1.423  1.00  0.00     0.018 A 
HETATM   25  O   UNL     1      40.010 -14.874   3.938  1.00  0.00    -0.267 OA
HETATM   26  C   UNL     1      37.626 -14.014   0.335  1.00  0.00     0.001 A 
HETATM   27  C   UNL     1      37.403 -12.629   0.188  1.00  0.00     0.001 A 
ENDBRANCH  16  17
ENDBRANCH  15  16
ENDBRANCH  14  15
ENDBRANCH  11  14
ENDBRANCH   2  10
BRANCH   1  28
HETATM   28  C   UNL     1      41.768 -16.880   1.738  1.00  0.00     0.255 C 
HETATM   29  N   UNL     1      42.301 -16.124   0.734  1.00  0.00    -0.353 N 
HETATM   30  H   UNL     1      43.202 -15.678   0.880  1.00  0.00     0.163 HD
HETATM   31  O   UNL     1      40.593 -17.242   1.714  1.00  0.00    -0.268 OA
BRANCH  29  32
HETATM   32  C   UNL     1      41.545 -15.734  -0.430  1.00  0.00     0.161 C 
BRANCH  32  33
HETATM   33  C   UNL     1      41.362 -14.244  -0.551  1.00  0.00    -0.041 A 
HETATM   34  C   UNL     1      41.816 -13.382   0.455  1.00  0.00     0.009 A 
HETATM   35  C   UNL     1      41.663 -12.000   0.326  1.00  0.00     0.001 A 
HETATM   36  C   UNL     1      41.047 -11.465  -0.804  1.00  0.00     0.000 A 
HETATM   37  C   UNL     1      40.580 -12.313  -1.806  1.00  0.00     0.001 A 
HETATM   38  C   UNL     1      40.736 -13.694  -1.679  1.00  0.00     0.009 A 
ENDBRANCH  32  33
ENDBRANCH  29  32
ENDBRANCH   1  28
TORSDOF 8
ENDMDL
MODEL 2
REMARK VINA RESULT:      -8.1      3.795      8.035
REMARK  8 active torsions:
REMARK  status: ('A' for Active; 'I' for Inactive)
REMARK    1  A    between atoms: C_4  and  C_5 
REMARK    2  A    between atoms: C_5  and  N_6 
REMARK       I    between atoms: N_6  and  C_7 
REMARK    3  A    between atoms: C_7  and  C_8 
REMARK    4  A    between atoms: C_9  and  N_10 
REMARK       I    between atoms: N_10  and  C_11 
REMARK    5  A    between atoms: C_11  and  C_12 
REMARK    6  A    between atoms: C_12  and  C_13 
REMARK    7  A    between atoms: C_13  and  C_14 
REMARK    8  A    between atoms: C_14  and  N_15 
ROOT
HETATM    1  C   UNL     1      43.278 -11.514   8.511  1.00  0.00     0.073 A 
HETATM    2  C   UNL     1      42.278 -10.918   7.750  1.00  0.00     0.093 A 
HETATM    3  S   UNL     1      41.337  -9.795   8.649  1.00  0.00    -0.075 SA
HETATM    4  C   UNL     1      42.267 -10.003  10.037  1.00  0.00    -0.008 A 
HETATM    5  C   UNL     1      43.232 -10.975   9.878  1.00  0.00    -0.026 A 
HETATM    6  C   UNL     1      44.136 -11.361  11.025  1.00  0.00     0.041 C 
HETATM    7  C   UNL     1      43.623 -10.838  12.378  1.00  0.00     0.005 C 
HETATM    8  C   UNL     1      43.152  -9.385  12.283  1.00  0.00     0.005 C 
HETATM    9  C   UNL     1      41.986  -9.243  11.296  1.00  0.00     0.047 C 
ENDROOT
BRANCH   2  10
HETATM   10  N   UNL     1      41.732 -10.970   6.485  1.00  0.00    -0.320 N 
HETATM   11  C   UNL     1      40.966 -11.957   5.916  1.00  0.00     0.222 C 
HETATM   12  O   UNL     1      40.713 -13.051   6.402  1.00  0.00    -0.273 OA
HETATM   13  H   UNL     1      42.149 -10.300   5.848  1.00  0.00     0.169 HD
BRANCH  11  14
HETATM   14  C   UNL     1      40.543 -11.572   4.505  1.00  0.00     0.105 C 
BRANCH  14  15
HETATM   15  C   UNL     1      39.776 -12.658   3.757  1.00  0.00     0.029 C 
BRANCH  15  16
HETATM   16  C   UNL     1      40.291 -12.859   2.331  1.00  0.00     0.136 C 
BRANCH  16  17
HETATM   17  N   UNL     1      41.002 -14.117   2.203  1.00  0.00    -0.280 N 
HETATM   18  C   UNL     1      42.344 -14.257   2.437  1.00  0.00     0.261 A 
HETATM   19  O   UNL     1      43.162 -13.415   2.756  1.00  0.00    -0.267 OA
HETATM   20  C   UNL     1      42.650 -15.675   2.260  1.00  0.00     0.048 A 
HETATM   21  C   UNL     1      41.466 -16.323   1.963  1.00  0.00     0.048 A 
HETATM   22  C   UNL     1      43.849 -16.353   2.357  1.00  0.00     0.018 A 
HETATM   23  C   UNL     1      40.403 -15.320   1.950  1.00  0.00     0.261 A 
HETATM   24  C   UNL     1      41.411 -17.686   1.746  1.00  0.00     0.018 A 
HETATM   25  O   UNL     1      39.230 -15.577   1.762  1.00  0.00    -0.267 OA
HETATM   26  C   UNL     1      42.614 -18.396   1.837  1.00  0.00     0.001 A 
HETATM   27  C   UNL     1      43.822 -17.735   2.140  1.00  0.00     0.001 A 
ENDBRANCH  16  17
ENDBRANCH  15  16
ENDBRANCH  14  15
ENDBRANCH  11  14
ENDBRANCH   2  10
BRANCH   1  28
HETATM   28  C   UNL     1      44.219 -12.596   8.178  1.00  0.00     0.255 C 
HETATM   29  N   UNL     1      43.741 -13.639   7.439  1.00  0.00    -0.353 N 
HETATM   30  H   UNL     1      42.738 -13.798   7.404  1.00  0.00     0.163 HD
HETATM   31  O   UNL     1      45.415 -12.496   8.451  1.00  0.00    -0.268 OA
BRANCH  29  32
HETATM   32  C   UNL     1      44.598 -14.666   6.899  1.00  0.00     0.161 C 
BRANCH  32  33
HETATM   33  C   UNL     1      43.847 -15.884   6.431  1.00  0.00    -0.041 A 
HETATM   34  C   UNL     1      42.496 -15.800   6.074  1.00  0.00     0.009 A 
HETATM   35  C   UNL     1      41.810 -16.930   5.619  1.00  0.00     0.001 A 
HETATM   36  C   UNL     1      42.466 -18.156   5.527  1.00  0.00     0.000 A 
HETATM   37  C   UNL     1      43.807 -18.256   5.891  1.00  0.00     0.001 A 
HETATM   38  C   UNL     1      44.492 -17.126   6.342  1.00  0.00     0.009 A 
ENDBRANCH  32  33
ENDBRANCH  29  32
ENDBRANCH   1  28
TORSDOF 8
ENDMDL
MODEL 3
REMARK VINA RESULT:      -8.0      3.781      6.186
REMARK  8 active torsions:
REMARK  status: ('A' for Active; 'I' for Inactive)
REMARK    1  A    between atoms: C_4  and  C_5 
REMARK    2  A    between atoms: C_5  and  N_6 
REMARK       I    between atoms: N_6  and  C_7 
REMARK    3  A    between atoms: C_7  and  C_8 
REMARK    4  A    between atoms: C_9  and  N_10 
REMARK       I    between atoms: N_10  and  C_11 
REMARK    5  A    between atoms: C_11  and  C_12 
REMARK    6  A    between atoms: C_12  and  C_13 
REMARK    7  A    between atoms: C_13  and  C_14 
REMARK    8  A    between atoms: C_14  and  N_15 
ROOT
HETATM    1  C   UNL     1      43.000 -17.086   3.366  1.00  0.00     0.073 A 
HETATM    2  C   UNL     1      43.454 -16.735   4.632  1.00  0.00     0.093 A 
HETATM    3  S   UNL     1      44.302 -18.010   5.413  1.00  0.00    -0.075 SA
HETATM    4  C   UNL     1      44.163 -19.029   4.079  1.00  0.00    -0.008 A 
HETATM    5  C   UNL     1      43.408 -18.468   3.070  1.00  0.00    -0.026 A 
HETATM    6  C   UNL     1      43.109 -19.241   1.807  1.00  0.00     0.041 C 
HETATM    7  C   UNL     1      43.415 -20.742   1.953  1.00  0.00     0.005 C 
HETATM    8  C   UNL     1      44.754 -20.984   2.653  1.00  0.00     0.005 C 
HETATM    9  C   UNL     1      44.751 -20.406   4.073  1.00  0.00     0.047 C 
ENDROOT
BRANCH   2  10
HETATM   10  N   UNL     1      43.402 -15.688   5.527  1.00  0.00    -0.320 N 
HETATM   11  C   UNL     1      43.656 -14.355   5.310  1.00  0.00     0.222 C 
HETATM   12  O   UNL     1      44.093 -13.857   4.283  1.00  0.00    -0.273 OA
HETATM   13  H   UNL     1      43.400 -15.994   6.493  1.00  0.00     0.169 HD
BRANCH  11  14
HETATM   14  C   UNL     1      43.433 -13.547   6.581  1.00  0.00     0.105 C 
BRANCH  14  15
HETATM   15  C   UNL     1      44.493 -13.757   7.657  1.00  0.00     0.029 C 
BRANCH  15  16
HETATM   16  C   UNL     1      45.034 -12.438   8.212  1.00  0.00     0.136 C 
BRANCH  16  17
HETATM   17  N   UNL     1      44.193 -11.935   9.282  1.00  0.00    -0.280 N 
HETATM   18  C   UNL     1      44.392 -12.228  10.605  1.00  0.00     0.261 A 
HETATM   19  O   UNL     1      45.239 -12.934  11.118  1.00  0.00    -0.267 OA
HETATM   20  C   UNL     1      43.379 -11.484  11.351  1.00  0.00     0.048 A 
HETATM   21  C   UNL     1      42.643 -10.752  10.438  1.00  0.00     0.048 A 
HETATM   22  C   UNL     1      43.119 -11.434  12.706  1.00  0.00     0.018 A 
HETATM   23  C   UNL     1      43.185 -11.027   9.109  1.00  0.00     0.261 A 
HETATM   24  C   UNL     1      41.605  -9.928  10.827  1.00  0.00     0.018 A 
HETATM   25  O   UNL     1      42.783 -10.501   8.090  1.00  0.00    -0.267 OA
HETATM   26  C   UNL     1      41.321  -9.862  12.195  1.00  0.00     0.001 A 
HETATM   27  C   UNL     1      42.071 -10.609  13.127  1.00  0.00     0.001 A 
ENDBRANCH  16  17
ENDBRANCH  15  16
ENDBRANCH  14  15
ENDBRANCH  11  14
ENDBRANCH   2  10
BRANCH   1  28
HETATM   28  C   UNL     1      42.148 -16.353   2.415  1.00  0.00     0.255 C 
HETATM   29  N   UNL     1      40.812 -16.293   2.687  1.00  0.00    -0.353 N 
HETATM   30  H   UNL     1      40.408 -16.975   3.323  1.00  0.00     0.163 HD
HETATM   31  O   UNL     1      42.643 -15.718   1.485  1.00  0.00    -0.268 OA
BRANCH  29  32
HETATM   32  C   UNL     1      39.903 -15.461   1.938  1.00  0.00     0.161 C 
BRANCH  32  33
HETATM   33  C   UNL     1      39.576 -14.163   2.627  1.00  0.00    -0.041 A 
HETATM   34  C   UNL     1      38.862 -13.158   1.963  1.00  0.00     0.009 A 
HETATM   35  C   UNL     1      38.542 -11.965   2.616  1.00  0.00     0.001 A 
HETATM   36  C   UNL     1      38.941 -11.760   3.935  1.00  0.00     0.000 A 
HETATM   37  C   UNL     1      39.663 -12.747   4.603  1.00  0.00     0.001 A 
HETATM   38  C   UNL     1      39.979 -13.940   3.952  1.00  0.00     0.009 A 
ENDBRANCH  32  33
ENDBRANCH  29  32
ENDBRANCH   1  28
TORSDOF 8
ENDMDL
MODEL 4
REMARK VINA RESULT:      -7.9      5.034     10.200
REMARK  8 active torsions:
REMARK  status: ('A' for Active; 'I' for Inactive)
REMARK    1  A    between atoms: C_4  and  C_5 
REMARK    2  A    between atoms: C_5  and  N_6 
REMARK       I    between atoms: N_6  and  C_7 
REMARK    3  A    between atoms: C_7  and  C_8 
REMARK    4  A    between atoms: C_9  and  N_10 
REMARK       I    between atoms: N_10  and  C_11 
REMARK    5  A    between atoms: C_11  and  C_12 
REMARK    6  A    between atoms: C_12  and  C_13 
REMARK    7  A    between atoms: C_13  and  C_14 
REMARK    8  A    between atoms: C_14  and  N_15 
ROOT
HETATM    1  C   UNL     1      42.559 -11.142   7.977  1.00  0.00     0.073 A 
HETATM    2  C   UNL     1      42.474 -12.170   7.044  1.00  0.00     0.093 A 
HETATM    3  S   UNL     1      41.346 -11.841   5.790  1.00  0.00    -0.075 SA
HETATM    4  C   UNL     1      40.998 -10.308   6.394  1.00  0.00    -0.008 A 
HETATM    5  C   UNL     1      41.648 -10.056   7.584  1.00  0.00    -0.026 A 
HETATM    6  C   UNL     1      41.426  -8.759   8.327  1.00  0.00     0.041 C 
HETATM    7  C   UNL     1      40.196  -7.992   7.812  1.00  0.00     0.005 C 
HETATM    8  C   UNL     1      40.138  -7.972   6.282  1.00  0.00     0.005 C 
HETATM    9  C   UNL     1      40.030  -9.392   5.713  1.00  0.00     0.047 C 
ENDROOT
BRANCH   2  10
HETATM   10  N   UNL     1      42.967 -13.436   6.811  1.00  0.00    -0.320 N 
HETATM   11  C   UNL     1      44.222 -13.933   7.066  1.00  0.00     0.222 C 
HETATM   12  O   UNL     1      45.191 -13.296   7.454  1.00  0.00    -0.273 OA
HETATM   13  H   UNL     1      42.393 -13.971   6.169  1.00  0.00     0.169 HD
BRANCH  11  14
HETATM   14  C   UNL     1      44.311 -15.404   6.685  1.00  0.00     0.105 C 
BRANCH  14  15
HETATM   15  C   UNL     1      43.632 -16.353   7.668  1.00  0.00     0.029 C 
BRANCH  15  16
HETATM   16  C   UNL     1      42.466 -17.114   7.036  1.00  0.00     0.136 C 
BRANCH  16  17
HETATM   17  N   UNL     1      42.897 -17.856   5.865  1.00  0.00    -0.280 N 
HETATM   18  C   UNL     1      43.763 -18.915   5.914  1.00  0.00     0.261 A 
HETATM   19  O   UNL     1      44.326 -19.405   6.875  1.00  0.00    -0.267 OA
HETATM   20  C   UNL     1      43.887 -19.413   4.546  1.00  0.00     0.048 A 
HETATM   21  C   UNL     1      43.057 -18.647   3.747  1.00  0.00     0.048 A 
HETATM   22  C   UNL     1      44.643 -20.448   4.032  1.00  0.00     0.018 A 
HETATM   23  C   UNL     1      42.404 -17.661   4.605  1.00  0.00     0.261 A 
HETATM   24  C   UNL     1      42.937 -18.872   2.389  1.00  0.00     0.018 A 
HETATM   25  O   UNL     1      41.577 -16.861   4.211  1.00  0.00    -0.267 OA
HETATM   26  C   UNL     1      43.695 -19.914   1.845  1.00  0.00     0.001 A 
HETATM   27  C   UNL     1      44.541 -20.695   2.659  1.00  0.00     0.001 A 
ENDBRANCH  16  17
ENDBRANCH  15  16
ENDBRANCH  14  15
ENDBRANCH  11  14
ENDBRANCH   2  10
BRANCH   1  28
HETATM   28  C   UNL     1      43.298 -11.058   9.247  1.00  0.00     0.255 C 
HETATM   29  N   UNL     1      42.740 -11.657  10.339  1.00  0.00    -0.353 N 
HETATM   30  H   UNL     1      41.744 -11.861  10.333  1.00  0.00     0.163 HD
HETATM   31  O   UNL     1      44.429 -10.576   9.287  1.00  0.00    -0.268 OA
BRANCH  29  32
HETATM   32  C   UNL     1      43.441 -11.800  11.590  1.00  0.00     0.161 C 
BRANCH  32  33
HETATM   33  C   UNL     1      42.963 -10.848  12.655  1.00  0.00    -0.041 A 
HETATM   34  C   UNL     1      41.781 -11.099  13.362  1.00  0.00     0.009 A 
HETATM   35  C   UNL     1      41.354 -10.224  14.364  1.00  0.00     0.001 A 
HETATM   36  C   UNL     1      42.099  -9.085  14.662  1.00  0.00     0.000 A 
HETATM   37  C   UNL     1      43.271  -8.817  13.958  1.00  0.00     0.001 A 
HETATM   38  C   UNL     1      43.699  -9.694  12.959  1.00  0.00     0.009 A 
ENDBRANCH  32  33
ENDBRANCH  29  32
ENDBRANCH   1  28
TORSDOF 8
ENDMDL
MODEL 5
REMARK VINA RESULT:      -7.9      4.183      7.605
REMARK  8 active torsions:
REMARK  status: ('A' for Active; 'I' for Inactive)
REMARK    1  A    between atoms: C_4  and  C_5 
REMARK    2  A    between atoms: C_5  and  N_6 
REMARK       I    between atoms: N_6  and  C_7 
REMARK    3  A    between atoms: C_7  and  C_8 
REMARK    4  A    between atoms: C_9  and  N_10 
REMARK       I    between atoms: N_10  and  C_11 
REMARK    5  A    between atoms: C_11  and  C_12 
REMARK    6  A    between atoms: C_12  and  C_13 
REMARK    7  A    between atoms: C_13  and  C_14 
REMARK    8  A    between atoms: C_14  and  N_15 
ROOT
HETATM    1  C   UNL     1      42.437 -15.803   4.961  1.00  0.00     0.073 A 
HETATM    2  C   UNL     1      42.788 -14.498   5.288  1.00  0.00     0.093 A 
HETATM    3  S   UNL     1      42.064 -13.333   4.252  1.00  0.00    -0.075 SA
HETATM    4  C   UNL     1      41.209 -14.506   3.397  1.00  0.00    -0.008 A 
HETATM    5  C   UNL     1      41.519 -15.784   3.812  1.00  0.00    -0.026 A 
HETATM    6  C   UNL     1      40.906 -16.986   3.133  1.00  0.00     0.041 C 
HETATM    7  C   UNL     1      40.246 -16.628   1.791  1.00  0.00     0.005 C 
HETATM    8  C   UNL     1      39.412 -15.348   1.891  1.00  0.00     0.005 C 
HETATM    9  C   UNL     1      40.284 -14.147   2.276  1.00  0.00     0.047 C 
ENDROOT
BRANCH   2  10
HETATM   10  N   UNL     1      43.598 -13.803   6.161  1.00  0.00    -0.320 N 
HETATM   11  C   UNL     1      44.555 -14.285   7.019  1.00  0.00     0.222 C 
HETATM   12  O   UNL     1      44.795 -15.461   7.253  1.00  0.00    -0.273 OA
HETATM   13  H   UNL     1      43.269 -12.859   6.337  1.00  0.00     0.169 HD
BRANCH  11  14
HETATM   14  C   UNL     1      45.237 -13.147   7.767  1.00  0.00     0.105 C 
BRANCH  14  15
HETATM   15  C   UNL     1      44.762 -12.963   9.205  1.00  0.00     0.029 C 
BRANCH  15  16
HETATM   16  C   UNL     1      44.771 -11.496   9.640  1.00  0.00     0.136 C 
BRANCH  16  17
HETATM   17  N   UNL     1      43.453 -11.071  10.074  1.00  0.00    -0.280 N 
HETATM   18  C   UNL     1      42.525 -10.506   9.241  1.00  0.00     0.261 A 
HETATM   19  O   UNL     1      42.613 -10.243   8.056  1.00  0.00    -0.267 OA
HETATM   20  C   UNL     1      41.326 -10.283  10.046  1.00  0.00     0.048 A 
HETATM   21  C   UNL     1      41.583 -10.760  11.318  1.00  0.00     0.048 A 
HETATM   22  C   UNL     1      40.109  -9.724   9.709  1.00  0.00     0.018 A 
HETATM   23  C   UNL     1      42.946 -11.288  11.326  1.00  0.00     0.261 A 
HETATM   24  C   UNL     1      40.640 -10.706  12.325  1.00  0.00     0.018 A 
HETATM   25  O   UNL     1      43.462 -11.822  12.289  1.00  0.00    -0.267 OA
HETATM   26  C   UNL     1      39.399 -10.142  12.009  1.00  0.00     0.001 A 
HETATM   27  C   UNL     1      39.136  -9.655  10.711  1.00  0.00     0.001 A 
ENDBRANCH  16  17
ENDBRANCH  15  16
ENDBRANCH  14  15
ENDBRANCH  11  14
ENDBRANCH   2  10
BRANCH   1  28
HETATM   28  C   UNL     1      42.910 -17.087   5.503  1.00  0.00     0.255 C 
HETATM   29  N   UNL     1      44.021 -17.638   4.933  1.00  0.00    -0.353 N 
HETATM   30  H   UNL     1      44.299 -17.336   4.003  1.00  0.00     0.163 HD
HETATM   31  O   UNL     1      42.394 -17.576   6.507  1.00  0.00    -0.268 OA
BRANCH  29  32
HETATM   32  C   UNL     1      44.685 -18.793   5.484  1.00  0.00     0.161 C 
BRANCH  32  33
HETATM   33  C   UNL     1      44.594 -20.010   4.601  1.00  0.00    -0.041 A 
HETATM   34  C   UNL     1      44.315 -19.886   3.235  1.00  0.00     0.009 A 
HETATM   35  C   UNL     1      44.254 -21.017   2.417  1.00  0.00     0.001 A 
HETATM   36  C   UNL     1      44.462 -22.284   2.959  1.00  0.00     0.000 A 
HETATM   37  C   UNL     1      44.729 -22.422   4.319  1.00  0.00     0.001 A 
HETATM   38  C   UNL     1      44.793 -21.292   5.135  1.00  0.00     0.009 A 
ENDBRANCH  32  33
ENDBRANCH  29  32
ENDBRANCH   1  28
TORSDOF 8
ENDMDL
MODEL 6
REMARK VINA RESULT:      -7.7      4.168      7.792
REMARK  8 active torsions:
REMARK  status: ('A' for Active; 'I' for Inactive)
REMARK    1  A    between atoms: C_4  and  C_5 
REMARK    2  A    between atoms: C_5  and  N_6 
REMARK       I    between atoms: N_6  and  C_7 
REMARK    3  A    between atoms: C_7  and  C_8 
REMARK    4  A    between atoms: C_9  and  N_10 
REMARK       I    between atoms: N_10  and  C_11 
REMARK    5  A    between atoms: C_11  and  C_12 
REMARK    6  A    between atoms: C_12  and  C_13 
REMARK    7  A    between atoms: C_13  and  C_14 
REMARK    8  A    between atoms: C_14  and  N_15 
ROOT
HETATM    1  C   UNL     1      42.082 -15.541   3.172  1.00  0.00     0.073 A 
HETATM    2  C   UNL     1      42.276 -14.264   3.686  1.00  0.00     0.093 A 
HETATM    3  S   UNL     1      42.088 -13.032   2.502  1.00  0.00    -0.075 SA
HETATM    4  C   UNL     1      41.669 -14.137   1.302  1.00  0.00    -0.008 A 
HETATM    5  C   UNL     1      41.750 -15.441   1.742  1.00  0.00    -0.026 A 
HETATM    6  C   UNL     1      41.474 -16.592   0.803  1.00  0.00     0.041 C 
HETATM    7  C   UNL     1      41.464 -16.157  -0.672  1.00  0.00     0.005 C 
HETATM    8  C   UNL     1      40.688 -14.852  -0.874  1.00  0.00     0.005 C 
HETATM    9  C   UNL     1      41.325 -13.700  -0.088  1.00  0.00     0.047 C 
ENDROOT
BRANCH   2  10
HETATM   10  N   UNL     1      42.639 -13.634   4.858  1.00  0.00    -0.320 N 
HETATM   11  C   UNL     1      43.526 -14.049   5.820  1.00  0.00     0.222 C 
HETATM   12  O   UNL     1      44.089 -15.133   5.871  1.00  0.00    -0.273 OA
HETATM   13  H   UNL     1      41.994 -12.899   5.126  1.00  0.00     0.169 HD
BRANCH  11  14
HETATM   14  C   UNL     1      43.649 -13.011   6.928  1.00  0.00     0.105 C 
BRANCH  14  15
HETATM   15  C   UNL     1      44.706 -13.333   7.980  1.00  0.00     0.029 C 
BRANCH  15  16
HETATM   16  C   UNL     1      45.190 -12.087   8.723  1.00  0.00     0.136 C 
BRANCH  16  17
HETATM   17  N   UNL     1      44.233 -11.674   9.733  1.00  0.00    -0.280 N 
HETATM   18  C   UNL     1      44.279 -12.089  11.037  1.00  0.00     0.261 A 
HETATM   19  O   UNL     1      45.061 -12.849  11.576  1.00  0.00    -0.267 OA
HETATM   20  C   UNL     1      43.188 -11.405  11.728  1.00  0.00     0.048 A 
HETATM   21  C   UNL     1      42.562 -10.583  10.809  1.00  0.00     0.048 A 
HETATM   22  C   UNL     1      42.775 -11.476  13.044  1.00  0.00     0.018 A 
HETATM   23  C   UNL     1      43.253 -10.742   9.531  1.00  0.00     0.261 A 
HETATM   24  C   UNL     1      41.488  -9.786  11.152  1.00  0.00     0.018 A 
HETATM   25  O   UNL     1      42.970 -10.120   8.525  1.00  0.00    -0.267 OA
HETATM   26  C   UNL     1      41.049  -9.842  12.479  1.00  0.00     0.001 A 
HETATM   27  C   UNL     1      41.687 -10.680  13.417  1.00  0.00     0.001 A 
ENDBRANCH  16  17
ENDBRANCH  15  16
ENDBRANCH  14  15
ENDBRANCH  11  14
ENDBRANCH   2  10
BRANCH   1  28
HETATM   28  C   UNL     1      42.255 -16.862   3.796  1.00  0.00     0.255 C 
HETATM   29  N   UNL     1      43.529 -17.338   3.914  1.00  0.00    -0.353 N 
HETATM   30  H   UNL     1      44.258 -16.946   3.324  1.00  0.00     0.163 HD
HETATM   31  O   UNL     1      41.300 -17.451   4.301  1.00  0.00    -0.268 OA
BRANCH  29  32
HETATM   32  C   UNL     1      43.847 -18.529   4.662  1.00  0.00     0.161 C 
BRANCH  32  33
HETATM   33  C   UNL     1      44.013 -19.751   3.797  1.00  0.00    -0.041 A 
HETATM   34  C   UNL     1      44.606 -20.914   4.304  1.00  0.00     0.009 A 
HETATM   35  C   UNL     1      44.736 -22.051   3.503  1.00  0.00     0.001 A 
HETATM   36  C   UNL     1      44.286 -22.034   2.185  1.00  0.00     0.000 A 
HETATM   37  C   UNL     1      43.706 -20.879   1.664  1.00  0.00     0.001 A 
HETATM   38  C   UNL     1      43.572 -19.744   2.466  1.00  0.00     0.009 A 
ENDBRANCH  32  33
ENDBRANCH  29  32
ENDBRANCH   1  28
TORSDOF 8
ENDMDL
MODEL 7
REMARK VINA RESULT:      -7.7      4.116      7.518
REMARK  8 active torsions:
REMARK  status: ('A' for Active; 'I' for Inactive)
REMARK    1  A    between atoms: C_4  and  C_5 
REMARK    2  A    between atoms: C_5  and  N_6 
REMARK       I    between atoms: N_6  and  C_7 
REMARK    3  A    between atoms: C_7  and  C_8 
REMARK    4  A    between atoms: C_9  and  N_10 
REMARK       I    between atoms: N_10  and  C_11 
REMARK    5  A    between atoms: C_11  and  C_12 
REMARK    6  A    between atoms: C_12  and  C_13 
REMARK    7  A    between atoms: C_13  and  C_14 
REMARK    8  A    between atoms: C_14  and  N_15 
ROOT
HETATM    1  C   UNL     1      43.627 -14.681   6.107  1.00  0.00     0.073 A 
HETATM    2  C   UNL     1      42.549 -14.393   5.279  1.00  0.00     0.093 A 
HETATM    3  S   UNL     1      41.794 -15.804   4.652  1.00  0.00    -0.075 SA
HETATM    4  C   UNL     1      42.813 -16.831   5.514  1.00  0.00    -0.008 A 
HETATM    5  C   UNL     1      43.783 -16.140   6.209  1.00  0.00    -0.026 A 
HETATM    6  C   UNL     1      44.839 -16.877   7.000  1.00  0.00     0.041 C 
HETATM    7  C   UNL     1      44.901 -18.372   6.645  1.00  0.00     0.005 C 
HETATM    8  C   UNL     1      43.504 -18.991   6.545  1.00  0.00     0.005 C 
HETATM    9  C   UNL     1      42.678 -18.320   5.441  1.00  0.00     0.047 C 
ENDROOT
BRANCH   2  10
HETATM   10  N   UNL     1      41.894 -13.314   4.725  1.00  0.00    -0.320 N 
HETATM   11  C   UNL     1      42.032 -12.772   3.471  1.00  0.00     0.222 C 
HETATM   12  O   UNL     1      42.862 -13.087   2.631  1.00  0.00    -0.273 OA
HETATM   13  H   UNL     1      41.434 -12.733   5.418  1.00  0.00     0.169 HD
BRANCH  11  14
HETATM   14  C   UNL     1      41.071 -11.607   3.273  1.00  0.00     0.105 C 
BRANCH  14  15
HETATM   15  C   UNL     1      40.217 -11.280   4.494  1.00  0.00     0.029 C 
BRANCH  15  16
HETATM   16  C   UNL     1      40.596  -9.942   5.131  1.00  0.00     0.136 C 
BRANCH  16  17
HETATM   17  N   UNL     1      40.346  -9.952   6.561  1.00  0.00    -0.280 N 
HETATM   18  C   UNL     1      39.271  -9.340   7.147  1.00  0.00     0.261 A 
HETATM   19  O   UNL     1      38.379  -8.691   6.634  1.00  0.00    -0.267 OA
HETATM   20  C   UNL     1      39.355  -9.636   8.576  1.00  0.00     0.048 A 
HETATM   21  C   UNL     1      40.460 -10.443   8.771  1.00  0.00     0.048 A 
HETATM   22  C   UNL     1      38.539  -9.250   9.622  1.00  0.00     0.018 A 
HETATM   23  C   UNL     1      41.082 -10.663   7.467  1.00  0.00     0.261 A 
HETATM   24  C   UNL     1      40.814 -10.911  10.021  1.00  0.00     0.018 A 
HETATM   25  O   UNL     1      42.056 -11.371   7.290  1.00  0.00    -0.267 OA
HETATM   26  C   UNL     1      40.005 -10.532  11.098  1.00  0.00     0.001 A 
HETATM   27  C   UNL     1      38.877  -9.708  10.900  1.00  0.00     0.001 A 
ENDBRANCH  16  17
ENDBRANCH  15  16
ENDBRANCH  14  15
ENDBRANCH  11  14
ENDBRANCH   2  10
BRANCH   1  28
HETATM   28  C   UNL     1      44.607 -13.791   6.750  1.00  0.00     0.255 C 
HETATM   29  N   UNL     1      44.317 -13.340   8.006  1.00  0.00    -0.353 N 
HETATM   30  H   UNL     1      43.354 -13.366   8.327  1.00  0.00     0.163 HD
HETATM   31  O   UNL     1      45.697 -13.567   6.224  1.00  0.00    -0.268 OA
BRANCH  29  32
HETATM   32  C   UNL     1      45.268 -12.613   8.809  1.00  0.00     0.161 C 
BRANCH  32  33
HETATM   33  C   UNL     1      44.650 -11.953  10.014  1.00  0.00    -0.041 A 
HETATM   34  C   UNL     1      44.161 -12.718  11.079  1.00  0.00     0.009 A 
HETATM   35  C   UNL     1      43.609 -12.099  12.203  1.00  0.00     0.001 A 
HETATM   36  C   UNL     1      43.531 -10.709  12.269  1.00  0.00     0.000 A 
HETATM   37  C   UNL     1      44.003  -9.937  11.211  1.00  0.00     0.001 A 
HETATM   38  C   UNL     1      44.558 -10.555  10.089  1.00  0.00     0.009 A 
ENDBRANCH  32  33
ENDBRANCH  29  32
ENDBRANCH   1  28
TORSDOF 8
ENDMDL
MODEL 8
REMARK VINA RESULT:      -7.6      2.961      8.172
REMARK  8 active torsions:
REMARK  status: ('A' for Active; 'I' for Inactive)
REMARK    1  A    between atoms: C_4  and  C_5 
REMARK    2  A    between atoms: C_5  and  N_6 
REMARK       I    between atoms: N_6  and  C_7 
REMARK    3  A    between atoms: C_7  and  C_8 
REMARK    4  A    between atoms: C_9  and  N_10 
REMARK       I    between atoms: N_10  and  C_11 
REMARK    5  A    between atoms: C_11  and  C_12 
REMARK    6  A    between atoms: C_12  and  C_13 
REMARK    7  A    between atoms: C_13  and  C_14 
REMARK    8  A    between atoms: C_14  and  N_15 
ROOT
HETATM    1  C   UNL     1      41.894 -13.417   4.172  1.00  0.00     0.073 A 
HETATM    2  C   UNL     1      41.241 -14.127   3.171  1.00  0.00     0.093 A 
HETATM    3  S   UNL     1      39.644 -13.560   2.886  1.00  0.00    -0.075 SA
HETATM    4  C   UNL     1      39.796 -12.317   4.012  1.00  0.00    -0.008 A 
HETATM    5  C   UNL     1      41.003 -12.363   4.679  1.00  0.00    -0.026 A 
HETATM    6  C   UNL     1      41.317 -11.373   5.776  1.00  0.00     0.041 C 
HETATM    7  C   UNL     1      40.067 -10.619   6.260  1.00  0.00     0.005 C 
HETATM    8  C   UNL     1      39.194 -10.154   5.092  1.00  0.00     0.005 C 
HETATM    9  C   UNL     1      38.687 -11.346   4.271  1.00  0.00     0.047 C 
ENDROOT
BRANCH   2  10
HETATM   10  N   UNL     1      41.431 -15.210   2.340  1.00  0.00    -0.320 N 
HETATM   11  C   UNL     1      41.791 -15.227   1.015  1.00  0.00     0.222 C 
HETATM   12  O   UNL     1      41.905 -14.256   0.280  1.00  0.00    -0.273 OA
HETATM   13  H   UNL     1      41.030 -16.066   2.708  1.00  0.00     0.169 HD
BRANCH  11  14
HETATM   14  C   UNL     1      41.927 -16.657   0.507  1.00  0.00     0.105 C 
BRANCH  14  15
HETATM   15  C   UNL     1      43.040 -17.460   1.174  1.00  0.00     0.029 C 
BRANCH  15  16
HETATM   16  C   UNL     1      42.501 -18.610   2.027  1.00  0.00     0.136 C 
BRANCH  16  17
HETATM   17  N   UNL     1      42.824 -18.419   3.428  1.00  0.00    -0.280 N 
HETATM   18  C   UNL     1      41.985 -17.815   4.326  1.00  0.00     0.261 A 
HETATM   19  O   UNL     1      40.884 -17.331   4.144  1.00  0.00    -0.267 OA
HETATM   20  C   UNL     1      42.652 -17.878   5.625  1.00  0.00     0.048 A 
HETATM   21  C   UNL     1      43.847 -18.550   5.448  1.00  0.00     0.048 A 
HETATM   22  C   UNL     1      42.257 -17.404   6.860  1.00  0.00     0.018 A 
HETATM   23  C   UNL     1      43.943 -18.917   4.036  1.00  0.00     0.261 A 
HETATM   24  C   UNL     1      44.716 -18.787   6.495  1.00  0.00     0.018 A 
HETATM   25  O   UNL     1      44.861 -19.560   3.563  1.00  0.00    -0.267 OA
HETATM   26  C   UNL     1      44.339 -18.315   7.756  1.00  0.00     0.001 A 
HETATM   27  C   UNL     1      43.120 -17.629   7.938  1.00  0.00     0.001 A 
ENDBRANCH  16  17
ENDBRANCH  15  16
ENDBRANCH  14  15
ENDBRANCH  11  14
ENDBRANCH   2  10
BRANCH   1  28
HETATM   28  C   UNL     1      43.206 -13.636   4.803  1.00  0.00     0.255 C 
HETATM   29  N   UNL     1      43.217 -13.998   6.119  1.00  0.00    -0.353 N 
HETATM   30  H   UNL     1      42.395 -13.814   6.687  1.00  0.00     0.163 HD
HETATM   31  O   UNL     1      44.238 -13.615   4.134  1.00  0.00    -0.268 OA
BRANCH  29  32
HETATM   32  C   UNL     1      44.417 -14.414   6.801  1.00  0.00     0.161 C 
BRANCH  32  33
HETATM   33  C   UNL     1      45.030 -13.328   7.646  1.00  0.00    -0.041 A 
HETATM   34  C   UNL     1      46.314 -12.844   7.371  1.00  0.00     0.009 A 
HETATM   35  C   UNL     1      46.868 -11.821   8.145  1.00  0.00     0.001 A 
HETATM   36  C   UNL     1      46.147 -11.279   9.207  1.00  0.00     0.000 A 
HETATM   37  C   UNL     1      44.873 -11.760   9.499  1.00  0.00     0.001 A 
HETATM   38  C   UNL     1      44.318 -12.780   8.723  1.00  0.00     0.009 A 
ENDBRANCH  32  33
ENDBRANCH  29  32
ENDBRANCH   1  28
TORSDOF 8
ENDMDL
MODEL 9
REMARK VINA RESULT:      -7.4      3.576      8.752
REMARK  8 active torsions:
REMARK  status: ('A' for Active; 'I' for Inactive)
REMARK    1  A    between atoms: C_4  and  C_5 
REMARK    2  A    between atoms: C_5  and  N_6 
REMARK       I    between atoms: N_6  and  C_7 
REMARK    3  A    between atoms: C_7  and  C_8 
REMARK    4  A    between atoms: C_9  and  N_10 
REMARK       I    between atoms: N_10  and  C_11 
REMARK    5  A    between atoms: C_11  and  C_12 
REMARK    6  A    between atoms: C_12  and  C_13 
REMARK    7  A    between atoms: C_13  and  C_14 
REMARK    8  A    between atoms: C_14  and  N_15 
ROOT
HETATM    1  C   UNL     1      41.062 -12.146   5.479  1.00  0.00     0.073 A 
HETATM    2  C   UNL     1      41.971 -13.086   5.010  1.00  0.00     0.093 A 
HETATM    3  S   UNL     1      42.137 -13.058   3.299  1.00  0.00    -0.075 SA
HETATM    4  C   UNL     1      41.079 -11.757   3.137  1.00  0.00    -0.008 A 
HETATM    5  C   UNL     1      40.521 -11.386   4.342  1.00  0.00    -0.026 A 
HETATM    6  C   UNL     1      39.496 -10.278   4.409  1.00  0.00     0.041 C 
HETATM    7  C   UNL     1      38.934  -9.914   3.025  1.00  0.00     0.005 C 
HETATM    8  C   UNL     1      40.039  -9.818   1.970  1.00  0.00     0.005 C 
HETATM    9  C   UNL     1      40.763 -11.159   1.802  1.00  0.00     0.047 C 
ENDROOT
BRANCH   2  10
HETATM   10  N   UNL     1      42.772 -14.111   5.468  1.00  0.00    -0.320 N 
HETATM   11  C   UNL     1      43.628 -14.122   6.542  1.00  0.00     0.222 C 
HETATM   12  O   UNL     1      43.927 -13.165   7.242  1.00  0.00    -0.273 OA
HETATM   13  H   UNL     1      42.899 -14.849   4.784  1.00  0.00     0.169 HD
BRANCH  11  14
HETATM   14  C   UNL     1      44.280 -15.488   6.703  1.00  0.00     0.105 C 
BRANCH  14  15
HETATM   15  C   UNL     1      43.627 -16.379   7.755  1.00  0.00     0.029 C 
BRANCH  15  16
HETATM   16  C   UNL     1      42.487 -17.223   7.181  1.00  0.00     0.136 C 
BRANCH  16  17
HETATM   17  N   UNL     1      42.899 -17.905   5.968  1.00  0.00    -0.280 N 
HETATM   18  C   UNL     1      43.751 -18.977   5.953  1.00  0.00     0.261 A 
HETATM   19  O   UNL     1      44.314 -19.527   6.881  1.00  0.00    -0.267 OA
HETATM   20  C   UNL     1      43.858 -19.402   4.559  1.00  0.00     0.048 A 
HETATM   21  C   UNL     1      43.034 -18.583   3.809  1.00  0.00     0.048 A 
HETATM   22  C   UNL     1      44.597 -20.417   3.984  1.00  0.00     0.018 A 
HETATM   23  C   UNL     1      42.401 -17.635   4.724  1.00  0.00     0.261 A 
HETATM   24  C   UNL     1      42.902 -18.731   2.442  1.00  0.00     0.018 A 
HETATM   25  O   UNL     1      41.582 -16.805   4.381  1.00  0.00    -0.267 OA
HETATM   26  C   UNL     1      43.642 -19.752   1.836  1.00  0.00     0.001 A 
HETATM   27  C   UNL     1      44.482 -20.588   2.600  1.00  0.00     0.001 A 
ENDBRANCH  16  17
ENDBRANCH  15  16
ENDBRANCH  14  15
ENDBRANCH  11  14
ENDBRANCH   2  10
BRANCH   1  28
HETATM   28  C   UNL     1      40.540 -11.910   6.835  1.00  0.00     0.255 C 
HETATM   29  N   UNL     1      41.327 -11.200   7.695  1.00  0.00    -0.353 N 
HETATM   30  H   UNL     1      42.323 -11.125   7.504  1.00  0.00     0.163 HD
HETATM   31  O   UNL     1      39.392 -12.233   7.134  1.00  0.00    -0.268 OA
BRANCH  29  32
HETATM   32  C   UNL     1      40.862 -10.750   8.984  1.00  0.00     0.161 C 
BRANCH  32  33
HETATM   33  C   UNL     1      41.962 -10.617  10.003  1.00  0.00    -0.041 A 
HETATM   34  C   UNL     1      41.665 -10.464  11.363  1.00  0.00     0.009 A 
HETATM   35  C   UNL     1      42.691 -10.364  12.306  1.00  0.00     0.001 A 
HETATM   36  C   UNL     1      44.023 -10.405  11.899  1.00  0.00     0.000 A 
HETATM   37  C   UNL     1      44.332 -10.545  10.548  1.00  0.00     0.001 A 
HETATM   38  C   UNL     1      43.307 -10.649   9.606  1.00  0.00     0.009 A 
ENDBRANCH  32  33
ENDBRANCH  29  32
ENDBRANCH   1  28
TORSDOF 8
ENDMDL
MODEL 10
REMARK VINA RESULT:      -7.4      2.620      7.160
REMARK  8 active torsions:
REMARK  status: ('A' for Active; 'I' for Inactive)
REMARK    1  A    between atoms: C_4  and  C_5 
REMARK    2  A    between atoms: C_5  and  N_6 
REMARK       I    between atoms: N_6  and  C_7 
REMARK    3  A    between atoms: C_7  and  C_8 
REMARK    4  A    between atoms: C_9  and  N_10 
REMARK       I    between atoms: N_10  and  C_11 
REMARK    5  A    between atoms: C_11  and  C_12 
REMARK    6  A    between atoms: C_12  and  C_13 
REMARK    7  A    between atoms: C_13  and  C_14 
REMARK    8  A    between atoms: C_14  and  N_15 
ROOT
HETATM    1  C   UNL     1      41.511 -12.620  -0.680  1.00  0.00     0.073 A 
HETATM    2  C   UNL     1      41.833 -11.781   0.381  1.00  0.00     0.093 A 
HETATM    3  S   UNL     1      42.546 -10.303  -0.131  1.00  0.00    -0.075 SA
HETATM    4  C   UNL     1      42.378 -10.692  -1.761  1.00  0.00    -0.008 A 
HETATM    5  C   UNL     1      41.872 -11.962  -1.945  1.00  0.00    -0.026 A 
HETATM    6  C   UNL     1      41.699 -12.531  -3.333  1.00  0.00     0.041 C 
HETATM    7  C   UNL     1      42.454 -11.717  -4.399  1.00  0.00     0.005 C 
HETATM    8  C   UNL     1      42.264 -10.211  -4.203  1.00  0.00     0.005 C 
HETATM    9  C   UNL     1      42.811  -9.755  -2.845  1.00  0.00     0.047 C 
ENDROOT
BRANCH   2  10
HETATM   10  N   UNL     1      41.825 -11.760   1.759  1.00  0.00    -0.320 N 
HETATM   11  C   UNL     1      40.779 -11.992   2.619  1.00  0.00     0.222 C 
HETATM   12  O   UNL     1      39.607 -12.155   2.310  1.00  0.00    -0.273 OA
HETATM   13  H   UNL     1      42.635 -11.293   2.152  1.00  0.00     0.169 HD
BRANCH  11  14
HETATM   14  C   UNL     1      41.238 -11.905   4.068  1.00  0.00     0.105 C 
BRANCH  14  15
HETATM   15  C   UNL     1      42.454 -12.764   4.397  1.00  0.00     0.029 C 
BRANCH  15  16
HETATM   16  C   UNL     1      42.408 -13.323   5.820  1.00  0.00     0.136 C 
BRANCH  16  17
HETATM   17  N   UNL     1      42.805 -14.719   5.849  1.00  0.00    -0.280 N 
HETATM   18  C   UNL     1      44.016 -15.153   6.318  1.00  0.00     0.261 A 
HETATM   19  O   UNL     1      44.949 -14.507   6.757  1.00  0.00    -0.267 OA
HETATM   20  C   UNL     1      43.995 -16.612   6.231  1.00  0.00     0.048 A 
HETATM   21  C   UNL     1      42.754 -16.983   5.745  1.00  0.00     0.048 A 
HETATM   22  C   UNL     1      44.961 -17.545   6.553  1.00  0.00     0.018 A 
HETATM   23  C   UNL     1      41.983 -15.761   5.522  1.00  0.00     0.261 A 
HETATM   24  C   UNL     1      42.409 -18.306   5.553  1.00  0.00     0.018 A 
HETATM   25  O   UNL     1      40.830 -15.748   5.137  1.00  0.00    -0.267 OA
HETATM   26  C   UNL     1      43.372 -19.270   5.870  1.00  0.00     0.001 A 
HETATM   27  C   UNL     1      44.637 -18.893   6.366  1.00  0.00     0.001 A 
ENDBRANCH  16  17
ENDBRANCH  15  16
ENDBRANCH  14  15
ENDBRANCH  11  14
ENDBRANCH   2  10
BRANCH   1  28
HETATM   28  C   UNL     1      40.999 -14.000  -0.689  1.00  0.00     0.255 C 
HETATM   29  N   UNL     1      41.772 -14.960  -0.102  1.00  0.00    -0.353 N 
HETATM   30  H   UNL     1      42.761 -14.776   0.039  1.00  0.00     0.163 HD
HETATM   31  O   UNL     1      39.866 -14.250  -1.099  1.00  0.00    -0.268 OA
BRANCH  29  32
HETATM   32  C   UNL     1      41.308 -16.308   0.112  1.00  0.00     0.161 C 
BRANCH  32  33
HETATM   33  C   UNL     1      42.274 -17.154   0.898  1.00  0.00    -0.041 A 
HETATM   34  C   UNL     1      43.538 -16.663   1.246  1.00  0.00     0.009 A 
HETATM   35  C   UNL     1      44.422 -17.444   1.995  1.00  0.00     0.001 A 
HETATM   36  C   UNL     1      44.054 -18.728   2.394  1.00  0.00     0.000 A 
HETATM   37  C   UNL     1      42.805 -19.233   2.044  1.00  0.00     0.001 A 
HETATM   38  C   UNL     1      41.921 -18.451   1.299  1.00  0.00     0.009 A 
ENDBRANCH  32  33
ENDBRANCH  29  32
ENDBRANCH   1  28
TORSDOF 8
ENDMDL
