MODEL 1
REMARK VINA RESULT:      -9.4      0.000      0.000
REMARK  6 active torsions:
REMARK  status: ('A' for Active; 'I' for Inactive)
REMARK    1  A    between atoms: O_2  and  C_3 
REMARK    2  A    between atoms: C_6  and  C_7 
REMARK    3  A    between atoms: C_7  and  N_8 
REMARK       I    between atoms: N_8  and  C_9 
REMARK    4  A    between atoms: C_9  and  C_10 
REMARK    5  A    between atoms: C_10  and  S_11 
REMARK    6  A    between atoms: S_11  and  C_12 
ROOT
HETATM    1  C   UNL     1      41.352 -15.701   1.740  1.00  0.00     0.198 A 
HETATM    2  N   UNL     1      42.126 -16.152   2.798  1.00  0.00    -0.257 N 
HETATM    3  C   UNL     1      42.427 -17.459   2.412  1.00  0.00     0.173 A 
HETATM    4  C   UNL     1      43.264 -18.324   3.278  1.00  0.00     0.053 A 
HETATM    5  C   UNL     1      43.686 -17.748   4.457  1.00  0.00     0.090 A 
HETATM    6  S   UNL     1      44.621 -18.831   5.377  1.00  0.00    -0.075 SA
HETATM    7  C   UNL     1      44.456 -20.056   4.198  1.00  0.00    -0.008 A 
HETATM    8  C   UNL     1      43.711 -19.657   3.100  1.00  0.00    -0.028 A 
HETATM    9  C   UNL     1      43.435 -20.570   1.945  1.00  0.00     0.041 C 
HETATM   10  C   UNL     1      44.374 -21.789   1.949  1.00  0.00     0.005 C 
HETATM   11  C   UNL     1      44.509 -22.400   3.351  1.00  0.00     0.005 C 
HETATM   12  C   UNL     1      45.100 -21.399   4.355  1.00  0.00     0.047 C 
HETATM   13  N   UNL     1      43.381 -16.474   4.823  1.00  0.00    -0.336 N 
HETATM   14  C   UNL     1      42.603 -15.604   4.036  1.00  0.00     0.106 A 
HETATM   15  C   UNL     1      42.365 -14.360   4.484  1.00  0.00     0.064 C 
HETATM   16  N   UNL     1      41.883 -17.759   1.258  1.00  0.00    -0.128 NA
HETATM   17  N   UNL     1      41.202 -16.650   0.836  1.00  0.00    -0.122 NA
HETATM   18  H   UNL     1      43.729 -16.109   5.705  1.00  0.00     0.168 HD
ENDROOT
BRANCH   1  19
HETATM   19  S   UNL     1      40.654 -14.122   1.580  1.00  0.00    -0.080 SA
BRANCH  19  20
HETATM   20  C   UNL     1      42.073 -13.207   0.904  1.00  0.00     0.185 C 
BRANCH  20  21
HETATM   21  C   UNL     1      41.900 -12.979  -0.587  1.00  0.00     0.227 C 
HETATM   22  N   UNL     1      41.864 -14.125  -1.353  1.00  0.00    -0.356 N 
HETATM   23  H   UNL     1      41.613 -14.989  -0.890  1.00  0.00     0.162 HD
HETATM   24  O   UNL     1      41.866 -11.851  -1.076  1.00  0.00    -0.273 OA
BRANCH  22  25
HETATM   25  C   UNL     1      41.646 -14.038  -2.779  1.00  0.00     0.161 C 
BRANCH  25  26
HETATM   26  C   UNL     1      40.222 -14.346  -3.161  1.00  0.00    -0.040 A 
HETATM   27  C   UNL     1      39.250 -13.338  -3.131  1.00  0.00     0.011 A 
HETATM   28  C   UNL     1      37.940 -13.603  -3.539  1.00  0.00     0.037 A 
HETATM   29  C   UNL     1      37.578 -14.871  -3.996  1.00  0.00     0.068 A 
HETATM   30  C   UNL     1      38.538 -15.881  -4.028  1.00  0.00     0.037 A 
HETATM   31  C   UNL     1      39.851 -15.618  -3.623  1.00  0.00     0.011 A 
BRANCH  29  32
HETATM   32  O   UNL     1      36.270 -14.990  -4.378  1.00  0.00    -0.356 OA
HETATM   33  C   UNL     1      35.698 -13.877  -5.053  1.00  0.00     0.210 C 
ENDBRANCH  29  32
ENDBRANCH  25  26
ENDBRANCH  22  25
ENDBRANCH  20  21
ENDBRANCH  19  20
ENDBRANCH   1  19
TORSDOF 6
ENDMDL
MODEL 2
REMARK VINA RESULT:      -9.1      6.018      9.741
REMARK  6 active torsions:
REMARK  status: ('A' for Active; 'I' for Inactive)
REMARK    1  A    between atoms: O_2  and  C_3 
REMARK    2  A    between atoms: C_6  and  C_7 
REMARK    3  A    between atoms: C_7  and  N_8 
REMARK       I    between atoms: N_8  and  C_9 
REMARK    4  A    between atoms: C_9  and  C_10 
REMARK    5  A    between atoms: C_10  and  S_11 
REMARK    6  A    between atoms: S_11  and  C_12 
ROOT
HETATM    1  C   UNL     1      44.141 -15.974   6.556  1.00  0.00     0.198 A 
HETATM    2  N   UNL     1      43.614 -16.318   5.320  1.00  0.00    -0.257 N 
HETATM    3  C   UNL     1      44.054 -17.634   5.165  1.00  0.00     0.173 A 
HETATM    4  C   UNL     1      43.701 -18.404   3.948  1.00  0.00     0.053 A 
HETATM    5  C   UNL     1      42.944 -17.726   3.018  1.00  0.00     0.090 A 
HETATM    6  S   UNL     1      42.613 -18.695   1.660  1.00  0.00    -0.075 SA
HETATM    7  C   UNL     1      43.479 -20.010   2.323  1.00  0.00    -0.008 A 
HETATM    8  C   UNL     1      44.010 -19.736   3.572  1.00  0.00    -0.028 A 
HETATM    9  C   UNL     1      44.812 -20.742   4.340  1.00  0.00     0.041 C 
HETATM   10  C   UNL     1      44.627 -22.162   3.779  1.00  0.00     0.005 C 
HETATM   11  C   UNL     1      44.699 -22.182   2.245  1.00  0.00     0.005 C 
HETATM   12  C   UNL     1      43.596 -21.322   1.610  1.00  0.00     0.047 C 
HETATM   13  N   UNL     1      42.526 -16.441   3.181  1.00  0.00    -0.336 N 
HETATM   14  C   UNL     1      42.819 -15.667   4.319  1.00  0.00     0.106 A 
HETATM   15  C   UNL     1      42.351 -14.409   4.387  1.00  0.00     0.064 C 
HETATM   16  N   UNL     1      44.773 -18.027   6.187  1.00  0.00    -0.128 NA
HETATM   17  N   UNL     1      44.830 -16.978   7.063  1.00  0.00    -0.122 NA
HETATM   18  H   UNL     1      41.965 -16.001   2.457  1.00  0.00     0.168 HD
ENDROOT
BRANCH   1  19
HETATM   19  S   UNL     1      43.951 -14.452   7.364  1.00  0.00    -0.080 SA
BRANCH  19  20
HETATM   20  C   UNL     1      45.512 -13.642   6.899  1.00  0.00     0.185 C 
BRANCH  20  21
HETATM   21  C   UNL     1      45.944 -12.660   7.974  1.00  0.00     0.227 C 
HETATM   22  N   UNL     1      45.037 -12.477   8.996  1.00  0.00    -0.356 N 
HETATM   23  H   UNL     1      44.354 -13.208   9.152  1.00  0.00     0.162 HD
HETATM   24  O   UNL     1      46.994 -12.027   7.896  1.00  0.00    -0.273 OA
BRANCH  22  25
HETATM   25  C   UNL     1      45.360 -11.609  10.106  1.00  0.00     0.161 C 
BRANCH  25  26
HETATM   26  C   UNL     1      44.170 -10.813  10.576  1.00  0.00    -0.040 A 
HETATM   27  C   UNL     1      43.051 -10.664   9.747  1.00  0.00     0.011 A 
HETATM   28  C   UNL     1      41.921  -9.976  10.198  1.00  0.00     0.037 A 
HETATM   29  C   UNL     1      41.880  -9.436  11.485  1.00  0.00     0.068 A 
HETATM   30  C   UNL     1      42.990  -9.579  12.316  1.00  0.00     0.037 A 
HETATM   31  C   UNL     1      44.122 -10.270  11.868  1.00  0.00     0.011 A 
BRANCH  29  32
HETATM   32  O   UNL     1      40.711  -8.803  11.803  1.00  0.00    -0.356 OA
HETATM   33  C   UNL     1      39.535  -9.603  11.820  1.00  0.00     0.210 C 
ENDBRANCH  29  32
ENDBRANCH  25  26
ENDBRANCH  22  25
ENDBRANCH  20  21
ENDBRANCH  19  20
ENDBRANCH   1  19
TORSDOF 6
ENDMDL
MODEL 3
REMARK VINA RESULT:      -8.9      2.842      6.303
REMARK  6 active torsions:
REMARK  status: ('A' for Active; 'I' for Inactive)
REMARK    1  A    between atoms: O_2  and  C_3 
REMARK    2  A    between atoms: C_6  and  C_7 
REMARK    3  A    between atoms: C_7  and  N_8 
REMARK       I    between atoms: N_8  and  C_9 
REMARK    4  A    between atoms: C_9  and  C_10 
REMARK    5  A    between atoms: C_10  and  S_11 
REMARK    6  A    between atoms: S_11  and  C_12 
ROOT
HETATM    1  C   UNL     1      41.227 -12.667   1.007  1.00  0.00     0.198 A 
HETATM    2  N   UNL     1      40.760 -13.575   1.946  1.00  0.00    -0.257 N 
HETATM    3  C   UNL     1      41.842 -13.680   2.822  1.00  0.00     0.173 A 
HETATM    4  C   UNL     1      41.763 -14.568   4.007  1.00  0.00     0.053 A 
HETATM    5  C   UNL     1      40.582 -15.263   4.149  1.00  0.00     0.090 A 
HETATM    6  S   UNL     1      40.608 -16.260   5.526  1.00  0.00    -0.075 SA
HETATM    7  C   UNL     1      42.192 -15.758   5.922  1.00  0.00    -0.008 A 
HETATM    8  C   UNL     1      42.706 -14.829   5.033  1.00  0.00    -0.028 A 
HETATM    9  C   UNL     1      44.081 -14.253   5.183  1.00  0.00     0.041 C 
HETATM   10  C   UNL     1      44.649 -14.498   6.591  1.00  0.00     0.005 C 
HETATM   11  C   UNL     1      44.403 -15.939   7.061  1.00  0.00     0.005 C 
HETATM   12  C   UNL     1      42.903 -16.266   7.139  1.00  0.00     0.047 C 
HETATM   13  N   UNL     1      39.537 -15.153   3.283  1.00  0.00    -0.336 N 
HETATM   14  C   UNL     1      39.550 -14.318   2.151  1.00  0.00     0.106 A 
HETATM   15  C   UNL     1      38.462 -14.275   1.363  1.00  0.00     0.064 C 
HETATM   16  N   UNL     1      42.846 -12.929   2.442  1.00  0.00    -0.128 NA
HETATM   17  N   UNL     1      42.458 -12.293   1.295  1.00  0.00    -0.122 NA
HETATM   18  H   UNL     1      38.691 -15.691   3.449  1.00  0.00     0.168 HD
ENDROOT
BRANCH   1  19
HETATM   19  S   UNL     1      40.355 -12.077  -0.370  1.00  0.00    -0.080 SA
BRANCH  19  20
HETATM   20  C   UNL     1      41.163 -13.025  -1.696  1.00  0.00     0.185 C 
BRANCH  20  21
HETATM   21  C   UNL     1      40.879 -14.508  -1.540  1.00  0.00     0.227 C 
HETATM   22  N   UNL     1      41.713 -15.174  -0.666  1.00  0.00    -0.356 N 
HETATM   23  H   UNL     1      42.191 -14.622   0.036  1.00  0.00     0.162 HD
HETATM   24  O   UNL     1      40.015 -15.082  -2.201  1.00  0.00    -0.273 OA
BRANCH  22  25
HETATM   25  C   UNL     1      41.505 -16.578  -0.392  1.00  0.00     0.161 C 
BRANCH  25  26
HETATM   26  C   UNL     1      42.168 -17.015   0.889  1.00  0.00    -0.040 A 
HETATM   27  C   UNL     1      41.522 -17.919   1.742  1.00  0.00     0.011 A 
HETATM   28  C   UNL     1      42.155 -18.373   2.902  1.00  0.00     0.037 A 
HETATM   29  C   UNL     1      43.444 -17.947   3.227  1.00  0.00     0.068 A 
HETATM   30  C   UNL     1      44.093 -17.046   2.384  1.00  0.00     0.037 A 
HETATM   31  C   UNL     1      43.463 -16.592   1.219  1.00  0.00     0.011 A 
BRANCH  29  32
HETATM   32  O   UNL     1      43.950 -18.480   4.379  1.00  0.00    -0.356 OA
HETATM   33  C   UNL     1      44.557 -19.762   4.278  1.00  0.00     0.210 C 
ENDBRANCH  29  32
ENDBRANCH  25  26
ENDBRANCH  22  25
ENDBRANCH  20  21
ENDBRANCH  19  20
ENDBRANCH   1  19
TORSDOF 6
ENDMDL
MODEL 4
REMARK VINA RESULT:      -8.7      4.961      8.840
REMARK  6 active torsions:
REMARK  status: ('A' for Active; 'I' for Inactive)
REMARK    1  A    between atoms: O_2  and  C_3 
REMARK    2  A    between atoms: C_6  and  C_7 
REMARK    3  A    between atoms: C_7  and  N_8 
REMARK       I    between atoms: N_8  and  C_9 
REMARK    4  A    between atoms: C_9  and  C_10 
REMARK    5  A    between atoms: C_10  and  S_11 
REMARK    6  A    between atoms: S_11  and  C_12 
ROOT
HETATM    1  C   UNL     1      41.261 -14.885   3.634  1.00  0.00     0.198 A 
HETATM    2  N   UNL     1      42.196 -15.609   4.358  1.00  0.00    -0.257 N 
HETATM    3  C   UNL     1      42.320 -16.775   3.601  1.00  0.00     0.173 A 
HETATM    4  C   UNL     1      43.249 -17.850   4.026  1.00  0.00     0.053 A 
HETATM    5  C   UNL     1      43.939 -17.609   5.194  1.00  0.00     0.090 A 
HETATM    6  S   UNL     1      44.959 -18.909   5.595  1.00  0.00    -0.075 SA
HETATM    7  C   UNL     1      44.474 -19.783   4.209  1.00  0.00    -0.008 A 
HETATM    8  C   UNL     1      43.556 -19.099   3.429  1.00  0.00    -0.028 A 
HETATM    9  C   UNL     1      42.990 -19.676   2.168  1.00  0.00     0.041 C 
HETATM   10  C   UNL     1      43.821 -20.869   1.667  1.00  0.00     0.005 C 
HETATM   11  C   UNL     1      44.189 -21.827   2.809  1.00  0.00     0.005 C 
HETATM   12  C   UNL     1      45.040 -21.131   3.884  1.00  0.00     0.047 C 
HETATM   13  N   UNL     1      43.805 -16.468   5.924  1.00  0.00    -0.336 N 
HETATM   14  C   UNL     1      42.949 -15.410   5.563  1.00  0.00     0.106 A 
HETATM   15  C   UNL     1      42.895 -14.321   6.349  1.00  0.00     0.064 C 
HETATM   16  N   UNL     1      41.537 -16.756   2.551  1.00  0.00    -0.128 NA
HETATM   17  N   UNL     1      40.866 -15.563   2.575  1.00  0.00    -0.122 NA
HETATM   18  H   UNL     1      44.347 -16.351   6.775  1.00  0.00     0.168 HD
ENDROOT
BRANCH   1  19
HETATM   19  S   UNL     1      40.660 -13.307   4.027  1.00  0.00    -0.080 SA
BRANCH  19  20
HETATM   20  C   UNL     1      39.620 -13.705   5.466  1.00  0.00     0.185 C 
BRANCH  20  21
HETATM   21  C   UNL     1      39.277 -12.446   6.241  1.00  0.00     0.227 C 
HETATM   22  N   UNL     1      39.464 -12.531   7.605  1.00  0.00    -0.356 N 
HETATM   23  H   UNL     1      40.104 -13.238   7.946  1.00  0.00     0.162 HD
HETATM   24  O   UNL     1      38.802 -11.452   5.697  1.00  0.00    -0.273 OA
BRANCH  22  25
HETATM   25  C   UNL     1      39.225 -11.378   8.444  1.00  0.00     0.161 C 
BRANCH  25  26
HETATM   26  C   UNL     1      40.427 -11.017   9.277  1.00  0.00    -0.040 A 
HETATM   27  C   UNL     1      40.366 -11.102  10.674  1.00  0.00     0.011 A 
HETATM   28  C   UNL     1      41.494 -10.825  11.451  1.00  0.00     0.037 A 
HETATM   29  C   UNL     1      42.704 -10.471  10.852  1.00  0.00     0.068 A 
HETATM   30  C   UNL     1      42.773 -10.383   9.463  1.00  0.00     0.037 A 
HETATM   31  C   UNL     1      41.646 -10.663   8.682  1.00  0.00     0.011 A 
BRANCH  29  32
HETATM   32  O   UNL     1      43.730 -10.242  11.726  1.00  0.00    -0.356 OA
HETATM   33  C   UNL     1      43.372  -9.796  13.028  1.00  0.00     0.210 C 
ENDBRANCH  29  32
ENDBRANCH  25  26
ENDBRANCH  22  25
ENDBRANCH  20  21
ENDBRANCH  19  20
ENDBRANCH   1  19
TORSDOF 6
ENDMDL
MODEL 5
REMARK VINA RESULT:      -8.7      1.867      2.913
REMARK  6 active torsions:
REMARK  status: ('A' for Active; 'I' for Inactive)
REMARK    1  A    between atoms: O_2  and  C_3 
REMARK    2  A    between atoms: C_6  and  C_7 
REMARK    3  A    between atoms: C_7  and  N_8 
REMARK       I    between atoms: N_8  and  C_9 
REMARK    4  A    between atoms: C_9  and  C_10 
REMARK    5  A    between atoms: C_10  and  S_11 
REMARK    6  A    between atoms: S_11  and  C_12 
ROOT
HETATM    1  C   UNL     1      41.901 -15.650   1.870  1.00  0.00     0.198 A 
HETATM    2  N   UNL     1      42.553 -16.190   2.969  1.00  0.00    -0.257 N 
HETATM    3  C   UNL     1      42.815 -17.495   2.548  1.00  0.00     0.173 A 
HETATM    4  C   UNL     1      43.523 -18.443   3.441  1.00  0.00     0.053 A 
HETATM    5  C   UNL     1      43.870 -17.944   4.678  1.00  0.00     0.090 A 
HETATM    6  S   UNL     1      44.659 -19.118   5.623  1.00  0.00    -0.075 SA
HETATM    7  C   UNL     1      44.533 -20.280   4.377  1.00  0.00    -0.008 A 
HETATM    8  C   UNL     1      43.911 -19.792   3.240  1.00  0.00    -0.028 A 
HETATM    9  C   UNL     1      43.689 -20.637   2.024  1.00  0.00     0.041 C 
HETATM   10  C   UNL     1      44.555 -21.908   2.050  1.00  0.00     0.005 C 
HETATM   11  C   UNL     1      44.532 -22.585   3.428  1.00  0.00     0.005 C 
HETATM   12  C   UNL     1      45.086 -21.664   4.525  1.00  0.00     0.047 C 
HETATM   13  N   UNL     1      43.604 -16.671   5.076  1.00  0.00    -0.336 N 
HETATM   14  C   UNL     1      42.948 -15.724   4.268  1.00  0.00     0.106 A 
HETATM   15  C   UNL     1      42.740 -14.488   4.752  1.00  0.00     0.064 C 
HETATM   16  N   UNL     1      42.360 -17.713   1.339  1.00  0.00    -0.128 NA
HETATM   17  N   UNL     1      41.780 -16.549   0.914  1.00  0.00    -0.122 NA
HETATM   18  H   UNL     1      43.892 -16.364   6.001  1.00  0.00     0.168 HD
ENDROOT
BRANCH   1  19
HETATM   19  S   UNL     1      41.308 -14.027   1.726  1.00  0.00    -0.080 SA
BRANCH  19  20
HETATM   20  C   UNL     1      39.530 -14.351   1.510  1.00  0.00     0.185 C 
BRANCH  20  21
HETATM   21  C   UNL     1      39.099 -14.036   0.090  1.00  0.00     0.227 C 
HETATM   22  N   UNL     1      39.887 -14.592  -0.897  1.00  0.00    -0.356 N 
HETATM   23  H   UNL     1      40.442 -15.402  -0.650  1.00  0.00     0.162 HD
HETATM   24  O   UNL     1      38.160 -13.283  -0.157  1.00  0.00    -0.273 OA
BRANCH  22  25
HETATM   25  C   UNL     1      39.544 -14.409  -2.289  1.00  0.00     0.161 C 
BRANCH  25  26
HETATM   26  C   UNL     1      40.400 -13.365  -2.957  1.00  0.00    -0.040 A 
HETATM   27  C   UNL     1      39.806 -12.344  -3.709  1.00  0.00     0.011 A 
HETATM   28  C   UNL     1      40.589 -11.339  -4.284  1.00  0.00     0.037 A 
HETATM   29  C   UNL     1      41.974 -11.326  -4.109  1.00  0.00     0.068 A 
HETATM   30  C   UNL     1      42.574 -12.340  -3.364  1.00  0.00     0.037 A 
HETATM   31  C   UNL     1      41.792 -13.345  -2.784  1.00  0.00     0.011 A 
BRANCH  29  32
HETATM   32  O   UNL     1      42.617 -10.281  -4.711  1.00  0.00    -0.356 OA
HETATM   33  C   UNL     1      42.266  -8.975  -4.270  1.00  0.00     0.210 C 
ENDBRANCH  29  32
ENDBRANCH  25  26
ENDBRANCH  22  25
ENDBRANCH  20  21
ENDBRANCH  19  20
ENDBRANCH   1  19
TORSDOF 6
ENDMDL
MODEL 6
REMARK VINA RESULT:      -8.6      1.614      2.079
REMARK  6 active torsions:
REMARK  status: ('A' for Active; 'I' for Inactive)
REMARK    1  A    between atoms: O_2  and  C_3 
REMARK    2  A    between atoms: C_6  and  C_7 
REMARK    3  A    between atoms: C_7  and  N_8 
REMARK       I    between atoms: N_8  and  C_9 
REMARK    4  A    between atoms: C_9  and  C_10 
REMARK    5  A    between atoms: C_10  and  S_11 
REMARK    6  A    between atoms: S_11  and  C_12 
ROOT
HETATM    1  C   UNL     1      40.714 -15.350   2.896  1.00  0.00     0.198 A 
HETATM    2  N   UNL     1      41.598 -15.929   3.795  1.00  0.00    -0.257 N 
HETATM    3  C   UNL     1      41.956 -17.110   3.142  1.00  0.00     0.173 A 
HETATM    4  C   UNL     1      42.915 -18.052   3.768  1.00  0.00     0.053 A 
HETATM    5  C   UNL     1      43.388 -17.678   5.008  1.00  0.00     0.090 A 
HETATM    6  S   UNL     1      44.464 -18.835   5.637  1.00  0.00    -0.075 SA
HETATM    7  C   UNL     1      44.291 -19.824   4.254  1.00  0.00    -0.008 A 
HETATM    8  C   UNL     1      43.438 -19.285   3.305  1.00  0.00    -0.028 A 
HETATM    9  C   UNL     1      43.135 -19.982   2.014  1.00  0.00     0.041 C 
HETATM   10  C   UNL     1      44.152 -21.098   1.719  1.00  0.00     0.005 C 
HETATM   11  C   UNL     1      44.438 -21.951   2.963  1.00  0.00     0.005 C 
HETATM   12  C   UNL     1      45.036 -21.114   4.105  1.00  0.00     0.047 C 
HETATM   13  N   UNL     1      43.026 -16.526   5.634  1.00  0.00    -0.336 N 
HETATM   14  C   UNL     1      42.131 -15.590   5.084  1.00  0.00     0.106 A 
HETATM   15  C   UNL     1      41.845 -14.477   5.780  1.00  0.00     0.064 C 
HETATM   16  N   UNL     1      41.346 -17.228   1.989  1.00  0.00    -0.128 NA
HETATM   17  N   UNL     1      40.560 -16.119   1.836  1.00  0.00    -0.122 NA
HETATM   18  H   UNL     1      43.416 -16.308   6.546  1.00  0.00     0.168 HD
ENDROOT
BRANCH   1  19
HETATM   19  S   UNL     1      39.900 -13.833   3.093  1.00  0.00    -0.080 SA
BRANCH  19  20
HETATM   20  C   UNL     1      41.309 -12.689   2.963  1.00  0.00     0.185 C 
BRANCH  20  21
HETATM   21  C   UNL     1      41.535 -12.282   1.519  1.00  0.00     0.227 C 
HETATM   22  N   UNL     1      40.430 -11.759   0.880  1.00  0.00    -0.356 N 
HETATM   23  H   UNL     1      39.694 -11.373   1.459  1.00  0.00     0.162 HD
HETATM   24  O   UNL     1      42.605 -12.472   0.945  1.00  0.00    -0.273 OA
BRANCH  22  25
HETATM   25  C   UNL     1      40.535 -11.284  -0.481  1.00  0.00     0.161 C 
BRANCH  25  26
HETATM   26  C   UNL     1      40.326 -12.384  -1.490  1.00  0.00    -0.040 A 
HETATM   27  C   UNL     1      41.284 -12.619  -2.484  1.00  0.00     0.011 A 
HETATM   28  C   UNL     1      41.125 -13.674  -3.386  1.00  0.00     0.037 A 
HETATM   29  C   UNL     1      40.017 -14.519  -3.308  1.00  0.00     0.068 A 
HETATM   30  C   UNL     1      39.058 -14.291  -2.323  1.00  0.00     0.037 A 
HETATM   31  C   UNL     1      39.216 -13.238  -1.415  1.00  0.00     0.011 A 
BRANCH  29  32
HETATM   32  O   UNL     1      39.992 -15.518  -4.241  1.00  0.00    -0.356 OA
HETATM   33  C   UNL     1      38.813 -16.311  -4.297  1.00  0.00     0.210 C 
ENDBRANCH  29  32
ENDBRANCH  25  26
ENDBRANCH  22  25
ENDBRANCH  20  21
ENDBRANCH  19  20
ENDBRANCH   1  19
TORSDOF 6
ENDMDL
MODEL 7
REMARK VINA RESULT:      -8.4      3.864      8.982
REMARK  6 active torsions:
REMARK  status: ('A' for Active; 'I' for Inactive)
REMARK    1  A    between atoms: O_2  and  C_3 
REMARK    2  A    between atoms: C_6  and  C_7 
REMARK    3  A    between atoms: C_7  and  N_8 
REMARK       I    between atoms: N_8  and  C_9 
REMARK    4  A    between atoms: C_9  and  C_10 
REMARK    5  A    between atoms: C_10  and  S_11 
REMARK    6  A    between atoms: S_11  and  C_12 
ROOT
HETATM    1  C   UNL     1      40.906 -13.825   3.198  1.00  0.00     0.198 A 
HETATM    2  N   UNL     1      40.906 -14.280   1.888  1.00  0.00    -0.257 N 
HETATM    3  C   UNL     1      41.366 -13.165   1.185  1.00  0.00     0.173 A 
HETATM    4  C   UNL     1      41.527 -13.220  -0.288  1.00  0.00     0.053 A 
HETATM    5  C   UNL     1      41.181 -14.417  -0.876  1.00  0.00     0.090 A 
HETATM    6  S   UNL     1      41.387 -14.363  -2.564  1.00  0.00    -0.075 SA
HETATM    7  C   UNL     1      41.936 -12.746  -2.496  1.00  0.00    -0.008 A 
HETATM    8  C   UNL     1      41.982 -12.241  -1.207  1.00  0.00    -0.028 A 
HETATM    9  C   UNL     1      42.429 -10.843  -0.911  1.00  0.00     0.041 C 
HETATM   10  C   UNL     1      43.175 -10.221  -2.103  1.00  0.00     0.005 C 
HETATM   11  C   UNL     1      42.456 -10.494  -3.431  1.00  0.00     0.005 C 
HETATM   12  C   UNL     1      42.353 -11.999  -3.726  1.00  0.00     0.047 C 
HETATM   13  N   UNL     1      40.730 -15.495  -0.179  1.00  0.00    -0.336 N 
HETATM   14  C   UNL     1      40.570 -15.505   1.219  1.00  0.00     0.106 A 
HETATM   15  C   UNL     1      40.126 -16.624   1.814  1.00  0.00     0.064 C 
HETATM   16  N   UNL     1      41.601 -12.154   1.984  1.00  0.00    -0.128 NA
HETATM   17  N   UNL     1      41.307 -12.570   3.254  1.00  0.00    -0.122 NA
HETATM   18  H   UNL     1      40.497 -16.350  -0.675  1.00  0.00     0.168 HD
ENDROOT
BRANCH   1  19
HETATM   19  S   UNL     1      40.449 -14.738   4.599  1.00  0.00    -0.080 SA
BRANCH  19  20
HETATM   20  C   UNL     1      41.959 -14.574   5.599  1.00  0.00     0.185 C 
BRANCH  20  21
HETATM   21  C   UNL     1      42.395 -15.926   6.133  1.00  0.00     0.227 C 
HETATM   22  N   UNL     1      43.662 -16.322   5.757  1.00  0.00    -0.356 N 
HETATM   23  H   UNL     1      44.312 -15.599   5.473  1.00  0.00     0.162 HD
HETATM   24  O   UNL     1      41.645 -16.643   6.792  1.00  0.00    -0.273 OA
BRANCH  22  25
HETATM   25  C   UNL     1      44.210 -17.565   6.249  1.00  0.00     0.161 C 
BRANCH  25  26
HETATM   26  C   UNL     1      44.380 -18.588   5.155  1.00  0.00    -0.040 A 
HETATM   27  C   UNL     1      44.901 -19.854   5.450  1.00  0.00     0.011 A 
HETATM   28  C   UNL     1      45.007 -20.827   4.453  1.00  0.00     0.037 A 
HETATM   29  C   UNL     1      44.588 -20.561   3.148  1.00  0.00     0.068 A 
HETATM   30  C   UNL     1      44.070 -19.302   2.845  1.00  0.00     0.037 A 
HETATM   31  C   UNL     1      43.959 -18.327   3.843  1.00  0.00     0.011 A 
BRANCH  29  32
HETATM   32  O   UNL     1      44.734 -21.603   2.276  1.00  0.00    -0.356 OA
HETATM   33  C   UNL     1      43.634 -21.876   1.416  1.00  0.00     0.210 C 
ENDBRANCH  29  32
ENDBRANCH  25  26
ENDBRANCH  22  25
ENDBRANCH  20  21
ENDBRANCH  19  20
ENDBRANCH   1  19
TORSDOF 6
ENDMDL
MODEL 8
REMARK VINA RESULT:      -8.3      5.204      9.370
REMARK  6 active torsions:
REMARK  status: ('A' for Active; 'I' for Inactive)
REMARK    1  A    between atoms: O_2  and  C_3 
REMARK    2  A    between atoms: C_6  and  C_7 
REMARK    3  A    between atoms: C_7  and  N_8 
REMARK       I    between atoms: N_8  and  C_9 
REMARK    4  A    between atoms: C_9  and  C_10 
REMARK    5  A    between atoms: C_10  and  S_11 
REMARK    6  A    between atoms: S_11  and  C_12 
ROOT
HETATM    1  C   UNL     1      42.229 -14.064   4.950  1.00  0.00     0.198 A 
HETATM    2  N   UNL     1      42.444 -14.916   3.877  1.00  0.00    -0.257 N 
HETATM    3  C   UNL     1      42.974 -16.048   4.498  1.00  0.00     0.173 A 
HETATM    4  C   UNL     1      43.350 -17.237   3.695  1.00  0.00     0.053 A 
HETATM    5  C   UNL     1      43.152 -17.120   2.336  1.00  0.00     0.090 A 
HETATM    6  S   UNL     1      43.632 -18.529   1.514  1.00  0.00    -0.075 SA
HETATM    7  C   UNL     1      44.099 -19.283   2.974  1.00  0.00    -0.008 A 
HETATM    8  C   UNL     1      43.885 -18.489   4.089  1.00  0.00    -0.028 A 
HETATM    9  C   UNL     1      44.225 -18.946   5.474  1.00  0.00     0.041 C 
HETATM   10  C   UNL     1      44.440 -20.468   5.533  1.00  0.00     0.005 C 
HETATM   11  C   UNL     1      45.302 -20.967   4.365  1.00  0.00     0.005 C 
HETATM   12  C   UNL     1      44.644 -20.678   3.006  1.00  0.00     0.047 C 
HETATM   13  N   UNL     1      42.638 -16.007   1.745  1.00  0.00    -0.336 N 
HETATM   14  C   UNL     1      42.251 -14.857   2.456  1.00  0.00     0.106 A 
HETATM   15  C   UNL     1      41.746 -13.812   1.778  1.00  0.00     0.064 C 
HETATM   16  N   UNL     1      43.076 -15.886   5.794  1.00  0.00    -0.128 NA
HETATM   17  N   UNL     1      42.609 -14.632   6.078  1.00  0.00    -0.122 NA
HETATM   18  H   UNL     1      42.512 -15.988   0.737  1.00  0.00     0.168 HD
ENDROOT
BRANCH   1  19
HETATM   19  S   UNL     1      41.560 -12.466   4.872  1.00  0.00    -0.080 SA
BRANCH  19  20
HETATM   20  C   UNL     1      39.888 -12.783   5.514  1.00  0.00     0.185 C 
BRANCH  20  21
HETATM   21  C   UNL     1      39.488 -11.714   6.514  1.00  0.00     0.227 C 
HETATM   22  N   UNL     1      39.535 -12.103   7.836  1.00  0.00    -0.356 N 
HETATM   23  H   UNL     1      40.125 -12.892   8.070  1.00  0.00     0.162 HD
HETATM   24  O   UNL     1      39.086 -10.606   6.162  1.00  0.00    -0.273 OA
BRANCH  22  25
HETATM   25  C   UNL     1      39.230 -11.155   8.884  1.00  0.00     0.161 C 
BRANCH  25  26
HETATM   26  C   UNL     1      40.422 -10.867   9.759  1.00  0.00    -0.040 A 
HETATM   27  C   UNL     1      40.325 -11.009  11.149  1.00  0.00     0.011 A 
HETATM   28  C   UNL     1      41.441 -10.800  11.963  1.00  0.00     0.037 A 
HETATM   29  C   UNL     1      42.676 -10.459  11.407  1.00  0.00     0.068 A 
HETATM   30  C   UNL     1      42.781 -10.314  10.025  1.00  0.00     0.037 A 
HETATM   31  C   UNL     1      41.665 -10.526   9.207  1.00  0.00     0.011 A 
BRANCH  29  32
HETATM   32  O   UNL     1      43.687 -10.298  12.313  1.00  0.00    -0.356 OA
HETATM   33  C   UNL     1      43.388  -9.536  13.476  1.00  0.00     0.210 C 
ENDBRANCH  29  32
ENDBRANCH  25  26
ENDBRANCH  22  25
ENDBRANCH  20  21
ENDBRANCH  19  20
ENDBRANCH   1  19
TORSDOF 6
ENDMDL
MODEL 9
REMARK VINA RESULT:      -8.2      5.905     10.088
REMARK  6 active torsions:
REMARK  status: ('A' for Active; 'I' for Inactive)
REMARK    1  A    between atoms: O_2  and  C_3 
REMARK    2  A    between atoms: C_6  and  C_7 
REMARK    3  A    between atoms: C_7  and  N_8 
REMARK       I    between atoms: N_8  and  C_9 
REMARK    4  A    between atoms: C_9  and  C_10 
REMARK    5  A    between atoms: C_10  and  S_11 
REMARK    6  A    between atoms: S_11  and  C_12 
ROOT
HETATM    1  C   UNL     1      42.249 -12.362   6.054  1.00  0.00     0.198 A 
HETATM    2  N   UNL     1      43.102 -12.356   7.148  1.00  0.00    -0.257 N 
HETATM    3  C   UNL     1      42.515 -11.398   7.977  1.00  0.00     0.173 A 
HETATM    4  C   UNL     1      43.120 -11.073   9.292  1.00  0.00     0.053 A 
HETATM    5  C   UNL     1      44.272 -11.762   9.600  1.00  0.00     0.090 A 
HETATM    6  S   UNL     1      44.887 -11.300  11.117  1.00  0.00    -0.075 SA
HETATM    7  C   UNL     1      43.612 -10.186  11.351  1.00  0.00    -0.008 A 
HETATM    8  C   UNL     1      42.710 -10.164  10.300  1.00  0.00    -0.028 A 
HETATM    9  C   UNL     1      41.515  -9.261  10.289  1.00  0.00     0.041 C 
HETATM   10  C   UNL     1      41.215  -8.700  11.690  1.00  0.00     0.005 C 
HETATM   11  C   UNL     1      42.491  -8.221  12.397  1.00  0.00     0.005 C 
HETATM   12  C   UNL     1      43.496  -9.365  12.598  1.00  0.00     0.047 C 
HETATM   13  N   UNL     1      44.835 -12.690   8.779  1.00  0.00    -0.336 N 
HETATM   14  C   UNL     1      44.300 -13.048   7.528  1.00  0.00     0.106 A 
HETATM   15  C   UNL     1      44.929 -13.984   6.796  1.00  0.00     0.064 C 
HETATM   16  N   UNL     1      41.441 -10.882   7.434  1.00  0.00    -0.128 NA
HETATM   17  N   UNL     1      41.275 -11.489   6.219  1.00  0.00    -0.122 NA
HETATM   18  H   UNL     1      45.685 -13.166   9.069  1.00  0.00     0.168 HD
ENDROOT
BRANCH   1  19
HETATM   19  S   UNL     1      42.400 -13.358   4.643  1.00  0.00    -0.080 SA
BRANCH  19  20
HETATM   20  C   UNL     1      40.980 -14.471   4.878  1.00  0.00     0.185 C 
BRANCH  20  21
HETATM   21  C   UNL     1      41.415 -15.754   5.563  1.00  0.00     0.227 C 
HETATM   22  N   UNL     1      42.709 -16.148   5.297  1.00  0.00    -0.356 N 
HETATM   23  H   UNL     1      43.358 -15.438   4.982  1.00  0.00     0.162 HD
HETATM   24  O   UNL     1      40.643 -16.425   6.245  1.00  0.00    -0.273 OA
BRANCH  22  25
HETATM   25  C   UNL     1      43.256 -17.324   5.936  1.00  0.00     0.161 C 
BRANCH  25  26
HETATM   26  C   UNL     1      43.728 -18.350   4.938  1.00  0.00    -0.040 A 
HETATM   27  C   UNL     1      44.469 -19.458   5.366  1.00  0.00     0.011 A 
HETATM   28  C   UNL     1      44.860 -20.443   4.455  1.00  0.00     0.037 A 
HETATM   29  C   UNL     1      44.511 -20.349   3.107  1.00  0.00     0.068 A 
HETATM   30  C   UNL     1      43.774 -19.248   2.673  1.00  0.00     0.037 A 
HETATM   31  C   UNL     1      43.378 -18.262   3.583  1.00  0.00     0.011 A 
BRANCH  29  32
HETATM   32  O   UNL     1      44.944 -21.386   2.329  1.00  0.00    -0.356 OA
HETATM   33  C   UNL     1      43.993 -21.958   1.439  1.00  0.00     0.210 C 
ENDBRANCH  29  32
ENDBRANCH  25  26
ENDBRANCH  22  25
ENDBRANCH  20  21
ENDBRANCH  19  20
ENDBRANCH   1  19
TORSDOF 6
ENDMDL
MODEL 10
REMARK VINA RESULT:      -8.2      3.487      8.603
REMARK  6 active torsions:
REMARK  status: ('A' for Active; 'I' for Inactive)
REMARK    1  A    between atoms: O_2  and  C_3 
REMARK    2  A    between atoms: C_6  and  C_7 
REMARK    3  A    between atoms: C_7  and  N_8 
REMARK       I    between atoms: N_8  and  C_9 
REMARK    4  A    between atoms: C_9  and  C_10 
REMARK    5  A    between atoms: C_10  and  S_11 
REMARK    6  A    between atoms: S_11  and  C_12 
ROOT
HETATM    1  C   UNL     1      41.900 -14.146   3.404  1.00  0.00     0.198 A 
HETATM    2  N   UNL     1      40.799 -13.680   2.703  1.00  0.00    -0.257 N 
HETATM    3  C   UNL     1      40.993 -14.239   1.438  1.00  0.00     0.173 A 
HETATM    4  C   UNL     1      40.015 -13.993   0.351  1.00  0.00     0.053 A 
HETATM    5  C   UNL     1      38.951 -13.183   0.684  1.00  0.00     0.090 A 
HETATM    6  S   UNL     1      37.906 -12.954  -0.638  1.00  0.00    -0.075 SA
HETATM    7  C   UNL     1      38.878 -13.936  -1.642  1.00  0.00    -0.008 A 
HETATM    8  C   UNL     1      39.985 -14.453  -0.990  1.00  0.00    -0.028 A 
HETATM    9  C   UNL     1      40.979 -15.338  -1.677  1.00  0.00     0.041 C 
HETATM   10  C   UNL     1      40.422 -15.897  -2.998  1.00  0.00     0.005 C 
HETATM   11  C   UNL     1      39.714 -14.812  -3.822  1.00  0.00     0.005 C 
HETATM   12  C   UNL     1      38.514 -14.216  -3.068  1.00  0.00     0.047 C 
HETATM   13  N   UNL     1      38.778 -12.641   1.920  1.00  0.00    -0.336 N 
HETATM   14  C   UNL     1      39.664 -12.851   2.993  1.00  0.00     0.106 A 
HETATM   15  C   UNL     1      39.398 -12.276   4.178  1.00  0.00     0.064 C 
HETATM   16  N   UNL     1      42.093 -14.949   1.387  1.00  0.00    -0.128 NA
HETATM   17  N   UNL     1      42.667 -14.886   2.628  1.00  0.00    -0.122 NA
HETATM   18  H   UNL     1      37.967 -12.056   2.101  1.00  0.00     0.168 HD
ENDROOT
BRANCH   1  19
HETATM   19  S   UNL     1      42.265 -13.826   5.069  1.00  0.00    -0.080 SA
BRANCH  19  20
HETATM   20  C   UNL     1      41.225 -15.082   5.875  1.00  0.00     0.185 C 
BRANCH  20  21
HETATM   21  C   UNL     1      42.070 -16.246   6.358  1.00  0.00     0.227 C 
HETATM   22  N   UNL     1      43.305 -16.361   5.755  1.00  0.00    -0.356 N 
HETATM   23  H   UNL     1      43.694 -15.531   5.325  1.00  0.00     0.162 HD
HETATM   24  O   UNL     1      41.652 -17.064   7.175  1.00  0.00    -0.273 OA
BRANCH  22  25
HETATM   25  C   UNL     1      44.223 -17.397   6.170  1.00  0.00     0.161 C 
BRANCH  25  26
HETATM   26  C   UNL     1      44.382 -18.473   5.128  1.00  0.00    -0.040 A 
HETATM   27  C   UNL     1      44.913 -19.721   5.479  1.00  0.00     0.011 A 
HETATM   28  C   UNL     1      45.009 -20.742   4.531  1.00  0.00     0.037 A 
HETATM   29  C   UNL     1      44.569 -20.545   3.221  1.00  0.00     0.068 A 
HETATM   30  C   UNL     1      44.041 -19.306   2.863  1.00  0.00     0.037 A 
HETATM   31  C   UNL     1      43.940 -18.282   3.811  1.00  0.00     0.011 A 
BRANCH  29  32
HETATM   32  O   UNL     1      44.707 -21.630   2.401  1.00  0.00    -0.356 OA
HETATM   33  C   UNL     1      43.707 -21.810   1.406  1.00  0.00     0.210 C 
ENDBRANCH  29  32
ENDBRANCH  25  26
ENDBRANCH  22  25
ENDBRANCH  20  21
ENDBRANCH  19  20
ENDBRANCH   1  19
TORSDOF 6
ENDMDL
