MODEL 1
REMARK VINA RESULT:      -8.8      0.000      0.000
REMARK  5 active torsions:
REMARK  status: ('A' for Active; 'I' for Inactive)
REMARK    1  A    between atoms: C_3  and  N_4 
REMARK    2  A    between atoms: N_5  and  C_6 
REMARK    3  A    between atoms: C_6  and  C_7 
REMARK    4  A    between atoms: C_7  and  C_8 
REMARK    5  A    between atoms: C_17  and  C_18 
ROOT
HETATM    1  C   UNL     1      43.201 -13.515   4.377  1.00  0.00     0.175 C 
HETATM    2  N   UNL     1      43.392 -14.693   5.211  1.00  0.00    -0.186 N 
HETATM    3  C   UNL     1      42.993 -15.917   4.872  1.00  0.00     0.680 A 
HETATM    4  N   UNL     1      43.499 -16.794   5.731  1.00  0.00    -0.184 N 
HETATM    5  C   UNL     1      44.231 -16.101   6.677  1.00  0.00     0.140 A 
HETATM    6  C   UNL     1      44.139 -14.751   6.406  1.00  0.00     0.077 A 
ENDROOT
BRANCH   4   7
HETATM    7  C   UNL     1      43.262 -18.250   5.769  1.00  0.00     0.231 C 
BRANCH   7   8
HETATM    8  C   UNL     1      44.453 -19.051   5.256  1.00  0.00     0.178 C 
HETATM    9  O   UNL     1      45.546 -19.005   5.826  1.00  0.00    -0.290 OA
BRANCH   8  10
HETATM   10  C   UNL     1      44.284 -19.920   4.062  1.00  0.00     0.012 A 
HETATM   11  C   UNL     1      43.680 -19.457   2.886  1.00  0.00     0.018 A 
HETATM   12  C   UNL     1      43.536 -20.321   1.796  1.00  0.00     0.043 A 
HETATM   13  C   UNL     1      44.000 -21.629   1.884  1.00  0.00     0.116 A 
HETATM   14  F   UNL     1      43.854 -22.451   0.838  1.00  0.00    -0.206 F 
HETATM   15  C   UNL     1      44.616 -22.093   3.039  1.00  0.00     0.043 A 
HETATM   16  C   UNL     1      44.765 -21.236   4.132  1.00  0.00     0.018 A 
ENDBRANCH   8  10
ENDBRANCH   7   8
ENDBRANCH   4   7
BRANCH   3  17
HETATM   17  N   UNL     1      42.223 -16.206   3.828  1.00  0.00    -0.234 N 
HETATM   18  H   UNL     1      41.287 -16.561   3.923  1.00  0.00     0.174 HD
HETATM   19  H   UNL     1      42.505 -15.883   2.901  1.00  0.00     0.174 HD
ENDBRANCH   3  17
BRANCH   6  20
HETATM   20  C   UNL     1      44.745 -13.656   7.246  1.00  0.00    -0.004 A 
HETATM   21  C   UNL     1      43.958 -13.019   8.220  1.00  0.00     0.053 A 
HETATM   22  C   UNL     1      44.536 -12.019   8.973  1.00  0.00     0.106 A 
HETATM   23  C   UNL     1      45.840 -11.633   8.791  1.00  0.00     0.105 A 
HETATM   24  O   UNL     1      43.919 -11.312   9.957  1.00  0.00    -0.323 OA
HETATM   25  O   UNL     1      46.209 -10.635   9.634  1.00  0.00    -0.323 OA
HETATM   26  C   UNL     1      46.636 -12.222   7.836  1.00  0.00     0.040 A 
HETATM   27  C   UNL     1      44.987 -10.433  10.375  1.00  0.00     0.352 A 
HETATM   28  C   UNL     1      46.078 -13.241   7.051  1.00  0.00     0.017 A 
ENDBRANCH   6  20
TORSDOF 5
ENDMDL
MODEL 2
REMARK VINA RESULT:      -8.5      4.786      7.181
REMARK  5 active torsions:
REMARK  status: ('A' for Active; 'I' for Inactive)
REMARK    1  A    between atoms: C_3  and  N_4 
REMARK    2  A    between atoms: N_5  and  C_6 
REMARK    3  A    between atoms: C_6  and  C_7 
REMARK    4  A    between atoms: C_7  and  C_8 
REMARK    5  A    between atoms: C_17  and  C_18 
ROOT
HETATM    1  C   UNL     1      39.774 -13.167   4.310  1.00  0.00     0.175 C 
HETATM    2  N   UNL     1      40.300 -14.495   4.028  1.00  0.00    -0.186 N 
HETATM    3  C   UNL     1      40.839 -15.292   4.947  1.00  0.00     0.680 A 
HETATM    4  N   UNL     1      41.021 -16.499   4.425  1.00  0.00    -0.184 N 
HETATM    5  C   UNL     1      40.607 -16.467   3.106  1.00  0.00     0.140 A 
HETATM    6  C   UNL     1      40.191 -15.187   2.803  1.00  0.00     0.077 A 
ENDROOT
BRANCH   4   7
HETATM    7  C   UNL     1      41.648 -17.669   5.070  1.00  0.00     0.231 C 
BRANCH   7   8
HETATM    8  C   UNL     1      43.124 -17.810   4.719  1.00  0.00     0.178 C 
HETATM    9  O   UNL     1      43.955 -16.984   5.107  1.00  0.00    -0.290 OA
BRANCH   8  10
HETATM   10  C   UNL     1      43.571 -18.977   3.913  1.00  0.00     0.012 A 
HETATM   11  C   UNL     1      43.181 -19.152   2.579  1.00  0.00     0.018 A 
HETATM   12  C   UNL     1      43.621 -20.273   1.872  1.00  0.00     0.043 A 
HETATM   13  C   UNL     1      44.448 -21.203   2.493  1.00  0.00     0.116 A 
HETATM   14  F   UNL     1      44.861 -22.278   1.809  1.00  0.00    -0.206 F 
HETATM   15  C   UNL     1      44.855 -21.031   3.810  1.00  0.00     0.043 A 
HETATM   16  C   UNL     1      44.421 -19.912   4.523  1.00  0.00     0.018 A 
ENDBRANCH   8  10
ENDBRANCH   7   8
ENDBRANCH   4   7
BRANCH   3  17
HETATM   17  N   UNL     1      41.129 -14.932   6.193  1.00  0.00    -0.234 N 
HETATM   18  H   UNL     1      41.371 -13.989   6.446  1.00  0.00     0.174 HD
HETATM   19  H   UNL     1      40.916 -15.576   6.957  1.00  0.00     0.174 HD
ENDBRANCH   3  17
BRANCH   6  20
HETATM   20  C   UNL     1      39.727 -14.725   1.446  1.00  0.00    -0.004 A 
HETATM   21  C   UNL     1      40.647 -14.674   0.385  1.00  0.00     0.053 A 
HETATM   22  C   UNL     1      40.196 -14.245  -0.847  1.00  0.00     0.106 A 
HETATM   23  C   UNL     1      38.894 -13.868  -1.054  1.00  0.00     0.105 A 
HETATM   24  O   UNL     1      40.951 -14.146  -1.974  1.00  0.00    -0.323 OA
HETATM   25  O   UNL     1      38.662 -13.483  -2.335  1.00  0.00    -0.323 OA
HETATM   26  C   UNL     1      37.969 -13.890  -0.035  1.00  0.00     0.040 A 
HETATM   27  C   UNL     1      39.971 -13.660  -2.918  1.00  0.00     0.352 A 
HETATM   28  C   UNL     1      38.395 -14.318   1.230  1.00  0.00     0.017 A 
ENDBRANCH   6  20
TORSDOF 5
ENDMDL
MODEL 3
REMARK VINA RESULT:      -8.5      3.817      6.242
REMARK  5 active torsions:
REMARK  status: ('A' for Active; 'I' for Inactive)
REMARK    1  A    between atoms: C_3  and  N_4 
REMARK    2  A    between atoms: N_5  and  C_6 
REMARK    3  A    between atoms: C_6  and  C_7 
REMARK    4  A    between atoms: C_7  and  C_8 
REMARK    5  A    between atoms: C_17  and  C_18 
ROOT
HETATM    1  C   UNL     1      41.907 -13.446   5.264  1.00  0.00     0.175 C 
HETATM    2  N   UNL     1      42.072 -14.878   5.058  1.00  0.00    -0.186 N 
HETATM    3  C   UNL     1      42.669 -15.691   5.926  1.00  0.00     0.680 A 
HETATM    4  N   UNL     1      42.468 -16.949   5.554  1.00  0.00    -0.184 N 
HETATM    5  C   UNL     1      41.735 -16.943   4.382  1.00  0.00     0.140 A 
HETATM    6  C   UNL     1      41.511 -15.634   4.007  1.00  0.00     0.077 A 
ENDROOT
BRANCH   4   7
HETATM    7  C   UNL     1      43.004 -18.168   6.191  1.00  0.00     0.231 C 
BRANCH   7   8
HETATM    8  C   UNL     1      44.331 -18.609   5.588  1.00  0.00     0.178 C 
HETATM    9  O   UNL     1      45.405 -18.208   6.046  1.00  0.00    -0.290 OA
BRANCH   8  10
HETATM   10  C   UNL     1      44.331 -19.558   4.444  1.00  0.00     0.012 A 
HETATM   11  C   UNL     1      43.971 -19.161   3.150  1.00  0.00     0.018 A 
HETATM   12  C   UNL     1      43.977 -20.097   2.112  1.00  0.00     0.043 A 
HETATM   13  C   UNL     1      44.346 -21.413   2.370  1.00  0.00     0.116 A 
HETATM   14  F   UNL     1      44.344 -22.304   1.371  1.00  0.00    -0.206 F 
HETATM   15  C   UNL     1      44.721 -21.814   3.645  1.00  0.00     0.043 A 
HETATM   16  C   UNL     1      44.720 -20.884   4.687  1.00  0.00     0.018 A 
ENDBRANCH   8  10
ENDBRANCH   7   8
ENDBRANCH   4   7
BRANCH   3  17
HETATM   17  N   UNL     1      43.342 -15.296   7.002  1.00  0.00    -0.234 N 
HETATM   18  H   UNL     1      43.909 -15.921   7.550  1.00  0.00     0.174 HD
HETATM   19  H   UNL     1      43.453 -14.296   7.177  1.00  0.00     0.174 HD
ENDBRANCH   3  17
BRANCH   6  20
HETATM   20  C   UNL     1      40.803 -15.203   2.749  1.00  0.00    -0.004 A 
HETATM   21  C   UNL     1      41.497 -15.226   1.527  1.00  0.00     0.053 A 
HETATM   22  C   UNL     1      40.826 -14.824   0.390  1.00  0.00     0.106 A 
HETATM   23  C   UNL     1      39.521 -14.402   0.426  1.00  0.00     0.105 A 
HETATM   24  O   UNL     1      41.346 -14.795  -0.866  1.00  0.00    -0.323 OA
HETATM   25  O   UNL     1      39.054 -14.054  -0.800  1.00  0.00    -0.323 OA
HETATM   26  C   UNL     1      38.816 -14.351   1.606  1.00  0.00     0.040 A 
HETATM   27  C   UNL     1      40.215 -14.304  -1.620  1.00  0.00     0.352 A 
HETATM   28  C   UNL     1      39.469 -14.750   2.781  1.00  0.00     0.017 A 
ENDBRANCH   6  20
TORSDOF 5
ENDMDL
MODEL 4
REMARK VINA RESULT:      -8.4      5.042      7.349
REMARK  5 active torsions:
REMARK  status: ('A' for Active; 'I' for Inactive)
REMARK    1  A    between atoms: C_3  and  N_4 
REMARK    2  A    between atoms: N_5  and  C_6 
REMARK    3  A    between atoms: C_6  and  C_7 
REMARK    4  A    between atoms: C_7  and  C_8 
REMARK    5  A    between atoms: C_17  and  C_18 
ROOT
HETATM    1  C   UNL     1      39.090 -15.137   2.054  1.00  0.00     0.175 C 
HETATM    2  N   UNL     1      40.517 -15.340   2.261  1.00  0.00    -0.186 N 
HETATM    3  C   UNL     1      41.051 -15.755   3.406  1.00  0.00     0.680 A 
HETATM    4  N   UNL     1      42.332 -16.045   3.210  1.00  0.00    -0.184 N 
HETATM    5  C   UNL     1      42.640 -15.777   1.889  1.00  0.00     0.140 A 
HETATM    6  C   UNL     1      41.516 -15.273   1.267  1.00  0.00     0.077 A 
ENDROOT
BRANCH   4   7
HETATM    7  C   UNL     1      43.317 -16.479   4.220  1.00  0.00     0.231 C 
BRANCH   7   8
HETATM    8  C   UNL     1      43.050 -17.889   4.732  1.00  0.00     0.178 C 
HETATM    9  O   UNL     1      42.432 -18.080   5.783  1.00  0.00    -0.290 OA
BRANCH   8  10
HETATM   10  C   UNL     1      43.522 -19.053   3.937  1.00  0.00     0.012 A 
HETATM   11  C   UNL     1      43.121 -19.258   2.611  1.00  0.00     0.018 A 
HETATM   12  C   UNL     1      43.586 -20.376   1.913  1.00  0.00     0.043 A 
HETATM   13  C   UNL     1      44.450 -21.271   2.536  1.00  0.00     0.116 A 
HETATM   14  F   UNL     1      44.887 -22.342   1.861  1.00  0.00    -0.206 F 
HETATM   15  C   UNL     1      44.868 -21.067   3.844  1.00  0.00     0.043 A 
HETATM   16  C   UNL     1      44.409 -19.952   4.548  1.00  0.00     0.018 A 
ENDBRANCH   8  10
ENDBRANCH   7   8
ENDBRANCH   4   7
BRANCH   3  17
HETATM   17  N   UNL     1      40.395 -15.874   4.555  1.00  0.00    -0.234 N 
HETATM   18  H   UNL     1      39.390 -15.885   4.611  1.00  0.00     0.174 HD
HETATM   19  H   UNL     1      40.907 -16.159   5.392  1.00  0.00     0.174 HD
ENDBRANCH   3  17
BRANCH   6  20
HETATM   20  C   UNL     1      41.458 -14.798  -0.162  1.00  0.00    -0.004 A 
HETATM   21  C   UNL     1      41.799 -13.467  -0.459  1.00  0.00     0.053 A 
HETATM   22  C   UNL     1      41.735 -13.057  -1.775  1.00  0.00     0.106 A 
HETATM   23  C   UNL     1      41.346 -13.902  -2.782  1.00  0.00     0.105 A 
HETATM   24  O   UNL     1      42.039 -11.813  -2.230  1.00  0.00    -0.323 OA
HETATM   25  O   UNL     1      41.353 -13.300  -3.998  1.00  0.00    -0.323 OA
HETATM   26  C   UNL     1      40.988 -15.206  -2.527  1.00  0.00     0.040 A 
HETATM   27  C   UNL     1      41.794 -11.971  -3.645  1.00  0.00     0.352 A 
HETATM   28  C   UNL     1      41.040 -15.655  -1.200  1.00  0.00     0.017 A 
ENDBRANCH   6  20
TORSDOF 5
ENDMDL
MODEL 5
REMARK VINA RESULT:      -8.2      4.361      6.714
REMARK  5 active torsions:
REMARK  status: ('A' for Active; 'I' for Inactive)
REMARK    1  A    between atoms: C_3  and  N_4 
REMARK    2  A    between atoms: N_5  and  C_6 
REMARK    3  A    between atoms: C_6  and  C_7 
REMARK    4  A    between atoms: C_7  and  C_8 
REMARK    5  A    between atoms: C_17  and  C_18 
ROOT
HETATM    1  C   UNL     1      40.035 -13.078   3.953  1.00  0.00     0.175 C 
HETATM    2  N   UNL     1      40.726 -14.353   3.817  1.00  0.00    -0.186 N 
HETATM    3  C   UNL     1      40.856 -15.237   4.803  1.00  0.00     0.680 A 
HETATM    4  N   UNL     1      41.338 -16.371   4.310  1.00  0.00    -0.184 N 
HETATM    5  C   UNL     1      41.552 -16.199   2.955  1.00  0.00     0.140 A 
HETATM    6  C   UNL     1      41.223 -14.903   2.617  1.00  0.00     0.077 A 
ENDROOT
BRANCH   4   7
HETATM    7  C   UNL     1      41.696 -17.592   5.058  1.00  0.00     0.231 C 
BRANCH   7   8
HETATM    8  C   UNL     1      43.180 -17.926   4.960  1.00  0.00     0.178 C 
HETATM    9  O   UNL     1      44.024 -17.269   5.576  1.00  0.00    -0.290 OA
BRANCH   8  10
HETATM   10  C   UNL     1      43.612 -19.077   4.125  1.00  0.00     0.012 A 
HETATM   11  C   UNL     1      43.232 -19.205   2.783  1.00  0.00     0.018 A 
HETATM   12  C   UNL     1      43.658 -20.314   2.046  1.00  0.00     0.043 A 
HETATM   13  C   UNL     1      44.462 -21.277   2.648  1.00  0.00     0.116 A 
HETATM   14  F   UNL     1      44.861 -22.338   1.937  1.00  0.00    -0.206 F 
HETATM   15  C   UNL     1      44.859 -21.151   3.972  1.00  0.00     0.043 A 
HETATM   16  C   UNL     1      44.440 -20.045   4.714  1.00  0.00     0.018 A 
ENDBRANCH   8  10
ENDBRANCH   7   8
ENDBRANCH   4   7
BRANCH   3  17
HETATM   17  N   UNL     1      40.537 -15.015   6.074  1.00  0.00    -0.234 N 
HETATM   18  H   UNL     1      40.248 -15.747   6.699  1.00  0.00     0.174 HD
HETATM   19  H   UNL     1      40.771 -14.114   6.493  1.00  0.00     0.174 HD
ENDBRANCH   3  17
BRANCH   6  20
HETATM   20  C   UNL     1      41.378 -14.300   1.244  1.00  0.00    -0.004 A 
HETATM   21  C   UNL     1      41.041 -15.065   0.115  1.00  0.00     0.053 A 
HETATM   22  C   UNL     1      41.194 -14.489  -1.130  1.00  0.00     0.106 A 
HETATM   23  C   UNL     1      41.667 -13.211  -1.288  1.00  0.00     0.105 A 
HETATM   24  O   UNL     1      40.907 -15.086  -2.317  1.00  0.00    -0.323 OA
HETATM   25  O   UNL     1      41.739 -12.841  -2.592  1.00  0.00    -0.323 OA
HETATM   26  C   UNL     1      42.022 -12.439  -0.206  1.00  0.00     0.040 A 
HETATM   27  C   UNL     1      41.256 -14.035  -3.245  1.00  0.00     0.352 A 
HETATM   28  C   UNL     1      41.881 -12.994   1.074  1.00  0.00     0.017 A 
ENDBRANCH   6  20
TORSDOF 5
ENDMDL
MODEL 6
REMARK VINA RESULT:      -8.2      4.483      8.093
REMARK  5 active torsions:
REMARK  status: ('A' for Active; 'I' for Inactive)
REMARK    1  A    between atoms: C_3  and  N_4 
REMARK    2  A    between atoms: N_5  and  C_6 
REMARK    3  A    between atoms: C_6  and  C_7 
REMARK    4  A    between atoms: C_7  and  C_8 
REMARK    5  A    between atoms: C_17  and  C_18 
ROOT
HETATM    1  C   UNL     1      41.273 -17.030   6.612  1.00  0.00     0.175 C 
HETATM    2  N   UNL     1      41.790 -16.186   5.543  1.00  0.00    -0.186 N 
HETATM    3  C   UNL     1      41.504 -14.893   5.413  1.00  0.00     0.680 A 
HETATM    4  N   UNL     1      42.290 -14.365   4.482  1.00  0.00    -0.184 N 
HETATM    5  C   UNL     1      43.095 -15.368   3.974  1.00  0.00     0.140 A 
HETATM    6  C   UNL     1      42.763 -16.557   4.592  1.00  0.00     0.077 A 
ENDROOT
BRANCH   4   7
HETATM    7  C   UNL     1      42.271 -12.979   3.973  1.00  0.00     0.231 C 
BRANCH   7   8
HETATM    8  C   UNL     1      41.895 -12.902   2.499  1.00  0.00     0.178 C 
HETATM    9  O   UNL     1      42.715 -12.544   1.649  1.00  0.00    -0.290 OA
BRANCH   8  10
HETATM   10  C   UNL     1      40.523 -13.289   2.077  1.00  0.00     0.012 A 
HETATM   11  C   UNL     1      39.513 -12.340   1.875  1.00  0.00     0.018 A 
HETATM   12  C   UNL     1      38.237 -12.760   1.489  1.00  0.00     0.043 A 
HETATM   13  C   UNL     1      37.981 -14.114   1.302  1.00  0.00     0.116 A 
HETATM   14  F   UNL     1      36.754 -14.508   0.937  1.00  0.00    -0.206 F 
HETATM   15  C   UNL     1      38.980 -15.062   1.483  1.00  0.00     0.043 A 
HETATM   16  C   UNL     1      40.258 -14.651   1.866  1.00  0.00     0.018 A 
ENDBRANCH   8  10
ENDBRANCH   7   8
ENDBRANCH   4   7
BRANCH   3  17
HETATM   17  N   UNL     1      40.589 -14.239   6.120  1.00  0.00    -0.234 N 
HETATM   18  H   UNL     1      39.650 -14.091   5.791  1.00  0.00     0.174 HD
HETATM   19  H   UNL     1      40.770 -14.043   7.105  1.00  0.00     0.174 HD
ENDBRANCH   3  17
BRANCH   6  20
HETATM   20  C   UNL     1      43.367 -17.899   4.268  1.00  0.00    -0.004 A 
HETATM   21  C   UNL     1      43.007 -18.546   3.074  1.00  0.00     0.053 A 
HETATM   22  C   UNL     1      43.574 -19.775   2.804  1.00  0.00     0.106 A 
HETATM   23  C   UNL     1      44.461 -20.372   3.663  1.00  0.00     0.105 A 
HETATM   24  O   UNL     1      43.341 -20.525   1.695  1.00  0.00    -0.323 OA
HETATM   25  O   UNL     1      44.898 -21.573   3.207  1.00  0.00    -0.323 OA
HETATM   26  C   UNL     1      44.824 -19.776   4.849  1.00  0.00     0.040 A 
HETATM   27  C   UNL     1      44.184 -21.669   1.955  1.00  0.00     0.352 A 
HETATM   28  C   UNL     1      44.264 -18.527   5.155  1.00  0.00     0.017 A 
ENDBRANCH   6  20
TORSDOF 5
ENDMDL
MODEL 7
REMARK VINA RESULT:      -8.0      5.376      8.555
REMARK  5 active torsions:
REMARK  status: ('A' for Active; 'I' for Inactive)
REMARK    1  A    between atoms: C_3  and  N_4 
REMARK    2  A    between atoms: N_5  and  C_6 
REMARK    3  A    between atoms: C_6  and  C_7 
REMARK    4  A    between atoms: C_7  and  C_8 
REMARK    5  A    between atoms: C_17  and  C_18 
ROOT
HETATM    1  C   UNL     1      40.983 -15.793   4.762  1.00  0.00     0.175 C 
HETATM    2  N   UNL     1      41.327 -15.573   3.364  1.00  0.00    -0.186 N 
HETATM    3  C   UNL     1      40.910 -14.530   2.652  1.00  0.00     0.680 A 
HETATM    4  N   UNL     1      41.563 -14.503   1.495  1.00  0.00    -0.184 N 
HETATM    5  C   UNL     1      42.414 -15.592   1.453  1.00  0.00     0.140 A 
HETATM    6  C   UNL     1      42.249 -16.328   2.609  1.00  0.00     0.077 A 
ENDROOT
BRANCH   4   7
HETATM    7  C   UNL     1      41.369 -13.558   0.379  1.00  0.00     0.231 C 
BRANCH   7   8
HETATM    8  C   UNL     1      39.953 -13.596  -0.182  1.00  0.00     0.178 C 
HETATM    9  O   UNL     1      39.024 -13.019   0.390  1.00  0.00    -0.290 OA
BRANCH   8  10
HETATM   10  C   UNL     1      39.694 -14.321  -1.453  1.00  0.00     0.012 A 
HETATM   11  C   UNL     1      38.495 -14.171  -2.163  1.00  0.00     0.018 A 
HETATM   12  C   UNL     1      38.299 -14.887  -3.347  1.00  0.00     0.043 A 
HETATM   13  C   UNL     1      39.296 -15.735  -3.817  1.00  0.00     0.116 A 
HETATM   14  F   UNL     1      39.098 -16.420  -4.950  1.00  0.00    -0.206 F 
HETATM   15  C   UNL     1      40.495 -15.878  -3.131  1.00  0.00     0.043 A 
HETATM   16  C   UNL     1      40.700 -15.165  -1.948  1.00  0.00     0.018 A 
ENDBRANCH   8  10
ENDBRANCH   7   8
ENDBRANCH   4   7
BRANCH   3  17
HETATM   17  N   UNL     1      39.998 -13.650   3.049  1.00  0.00    -0.234 N 
HETATM   18  H   UNL     1      39.387 -13.813   3.831  1.00  0.00     0.174 HD
HETATM   19  H   UNL     1      40.036 -12.697   2.684  1.00  0.00     0.174 HD
ENDBRANCH   3  17
BRANCH   6  20
HETATM   20  C   UNL     1      42.950 -17.626   2.917  1.00  0.00    -0.004 A 
HETATM   21  C   UNL     1      42.840 -18.698   2.015  1.00  0.00     0.053 A 
HETATM   22  C   UNL     1      43.489 -19.876   2.322  1.00  0.00     0.106 A 
HETATM   23  C   UNL     1      44.223 -20.024   3.472  1.00  0.00     0.105 A 
HETATM   24  O   UNL     1      43.491 -21.000   1.557  1.00  0.00    -0.323 OA
HETATM   25  O   UNL     1      44.779 -21.258   3.578  1.00  0.00    -0.323 OA
HETATM   26  C   UNL     1      44.340 -19.002   4.385  1.00  0.00     0.040 A 
HETATM   27  C   UNL     1      44.312 -21.877   2.360  1.00  0.00     0.352 A 
HETATM   28  C   UNL     1      43.690 -17.792   4.105  1.00  0.00     0.017 A 
ENDBRANCH   6  20
TORSDOF 5
ENDMDL
MODEL 8
REMARK VINA RESULT:      -7.8      3.950      8.253
REMARK  5 active torsions:
REMARK  status: ('A' for Active; 'I' for Inactive)
REMARK    1  A    between atoms: C_3  and  N_4 
REMARK    2  A    between atoms: N_5  and  C_6 
REMARK    3  A    between atoms: C_6  and  C_7 
REMARK    4  A    between atoms: C_7  and  C_8 
REMARK    5  A    between atoms: C_17  and  C_18 
ROOT
HETATM    1  C   UNL     1      45.093 -17.533   6.829  1.00  0.00     0.175 C 
HETATM    2  N   UNL     1      44.045 -16.930   6.018  1.00  0.00    -0.186 N 
HETATM    3  C   UNL     1      43.496 -15.745   6.273  1.00  0.00     0.680 A 
HETATM    4  N   UNL     1      42.738 -15.385   5.244  1.00  0.00    -0.184 N 
HETATM    5  C   UNL     1      42.780 -16.395   4.300  1.00  0.00     0.140 A 
HETATM    6  C   UNL     1      43.563 -17.422   4.787  1.00  0.00     0.077 A 
ENDROOT
BRANCH   4   7
HETATM    7  C   UNL     1      41.898 -14.177   5.129  1.00  0.00     0.231 C 
BRANCH   7   8
HETATM    8  C   UNL     1      41.821 -13.650   3.702  1.00  0.00     0.178 C 
HETATM    9  O   UNL     1      42.788 -13.092   3.175  1.00  0.00    -0.290 OA
BRANCH   8  10
HETATM   10  C   UNL     1      40.567 -13.833   2.925  1.00  0.00     0.012 A 
HETATM   11  C   UNL     1      40.100 -15.102   2.559  1.00  0.00     0.018 A 
HETATM   12  C   UNL     1      38.920 -15.216   1.818  1.00  0.00     0.043 A 
HETATM   13  C   UNL     1      38.216 -14.072   1.457  1.00  0.00     0.116 A 
HETATM   14  F   UNL     1      37.089 -14.191   0.743  1.00  0.00    -0.206 F 
HETATM   15  C   UNL     1      38.661 -12.811   1.830  1.00  0.00     0.043 A 
HETATM   16  C   UNL     1      39.838 -12.688   2.572  1.00  0.00     0.018 A 
ENDBRANCH   8  10
ENDBRANCH   7   8
ENDBRANCH   4   7
BRANCH   3  17
HETATM   17  N   UNL     1      43.695 -15.034   7.378  1.00  0.00    -0.234 N 
HETATM   18  H   UNL     1      43.439 -14.065   7.457  1.00  0.00     0.174 HD
HETATM   19  H   UNL     1      43.934 -15.521   8.243  1.00  0.00     0.174 HD
ENDBRANCH   3  17
BRANCH   6  20
HETATM   20  C   UNL     1      43.805 -18.734   4.085  1.00  0.00    -0.004 A 
HETATM   21  C   UNL     1      44.312 -19.822   4.815  1.00  0.00     0.053 A 
HETATM   22  C   UNL     1      44.526 -21.010   4.147  1.00  0.00     0.106 A 
HETATM   23  C   UNL     1      44.266 -21.149   2.808  1.00  0.00     0.105 A 
HETATM   24  O   UNL     1      45.001 -22.156   4.705  1.00  0.00    -0.323 OA
HETATM   25  O   UNL     1      44.545 -22.397   2.351  1.00  0.00    -0.323 OA
HETATM   26  C   UNL     1      43.785 -20.101   2.057  1.00  0.00     0.040 A 
HETATM   27  C   UNL     1      45.013 -23.035   3.559  1.00  0.00     0.352 A 
HETATM   28  C   UNL     1      43.559 -18.878   2.705  1.00  0.00     0.017 A 
ENDBRANCH   6  20
TORSDOF 5
ENDMDL
MODEL 9
REMARK VINA RESULT:      -7.8      5.256      8.948
REMARK  5 active torsions:
REMARK  status: ('A' for Active; 'I' for Inactive)
REMARK    1  A    between atoms: C_3  and  N_4 
REMARK    2  A    between atoms: N_5  and  C_6 
REMARK    3  A    between atoms: C_6  and  C_7 
REMARK    4  A    between atoms: C_7  and  C_8 
REMARK    5  A    between atoms: C_17  and  C_18 
ROOT
HETATM    1  C   UNL     1      41.103 -16.137   5.089  1.00  0.00     0.175 C 
HETATM    2  N   UNL     1      41.256 -15.936   3.655  1.00  0.00    -0.186 N 
HETATM    3  C   UNL     1      40.700 -14.933   2.981  1.00  0.00     0.680 A 
HETATM    4  N   UNL     1      41.198 -14.905   1.751  1.00  0.00    -0.184 N 
HETATM    5  C   UNL     1      42.091 -15.953   1.621  1.00  0.00     0.140 A 
HETATM    6  C   UNL     1      42.111 -16.665   2.803  1.00  0.00     0.077 A 
ENDROOT
BRANCH   4   7
HETATM    7  C   UNL     1      40.817 -13.999   0.650  1.00  0.00     0.231 C 
BRANCH   7   8
HETATM    8  C   UNL     1      41.864 -12.924   0.386  1.00  0.00     0.178 C 
HETATM    9  O   UNL     1      42.543 -12.456   1.304  1.00  0.00    -0.290 OA
BRANCH   8  10
HETATM   10  C   UNL     1      42.086 -12.451  -1.005  1.00  0.00     0.012 A 
HETATM   11  C   UNL     1      42.675 -11.211  -1.283  1.00  0.00     0.018 A 
HETATM   12  C   UNL     1      42.850 -10.810  -2.611  1.00  0.00     0.043 A 
HETATM   13  C   UNL     1      42.445 -11.648  -3.645  1.00  0.00     0.116 A 
HETATM   14  F   UNL     1      42.612 -11.254  -4.914  1.00  0.00    -0.206 F 
HETATM   15  C   UNL     1      41.876 -12.887  -3.381  1.00  0.00     0.043 A 
HETATM   16  C   UNL     1      41.700 -13.296  -2.058  1.00  0.00     0.018 A 
ENDBRANCH   8  10
ENDBRANCH   7   8
ENDBRANCH   4   7
BRANCH   3  17
HETATM   17  N   UNL     1      39.802 -14.087   3.475  1.00  0.00    -0.234 N 
HETATM   18  H   UNL     1      39.514 -13.253   2.992  1.00  0.00     0.174 HD
HETATM   19  H   UNL     1      39.237 -14.376   4.276  1.00  0.00     0.174 HD
ENDBRANCH   3  17
BRANCH   6  20
HETATM   20  C   UNL     1      42.910 -17.921   3.044  1.00  0.00    -0.004 A 
HETATM   21  C   UNL     1      42.846 -18.967   2.108  1.00  0.00     0.053 A 
HETATM   22  C   UNL     1      43.585 -20.106   2.354  1.00  0.00     0.106 A 
HETATM   23  C   UNL     1      44.363 -20.240   3.476  1.00  0.00     0.105 A 
HETATM   24  O   UNL     1      43.641 -21.201   1.550  1.00  0.00    -0.323 OA
HETATM   25  O   UNL     1      45.007 -21.434   3.522  1.00  0.00    -0.323 OA
HETATM   26  C   UNL     1      44.438 -19.243   4.421  1.00  0.00     0.040 A 
HETATM   27  C   UNL     1      44.546 -22.044   2.297  1.00  0.00     0.352 A 
HETATM   28  C   UNL     1      43.696 -18.074   4.203  1.00  0.00     0.017 A 
ENDBRANCH   6  20
TORSDOF 5
ENDMDL
MODEL 10
REMARK VINA RESULT:      -7.8      5.870      8.030
REMARK  5 active torsions:
REMARK  status: ('A' for Active; 'I' for Inactive)
REMARK    1  A    between atoms: C_3  and  N_4 
REMARK    2  A    between atoms: N_5  and  C_6 
REMARK    3  A    between atoms: C_6  and  C_7 
REMARK    4  A    between atoms: C_7  and  C_8 
REMARK    5  A    between atoms: C_17  and  C_18 
ROOT
HETATM    1  C   UNL     1      42.123 -12.805   1.904  1.00  0.00     0.175 C 
HETATM    2  N   UNL     1      42.078 -14.148   1.345  1.00  0.00    -0.186 N 
HETATM    3  C   UNL     1      42.303 -15.255   2.049  1.00  0.00     0.680 A 
HETATM    4  N   UNL     1      41.979 -16.312   1.315  1.00  0.00    -0.184 N 
HETATM    5  C   UNL     1      41.554 -15.866   0.076  1.00  0.00     0.140 A 
HETATM    6  C   UNL     1      41.657 -14.491   0.043  1.00  0.00     0.077 A 
ENDROOT
BRANCH   4   7
HETATM    7  C   UNL     1      42.128 -17.735   1.678  1.00  0.00     0.231 C 
BRANCH   7   8
HETATM    8  C   UNL     1      43.587 -18.164   1.779  1.00  0.00     0.178 C 
HETATM    9  O   UNL     1      44.495 -17.440   1.361  1.00  0.00    -0.290 OA
BRANCH   8  10
HETATM   10  C   UNL     1      43.920 -19.466   2.413  1.00  0.00     0.012 A 
HETATM   11  C   UNL     1      44.394 -19.552   3.728  1.00  0.00     0.018 A 
HETATM   12  C   UNL     1      44.703 -20.802   4.272  1.00  0.00     0.043 A 
HETATM   13  C   UNL     1      44.530 -21.951   3.507  1.00  0.00     0.116 A 
HETATM   14  F   UNL     1      44.833 -23.144   4.033  1.00  0.00    -0.206 F 
HETATM   15  C   UNL     1      44.045 -21.879   2.208  1.00  0.00     0.043 A 
HETATM   16  C   UNL     1      43.732 -20.634   1.658  1.00  0.00     0.018 A 
ENDBRANCH   8  10
ENDBRANCH   7   8
ENDBRANCH   4   7
BRANCH   3  17
HETATM   17  N   UNL     1      42.763 -15.285   3.296  1.00  0.00    -0.234 N 
HETATM   18  H   UNL     1      42.287 -15.765   4.041  1.00  0.00     0.174 HD
HETATM   19  H   UNL     1      43.721 -14.984   3.477  1.00  0.00     0.174 HD
ENDBRANCH   3  17
BRANCH   6  20
HETATM   20  C   UNL     1      41.352 -13.629  -1.155  1.00  0.00    -0.004 A 
HETATM   21  C   UNL     1      40.019 -13.275  -1.427  1.00  0.00     0.053 A 
HETATM   22  C   UNL     1      39.767 -12.487  -2.531  1.00  0.00     0.106 A 
HETATM   23  C   UNL     1      40.771 -12.053  -3.359  1.00  0.00     0.105 A 
HETATM   24  O   UNL     1      38.542 -12.051  -2.928  1.00  0.00    -0.323 OA
HETATM   25  O   UNL     1      40.307 -11.290  -4.382  1.00  0.00    -0.323 OA
HETATM   26  C   UNL     1      42.085 -12.392  -3.133  1.00  0.00     0.040 A 
HETATM   27  C   UNL     1      38.890 -11.291  -4.107  1.00  0.00     0.352 A 
HETATM   28  C   UNL     1      42.375 -13.195  -2.021  1.00  0.00     0.017 A 
ENDBRANCH   6  20
TORSDOF 5
ENDMDL
