MODEL 1
REMARK VINA RESULT:      -8.5      0.000      0.000
REMARK  7 active torsions:
REMARK  status: ('A' for Active; 'I' for Inactive)
REMARK    1  A    between atoms: C_7  and  C_8 
REMARK    2  A    between atoms: C_8  and  N_9 
REMARK       I    between atoms: N_9  and  C_10 
REMARK       I    between atoms: C_10  and  N_11 
REMARK    3  A    between atoms: N_11  and  C_12 
REMARK    4  A    between atoms: C_12  and  C_13 
REMARK    5  A    between atoms: C_13  and  C_14 
REMARK    6  A    between atoms: C_14  and  O_15 
REMARK    7  A    between atoms: C_14  and  C_16 
ROOT
HETATM    1  N   UNL     1      43.753 -14.861   7.038  1.00  0.00    -0.337 N 
HETATM    2  C   UNL     1      44.009 -13.537   7.293  1.00  0.00     0.316 C 
HETATM    3  N   UNL     1      45.071 -13.384   8.134  1.00  0.00    -0.339 N 
HETATM    4  O   UNL     1      43.322 -12.627   6.841  1.00  0.00    -0.247 OA
HETATM    5  H   UNL     1      44.584 -15.438   7.056  1.00  0.00     0.164 HD
HETATM    6  H   UNL     1      45.364 -14.191   8.667  1.00  0.00     0.164 HD
ENDROOT
BRANCH   1   7
HETATM    7  C   UNL     1      42.734 -15.244   6.077  1.00  0.00     0.183 C 
BRANCH   7   8
HETATM    8  C   UNL     1      43.173 -16.429   5.296  1.00  0.00     0.044 A 
HETATM    9  N   UNL     1      43.688 -17.572   5.893  1.00  0.00    -0.343 N 
HETATM   10  C   UNL     1      44.046 -18.467   4.985  1.00  0.00     0.112 A 
HETATM   11  H   UNL     1      43.825 -17.650   6.909  1.00  0.00     0.167 HD
HETATM   12  N   UNL     1      43.751 -17.957   3.772  1.00  0.00    -0.311 N 
HETATM   13  C   UNL     1      44.666 -19.802   5.140  1.00  0.00     0.049 A 
HETATM   14  C   UNL     1      44.006 -18.647   2.588  1.00  0.00     0.014 A 
HETATM   15  C   UNL     1      43.201 -16.693   3.943  1.00  0.00     0.125 A 
HETATM   16  C   UNL     1      43.671 -18.048   1.255  1.00  0.00     0.068 C 
HETATM   17  C   UNL     1      44.572 -19.868   2.717  1.00  0.00     0.025 A 
HETATM   18  C   UNL     1      44.914 -20.471   4.002  1.00  0.00     0.006 A 
ENDBRANCH   7   8
ENDBRANCH   1   7
BRANCH   3  19
HETATM   19  C   UNL     1      45.621 -12.093   8.569  1.00  0.00     0.085 C 
HETATM   20  C   UNL     1      47.024 -11.861   8.011  1.00  0.00     0.032 C 
BRANCH  19  21
HETATM   21  C   UNL     1      45.508 -11.955  10.101  1.00  0.00     0.063 C 
BRANCH  21  22
HETATM   22  C   UNL     1      44.148 -12.298  10.720  1.00  0.00     0.177 C 
BRANCH  22  23
HETATM   23  O   UNL     1      44.200 -13.577  11.347  1.00  0.00    -0.389 OA
HETATM   24  H   UNL     1      43.613 -14.164  10.839  1.00  0.00     0.210 HD
ENDBRANCH  22  23
BRANCH  22  25
HETATM   25  C   UNL     1      43.665 -11.315  11.731  1.00  0.00     0.081 A 
HETATM   26  O   UNL     1      42.785 -11.777  12.671  1.00  0.00    -0.324 OA
HETATM   27  C   UNL     1      42.489 -10.735  13.489  1.00  0.00     0.142 A 
HETATM   28  C   UNL     1      43.173  -9.608  13.099  1.00  0.00     0.027 A 
HETATM   29  C   UNL     1      43.935  -9.982  11.968  1.00  0.00     0.037 A 
ENDBRANCH  22  25
ENDBRANCH  21  22
ENDBRANCH  19  21
ENDBRANCH   3  19
TORSDOF 7
ENDMDL
MODEL 2
REMARK VINA RESULT:      -8.1      4.399      6.836
REMARK  7 active torsions:
REMARK  status: ('A' for Active; 'I' for Inactive)
REMARK    1  A    between atoms: C_7  and  C_8 
REMARK    2  A    between atoms: C_8  and  N_9 
REMARK       I    between atoms: N_9  and  C_10 
REMARK       I    between atoms: C_10  and  N_11 
REMARK    3  A    between atoms: N_11  and  C_12 
REMARK    4  A    between atoms: C_12  and  C_13 
REMARK    5  A    between atoms: C_13  and  C_14 
REMARK    6  A    between atoms: C_14  and  O_15 
REMARK    7  A    between atoms: C_14  and  C_16 
ROOT
HETATM    1  N   UNL     1      42.905 -16.094   6.160  1.00  0.00    -0.337 N 
HETATM    2  C   UNL     1      42.972 -14.847   5.589  1.00  0.00     0.316 C 
HETATM    3  N   UNL     1      41.749 -14.246   5.552  1.00  0.00    -0.339 N 
HETATM    4  O   UNL     1      44.010 -14.377   5.136  1.00  0.00    -0.247 OA
HETATM    5  H   UNL     1      42.184 -16.170   6.865  1.00  0.00     0.164 HD
HETATM    6  H   UNL     1      40.937 -14.833   5.677  1.00  0.00     0.164 HD
ENDROOT
BRANCH   1   7
HETATM    7  C   UNL     1      44.114 -16.862   6.400  1.00  0.00     0.183 C 
BRANCH   7   8
HETATM    8  C   UNL     1      44.193 -18.016   5.468  1.00  0.00     0.044 A 
HETATM    9  N   UNL     1      43.832 -17.925   4.130  1.00  0.00    -0.343 N 
HETATM   10  C   UNL     1      43.949 -19.095   3.523  1.00  0.00     0.112 A 
HETATM   11  H   UNL     1      43.460 -17.061   3.716  1.00  0.00     0.167 HD
HETATM   12  N   UNL     1      44.416 -19.980   4.427  1.00  0.00    -0.311 N 
HETATM   13  C   UNL     1      43.651 -19.490   2.127  1.00  0.00     0.049 A 
HETATM   14  C   UNL     1      44.650 -21.318   4.114  1.00  0.00     0.014 A 
HETATM   15  C   UNL     1      44.580 -19.327   5.642  1.00  0.00     0.125 A 
HETATM   16  C   UNL     1      45.164 -22.276   5.146  1.00  0.00     0.068 C 
HETATM   17  C   UNL     1      44.382 -21.690   2.842  1.00  0.00     0.025 A 
HETATM   18  C   UNL     1      43.875 -20.779   1.821  1.00  0.00     0.006 A 
ENDBRANCH   7   8
ENDBRANCH   1   7
BRANCH   3  19
HETATM   19  C   UNL     1      41.492 -12.893   5.039  1.00  0.00     0.085 C 
HETATM   20  C   UNL     1      40.823 -12.010   6.091  1.00  0.00     0.032 C 
BRANCH  19  21
HETATM   21  C   UNL     1      40.744 -12.968   3.692  1.00  0.00     0.063 C 
BRANCH  21  22
HETATM   22  C   UNL     1      41.593 -13.283   2.455  1.00  0.00     0.177 C 
BRANCH  22  23
HETATM   23  O   UNL     1      42.966 -13.002   2.715  1.00  0.00    -0.389 OA
HETATM   24  H   UNL     1      43.480 -13.741   2.346  1.00  0.00     0.210 HD
ENDBRANCH  22  23
BRANCH  22  25
HETATM   25  C   UNL     1      41.498 -14.693   1.985  1.00  0.00     0.081 A 
HETATM   26  O   UNL     1      40.909 -15.590   2.834  1.00  0.00    -0.324 OA
HETATM   27  C   UNL     1      40.915 -16.795   2.209  1.00  0.00     0.142 A 
HETATM   28  C   UNL     1      41.489 -16.691   0.964  1.00  0.00     0.027 A 
HETATM   29  C   UNL     1      41.861 -15.334   0.817  1.00  0.00     0.037 A 
ENDBRANCH  22  25
ENDBRANCH  21  22
ENDBRANCH  19  21
ENDBRANCH   3  19
TORSDOF 7
ENDMDL
MODEL 3
REMARK VINA RESULT:      -7.9      1.303      2.246
REMARK  7 active torsions:
REMARK  status: ('A' for Active; 'I' for Inactive)
REMARK    1  A    between atoms: C_7  and  C_8 
REMARK    2  A    between atoms: C_8  and  N_9 
REMARK       I    between atoms: N_9  and  C_10 
REMARK       I    between atoms: C_10  and  N_11 
REMARK    3  A    between atoms: N_11  and  C_12 
REMARK    4  A    between atoms: C_12  and  C_13 
REMARK    5  A    between atoms: C_13  and  C_14 
REMARK    6  A    between atoms: C_14  and  O_15 
REMARK    7  A    between atoms: C_14  and  C_16 
ROOT
HETATM    1  N   UNL     1      43.520 -15.228   6.984  1.00  0.00    -0.337 N 
HETATM    2  C   UNL     1      44.109 -13.988   6.963  1.00  0.00     0.316 C 
HETATM    3  N   UNL     1      44.614 -13.652   8.184  1.00  0.00    -0.339 N 
HETATM    4  O   UNL     1      44.123 -13.274   5.966  1.00  0.00    -0.247 OA
HETATM    5  H   UNL     1      43.951 -15.862   7.643  1.00  0.00     0.164 HD
HETATM    6  H   UNL     1      44.288 -14.176   8.984  1.00  0.00     0.164 HD
ENDROOT
BRANCH   1   7
HETATM    7  C   UNL     1      43.016 -15.827   5.760  1.00  0.00     0.183 C 
BRANCH   7   8
HETATM    8  C   UNL     1      43.422 -17.252   5.672  1.00  0.00     0.044 A 
HETATM    9  N   UNL     1      43.968 -17.806   4.521  1.00  0.00    -0.343 N 
HETATM   10  C   UNL     1      44.205 -19.099   4.678  1.00  0.00     0.112 A 
HETATM   11  H   UNL     1      44.093 -17.267   3.655  1.00  0.00     0.167 HD
HETATM   12  N   UNL     1      43.853 -19.428   5.938  1.00  0.00    -0.311 N 
HETATM   13  C   UNL     1      44.743 -20.102   3.731  1.00  0.00     0.049 A 
HETATM   14  C   UNL     1      43.972 -20.726   6.434  1.00  0.00     0.014 A 
HETATM   15  C   UNL     1      43.369 -18.292   6.575  1.00  0.00     0.125 A 
HETATM   16  C   UNL     1      43.565 -21.058   7.837  1.00  0.00     0.068 C 
HETATM   17  C   UNL     1      44.463 -21.650   5.577  1.00  0.00     0.025 A 
HETATM   18  C   UNL     1      44.859 -21.354   4.204  1.00  0.00     0.006 A 
ENDBRANCH   7   8
ENDBRANCH   1   7
BRANCH   3  19
HETATM   19  C   UNL     1      45.340 -12.409   8.481  1.00  0.00     0.085 C 
HETATM   20  C   UNL     1      46.713 -12.385   7.810  1.00  0.00     0.032 C 
BRANCH  19  21
HETATM   21  C   UNL     1      45.363 -12.158  10.002  1.00  0.00     0.063 C 
BRANCH  21  22
HETATM   22  C   UNL     1      44.033 -12.329  10.744  1.00  0.00     0.177 C 
BRANCH  22  23
HETATM   23  O   UNL     1      44.156 -13.330  11.752  1.00  0.00    -0.389 OA
HETATM   24  H   UNL     1      45.077 -13.639  11.731  1.00  0.00     0.210 HD
ENDBRANCH  22  23
BRANCH  22  25
HETATM   25  C   UNL     1      43.524 -11.089  11.394  1.00  0.00     0.081 A 
HETATM   26  O   UNL     1      43.067 -10.100  10.566  1.00  0.00    -0.324 OA
HETATM   27  C   UNL     1      42.644  -9.081  11.357  1.00  0.00     0.142 A 
HETATM   28  C   UNL     1      42.811  -9.398  12.684  1.00  0.00     0.027 A 
HETATM   29  C   UNL     1      43.375 -10.695  12.709  1.00  0.00     0.037 A 
ENDBRANCH  22  25
ENDBRANCH  21  22
ENDBRANCH  19  21
ENDBRANCH   3  19
TORSDOF 7
ENDMDL
MODEL 4
REMARK VINA RESULT:      -7.8      5.350      7.632
REMARK  7 active torsions:
REMARK  status: ('A' for Active; 'I' for Inactive)
REMARK    1  A    between atoms: C_7  and  C_8 
REMARK    2  A    between atoms: C_8  and  N_9 
REMARK       I    between atoms: N_9  and  C_10 
REMARK       I    between atoms: C_10  and  N_11 
REMARK    3  A    between atoms: N_11  and  C_12 
REMARK    4  A    between atoms: C_12  and  C_13 
REMARK    5  A    between atoms: C_13  and  C_14 
REMARK    6  A    between atoms: C_14  and  O_15 
REMARK    7  A    between atoms: C_14  and  C_16 
ROOT
HETATM    1  N   UNL     1      43.489 -17.054   1.053  1.00  0.00    -0.337 N 
HETATM    2  C   UNL     1      42.162 -16.848   0.765  1.00  0.00     0.316 C 
HETATM    3  N   UNL     1      41.944 -15.596   0.273  1.00  0.00    -0.339 N 
HETATM    4  O   UNL     1      41.297 -17.690   0.978  1.00  0.00    -0.247 OA
HETATM    5  H   UNL     1      44.112 -16.537   0.446  1.00  0.00     0.164 HD
HETATM    6  H   UNL     1      42.666 -14.905   0.419  1.00  0.00     0.164 HD
ENDROOT
BRANCH   1   7
HETATM    7  C   UNL     1      43.957 -18.359   1.483  1.00  0.00     0.183 C 
BRANCH   7   8
HETATM    8  C   UNL     1      43.905 -18.470   2.963  1.00  0.00     0.044 A 
HETATM    9  N   UNL     1      43.819 -17.361   3.796  1.00  0.00    -0.343 N 
HETATM   10  C   UNL     1      43.832 -17.718   5.070  1.00  0.00     0.112 A 
HETATM   11  H   UNL     1      43.818 -16.399   3.434  1.00  0.00     0.167 HD
HETATM   12  N   UNL     1      43.896 -19.065   5.116  1.00  0.00    -0.311 N 
HETATM   13  C   UNL     1      43.796 -16.896   6.301  1.00  0.00     0.049 A 
HETATM   14  C   UNL     1      43.930 -19.772   6.317  1.00  0.00     0.014 A 
HETATM   15  C   UNL     1      43.936 -19.552   3.817  1.00  0.00     0.125 A 
HETATM   16  C   UNL     1      44.007 -21.269   6.332  1.00  0.00     0.068 C 
HETATM   17  C   UNL     1      43.897 -19.031   7.449  1.00  0.00     0.025 A 
HETATM   18  C   UNL     1      43.828 -17.574   7.461  1.00  0.00     0.006 A 
ENDBRANCH   7   8
ENDBRANCH   1   7
BRANCH   3  19
HETATM   19  C   UNL     1      40.640 -15.080  -0.168  1.00  0.00     0.085 C 
HETATM   20  C   UNL     1      40.684 -14.603  -1.618  1.00  0.00     0.032 C 
BRANCH  19  21
HETATM   21  C   UNL     1      40.115 -14.034   0.837  1.00  0.00     0.063 C 
BRANCH  21  22
HETATM   22  C   UNL     1      39.428 -14.579   2.095  1.00  0.00     0.177 C 
BRANCH  22  23
HETATM   23  O   UNL     1      39.091 -15.952   1.917  1.00  0.00    -0.389 OA
HETATM   24  H   UNL     1      38.656 -16.244   2.736  1.00  0.00     0.210 HD
ENDBRANCH  22  23
BRANCH  22  25
HETATM   25  C   UNL     1      40.240 -14.467   3.339  1.00  0.00     0.081 A 
HETATM   26  O   UNL     1      41.592 -14.332   3.185  1.00  0.00    -0.324 OA
HETATM   27  C   UNL     1      42.129 -14.235   4.427  1.00  0.00     0.142 A 
HETATM   28  C   UNL     1      41.144 -14.295   5.384  1.00  0.00     0.027 A 
HETATM   29  C   UNL     1      39.924 -14.440   4.683  1.00  0.00     0.037 A 
ENDBRANCH  22  25
ENDBRANCH  21  22
ENDBRANCH  19  21
ENDBRANCH   3  19
TORSDOF 7
ENDMDL
MODEL 5
REMARK VINA RESULT:      -7.8      3.988      6.396
REMARK  7 active torsions:
REMARK  status: ('A' for Active; 'I' for Inactive)
REMARK    1  A    between atoms: C_7  and  C_8 
REMARK    2  A    between atoms: C_8  and  N_9 
REMARK       I    between atoms: N_9  and  C_10 
REMARK       I    between atoms: C_10  and  N_11 
REMARK    3  A    between atoms: N_11  and  C_12 
REMARK    4  A    between atoms: C_12  and  C_13 
REMARK    5  A    between atoms: C_13  and  C_14 
REMARK    6  A    between atoms: C_14  and  O_15 
REMARK    7  A    between atoms: C_14  and  C_16 
ROOT
HETATM    1  N   UNL     1      42.867 -15.750   6.678  1.00  0.00    -0.337 N 
HETATM    2  C   UNL     1      43.074 -14.535   6.071  1.00  0.00     0.316 C 
HETATM    3  N   UNL     1      41.925 -13.805   6.007  1.00  0.00    -0.339 N 
HETATM    4  O   UNL     1      44.160 -14.197   5.613  1.00  0.00    -0.247 OA
HETATM    5  H   UNL     1      42.139 -15.725   7.379  1.00  0.00     0.164 HD
HETATM    6  H   UNL     1      41.052 -14.295   6.143  1.00  0.00     0.164 HD
ENDROOT
BRANCH   1   7
HETATM    7  C   UNL     1      43.983 -16.639   6.949  1.00  0.00     0.183 C 
BRANCH   7   8
HETATM    8  C   UNL     1      44.049 -17.719   5.932  1.00  0.00     0.044 A 
HETATM    9  N   UNL     1      44.417 -19.021   6.243  1.00  0.00    -0.343 N 
HETATM   10  C   UNL     1      44.442 -19.783   5.161  1.00  0.00     0.112 A 
HETATM   11  H   UNL     1      44.696 -19.303   7.192  1.00  0.00     0.167 HD
HETATM   12  N   UNL     1      44.064 -19.020   4.116  1.00  0.00    -0.311 N 
HETATM   13  C   UNL     1      44.804 -21.209   4.995  1.00  0.00     0.049 A 
HETATM   14  C   UNL     1      43.986 -19.516   2.815  1.00  0.00     0.014 A 
HETATM   15  C   UNL     1      43.808 -17.734   4.574  1.00  0.00     0.125 A 
HETATM   16  C   UNL     1      43.567 -18.638   1.675  1.00  0.00     0.068 C 
HETATM   17  C   UNL     1      44.314 -20.818   2.652  1.00  0.00     0.025 A 
HETATM   18  C   UNL     1      44.730 -21.692   3.744  1.00  0.00     0.006 A 
ENDBRANCH   7   8
ENDBRANCH   1   7
BRANCH   3  19
HETATM   19  C   UNL     1      41.821 -12.447   5.454  1.00  0.00     0.085 C 
HETATM   20  C   UNL     1      41.388 -11.437   6.515  1.00  0.00     0.032 C 
BRANCH  19  21
HETATM   21  C   UNL     1      40.949 -12.457   4.181  1.00  0.00     0.063 C 
BRANCH  21  22
HETATM   22  C   UNL     1      41.626 -12.937   2.892  1.00  0.00     0.177 C 
BRANCH  22  23
HETATM   23  O   UNL     1      43.040 -12.979   3.064  1.00  0.00    -0.389 OA
HETATM   24  H   UNL     1      43.251 -13.842   3.460  1.00  0.00     0.210 HD
ENDBRANCH  22  23
BRANCH  22  25
HETATM   25  C   UNL     1      41.184 -14.281   2.427  1.00  0.00     0.081 A 
HETATM   26  O   UNL     1      41.615 -14.680   1.191  1.00  0.00    -0.324 OA
HETATM   27  C   UNL     1      41.114 -15.923   0.975  1.00  0.00     0.142 A 
HETATM   28  C   UNL     1      40.374 -16.340   2.056  1.00  0.00     0.027 A 
HETATM   29  C   UNL     1      40.422 -15.283   2.995  1.00  0.00     0.037 A 
ENDBRANCH  22  25
ENDBRANCH  21  22
ENDBRANCH  19  21
ENDBRANCH   3  19
TORSDOF 7
ENDMDL
MODEL 6
REMARK VINA RESULT:      -7.8      7.138      9.718
REMARK  7 active torsions:
REMARK  status: ('A' for Active; 'I' for Inactive)
REMARK    1  A    between atoms: C_7  and  C_8 
REMARK    2  A    between atoms: C_8  and  N_9 
REMARK       I    between atoms: N_9  and  C_10 
REMARK       I    between atoms: C_10  and  N_11 
REMARK    3  A    between atoms: N_11  and  C_12 
REMARK    4  A    between atoms: C_12  and  C_13 
REMARK    5  A    between atoms: C_13  and  C_14 
REMARK    6  A    between atoms: C_14  and  O_15 
REMARK    7  A    between atoms: C_14  and  C_16 
ROOT
HETATM    1  N   UNL     1      41.551 -16.157   0.638  1.00  0.00    -0.337 N 
HETATM    2  C   UNL     1      40.679 -15.311  -0.002  1.00  0.00     0.316 C 
HETATM    3  N   UNL     1      40.862 -15.331  -1.353  1.00  0.00    -0.339 N 
HETATM    4  O   UNL     1      39.878 -14.603   0.598  1.00  0.00    -0.247 OA
HETATM    5  H   UNL     1      41.799 -16.966   0.083  1.00  0.00     0.164 HD
HETATM    6  H   UNL     1      41.729 -15.715  -1.701  1.00  0.00     0.164 HD
ENDROOT
BRANCH   1   7
HETATM    7  C   UNL     1      41.453 -16.373   2.070  1.00  0.00     0.183 C 
BRANCH   7   8
HETATM    8  C   UNL     1      42.306 -17.515   2.486  1.00  0.00     0.044 A 
HETATM    9  N   UNL     1      42.476 -18.649   1.701  1.00  0.00    -0.343 N 
HETATM   10  C   UNL     1      43.243 -19.540   2.307  1.00  0.00     0.112 A 
HETATM   11  H   UNL     1      41.995 -18.773   0.801  1.00  0.00     0.167 HD
HETATM   12  N   UNL     1      43.625 -19.013   3.489  1.00  0.00    -0.311 N 
HETATM   13  C   UNL     1      43.670 -20.892   1.882  1.00  0.00     0.049 A 
HETATM   14  C   UNL     1      44.444 -19.699   4.385  1.00  0.00     0.014 A 
HETATM   15  C   UNL     1      43.058 -17.752   3.617  1.00  0.00     0.125 A 
HETATM   16  C   UNL     1      44.844 -19.086   5.693  1.00  0.00     0.068 C 
HETATM   17  C   UNL     1      44.840 -20.936   4.006  1.00  0.00     0.025 A 
HETATM   18  C   UNL     1      44.459 -21.557   2.742  1.00  0.00     0.006 A 
ENDBRANCH   7   8
ENDBRANCH   1   7
BRANCH   3  19
HETATM   19  C   UNL     1      40.062 -14.567  -2.321  1.00  0.00     0.085 C 
HETATM   20  C   UNL     1      39.791 -15.375  -3.589  1.00  0.00     0.032 C 
BRANCH  19  21
HETATM   21  C   UNL     1      40.699 -13.184  -2.564  1.00  0.00     0.063 C 
BRANCH  21  22
HETATM   22  C   UNL     1      42.165 -13.022  -2.143  1.00  0.00     0.177 C 
BRANCH  22  23
HETATM   23  O   UNL     1      43.017 -13.718  -3.050  1.00  0.00    -0.389 OA
HETATM   24  H   UNL     1      43.092 -13.166  -3.847  1.00  0.00     0.210 HD
ENDBRANCH  22  23
BRANCH  22  25
HETATM   25  C   UNL     1      42.634 -11.611  -2.071  1.00  0.00     0.081 A 
HETATM   26  O   UNL     1      43.428 -11.277  -1.008  1.00  0.00    -0.324 OA
HETATM   27  C   UNL     1      43.748  -9.965  -1.144  1.00  0.00     0.142 A 
HETATM   28  C   UNL     1      43.183  -9.446  -2.285  1.00  0.00     0.027 A 
HETATM   29  C   UNL     1      42.468 -10.509  -2.885  1.00  0.00     0.037 A 
ENDBRANCH  22  25
ENDBRANCH  21  22
ENDBRANCH  19  21
ENDBRANCH   3  19
TORSDOF 7
ENDMDL
MODEL 7
REMARK VINA RESULT:      -7.7      6.516     10.471
REMARK  7 active torsions:
REMARK  status: ('A' for Active; 'I' for Inactive)
REMARK    1  A    between atoms: C_7  and  C_8 
REMARK    2  A    between atoms: C_8  and  N_9 
REMARK       I    between atoms: N_9  and  C_10 
REMARK       I    between atoms: C_10  and  N_11 
REMARK    3  A    between atoms: N_11  and  C_12 
REMARK    4  A    between atoms: C_12  and  C_13 
REMARK    5  A    between atoms: C_13  and  C_14 
REMARK    6  A    between atoms: C_14  and  O_15 
REMARK    7  A    between atoms: C_14  and  C_16 
ROOT
HETATM    1  N   UNL     1      41.027 -15.456   1.275  1.00  0.00    -0.337 N 
HETATM    2  C   UNL     1      41.350 -15.048   0.004  1.00  0.00     0.316 C 
HETATM    3  N   UNL     1      41.712 -13.734  -0.023  1.00  0.00    -0.339 N 
HETATM    4  O   UNL     1      41.270 -15.785  -0.972  1.00  0.00    -0.247 OA
HETATM    5  H   UNL     1      41.544 -14.967   1.993  1.00  0.00     0.164 HD
HETATM    6  H   UNL     1      41.459 -13.163   0.771  1.00  0.00     0.164 HD
ENDROOT
BRANCH   1   7
HETATM    7  C   UNL     1      40.721 -16.849   1.547  1.00  0.00     0.183 C 
BRANCH   7   8
HETATM    8  C   UNL     1      41.791 -17.468   2.370  1.00  0.00     0.044 A 
HETATM    9  N   UNL     1      42.458 -18.624   1.987  1.00  0.00    -0.343 N 
HETATM   10  C   UNL     1      43.334 -18.998   2.907  1.00  0.00     0.112 A 
HETATM   11  H   UNL     1      42.227 -19.134   1.125  1.00  0.00     0.167 HD
HETATM   12  N   UNL     1      43.292 -18.090   3.903  1.00  0.00    -0.311 N 
HETATM   13  C   UNL     1      44.238 -20.169   2.956  1.00  0.00     0.049 A 
HETATM   14  C   UNL     1      44.093 -18.188   5.040  1.00  0.00     0.014 A 
HETATM   15  C   UNL     1      42.343 -17.126   3.586  1.00  0.00     0.125 A 
HETATM   16  C   UNL     1      44.017 -17.164   6.131  1.00  0.00     0.068 C 
HETATM   17  C   UNL     1      44.924 -19.254   5.095  1.00  0.00     0.025 A 
HETATM   18  C   UNL     1      45.012 -20.268   4.049  1.00  0.00     0.006 A 
ENDBRANCH   7   8
ENDBRANCH   1   7
BRANCH   3  19
HETATM   19  C   UNL     1      42.152 -13.008  -1.223  1.00  0.00     0.085 C 
HETATM   20  C   UNL     1      42.940 -11.749  -0.862  1.00  0.00     0.032 C 
BRANCH  19  21
HETATM   21  C   UNL     1      40.957 -12.769  -2.168  1.00  0.00     0.063 C 
BRANCH  21  22
HETATM   22  C   UNL     1      40.948 -13.570  -3.475  1.00  0.00     0.177 C 
BRANCH  22  23
HETATM   23  O   UNL     1      42.094 -14.415  -3.543  1.00  0.00    -0.389 OA
HETATM   24  H   UNL     1      42.707 -14.116  -2.849  1.00  0.00     0.210 HD
ENDBRANCH  22  23
BRANCH  22  25
HETATM   25  C   UNL     1      39.742 -14.423  -3.668  1.00  0.00     0.081 A 
HETATM   26  O   UNL     1      39.948 -15.682  -4.163  1.00  0.00    -0.324 OA
HETATM   27  C   UNL     1      38.733 -16.283  -4.244  1.00  0.00     0.142 A 
HETATM   28  C   UNL     1      37.745 -15.437  -3.800  1.00  0.00     0.027 A 
HETATM   29  C   UNL     1      38.396 -14.238  -3.423  1.00  0.00     0.037 A 
ENDBRANCH  22  25
ENDBRANCH  21  22
ENDBRANCH  19  21
ENDBRANCH   3  19
TORSDOF 7
ENDMDL
MODEL 8
REMARK VINA RESULT:      -7.7      3.561      9.286
REMARK  7 active torsions:
REMARK  status: ('A' for Active; 'I' for Inactive)
REMARK    1  A    between atoms: C_7  and  C_8 
REMARK    2  A    between atoms: C_8  and  N_9 
REMARK       I    between atoms: N_9  and  C_10 
REMARK       I    between atoms: C_10  and  N_11 
REMARK    3  A    between atoms: N_11  and  C_12 
REMARK    4  A    between atoms: C_12  and  C_13 
REMARK    5  A    between atoms: C_13  and  C_14 
REMARK    6  A    between atoms: C_14  and  O_15 
REMARK    7  A    between atoms: C_14  and  C_16 
ROOT
HETATM    1  N   UNL     1      39.341 -12.502   8.073  1.00  0.00    -0.337 N 
HETATM    2  C   UNL     1      39.992 -12.480   6.864  1.00  0.00     0.316 C 
HETATM    3  N   UNL     1      40.027 -13.717   6.291  1.00  0.00    -0.339 N 
HETATM    4  O   UNL     1      40.509 -11.468   6.404  1.00  0.00    -0.247 OA
HETATM    5  H   UNL     1      38.608 -13.198   8.117  1.00  0.00     0.164 HD
HETATM    6  H   UNL     1      39.837 -14.511   6.885  1.00  0.00     0.164 HD
ENDROOT
BRANCH   1   7
HETATM    7  C   UNL     1      39.093 -11.269   8.800  1.00  0.00     0.183 C 
BRANCH   7   8
HETATM    8  C   UNL     1      40.115 -11.074   9.859  1.00  0.00     0.044 A 
HETATM    9  N   UNL     1      39.802 -11.072  11.212  1.00  0.00    -0.343 N 
HETATM   10  C   UNL     1      40.874 -10.836  11.951  1.00  0.00     0.112 A 
HETATM   11  H   UNL     1      38.838 -11.175  11.555  1.00  0.00     0.167 HD
HETATM   12  N   UNL     1      41.925 -10.706  11.116  1.00  0.00    -0.311 N 
HETATM   13  C   UNL     1      41.023 -10.707  13.419  1.00  0.00     0.049 A 
HETATM   14  C   UNL     1      43.216 -10.445  11.572  1.00  0.00     0.014 A 
HETATM   15  C   UNL     1      41.476 -10.857   9.811  1.00  0.00     0.125 A 
HETATM   16  C   UNL     1      44.361 -10.300  10.615  1.00  0.00     0.068 C 
HETATM   17  C   UNL     1      43.365 -10.326  12.912  1.00  0.00     0.025 A 
HETATM   18  C   UNL     1      42.266 -10.456  13.863  1.00  0.00     0.006 A 
ENDBRANCH   7   8
ENDBRANCH   1   7
BRANCH   3  19
HETATM   19  C   UNL     1      40.616 -14.020   4.979  1.00  0.00     0.085 C 
HETATM   20  C   UNL     1      39.606 -13.827   3.850  1.00  0.00     0.032 C 
BRANCH  19  21
HETATM   21  C   UNL     1      41.292 -15.406   5.008  1.00  0.00     0.063 C 
BRANCH  21  22
HETATM   22  C   UNL     1      41.180 -16.195   6.318  1.00  0.00     0.177 C 
BRANCH  22  23
HETATM   23  O   UNL     1      39.883 -16.776   6.433  1.00  0.00    -0.389 OA
HETATM   24  H   UNL     1      39.516 -16.478   7.283  1.00  0.00     0.210 HD
ENDBRANCH  22  23
BRANCH  22  25
HETATM   25  C   UNL     1      42.183 -17.286   6.468  1.00  0.00     0.081 A 
HETATM   26  O   UNL     1      42.718 -17.466   7.715  1.00  0.00    -0.324 OA
HETATM   27  C   UNL     1      43.586 -18.506   7.631  1.00  0.00     0.142 A 
HETATM   28  C   UNL     1      43.614 -19.009   6.351  1.00  0.00     0.027 A 
HETATM   29  C   UNL     1      42.705 -18.226   5.602  1.00  0.00     0.037 A 
ENDBRANCH  22  25
ENDBRANCH  21  22
ENDBRANCH  19  21
ENDBRANCH   3  19
TORSDOF 7
ENDMDL
MODEL 9
REMARK VINA RESULT:      -7.6      2.619      9.714
REMARK  7 active torsions:
REMARK  status: ('A' for Active; 'I' for Inactive)
REMARK    1  A    between atoms: C_7  and  C_8 
REMARK    2  A    between atoms: C_8  and  N_9 
REMARK       I    between atoms: N_9  and  C_10 
REMARK       I    between atoms: C_10  and  N_11 
REMARK    3  A    between atoms: N_11  and  C_12 
REMARK    4  A    between atoms: C_12  and  C_13 
REMARK    5  A    between atoms: C_13  and  C_14 
REMARK    6  A    between atoms: C_14  and  O_15 
REMARK    7  A    between atoms: C_14  and  C_16 
ROOT
HETATM    1  N   UNL     1      44.265 -14.133   7.842  1.00  0.00    -0.337 N 
HETATM    2  C   UNL     1      43.795 -14.331   6.567  1.00  0.00     0.316 C 
HETATM    3  N   UNL     1      42.917 -15.373   6.512  1.00  0.00    -0.339 N 
HETATM    4  O   UNL     1      44.170 -13.666   5.608  1.00  0.00    -0.247 OA
HETATM    5  H   UNL     1      43.594 -14.383   8.556  1.00  0.00     0.164 HD
HETATM    6  H   UNL     1      42.913 -16.021   7.287  1.00  0.00     0.164 HD
ENDROOT
BRANCH   1   7
HETATM    7  C   UNL     1      45.126 -13.004   8.144  1.00  0.00     0.183 C 
BRANCH   7   8
HETATM    8  C   UNL     1      44.406 -12.007   8.977  1.00  0.00     0.044 A 
HETATM    9  N   UNL     1      44.786 -11.702  10.277  1.00  0.00    -0.343 N 
HETATM   10  C   UNL     1      43.963 -10.820  10.822  1.00  0.00     0.112 A 
HETATM   11  H   UNL     1      45.570 -12.173  10.747  1.00  0.00     0.167 HD
HETATM   12  N   UNL     1      43.040 -10.496   9.894  1.00  0.00    -0.311 N 
HETATM   13  C   UNL     1      43.946 -10.228  12.179  1.00  0.00     0.049 A 
HETATM   14  C   UNL     1      42.013  -9.587  10.144  1.00  0.00     0.014 A 
HETATM   15  C   UNL     1      43.301 -11.219   8.737  1.00  0.00     0.125 A 
HETATM   16  C   UNL     1      41.000  -9.254   9.091  1.00  0.00     0.068 C 
HETATM   17  C   UNL     1      41.988  -9.039  11.381  1.00  0.00     0.025 A 
HETATM   18  C   UNL     1      42.958  -9.351  12.425  1.00  0.00     0.006 A 
ENDBRANCH   7   8
ENDBRANCH   1   7
BRANCH   3  19
HETATM   19  C   UNL     1      42.209 -15.814   5.303  1.00  0.00     0.085 C 
HETATM   20  C   UNL     1      40.746 -15.372   5.314  1.00  0.00     0.032 C 
BRANCH  19  21
HETATM   21  C   UNL     1      42.422 -17.325   5.082  1.00  0.00     0.063 C 
BRANCH  21  22
HETATM   22  C   UNL     1      43.848 -17.772   4.740  1.00  0.00     0.177 C 
BRANCH  22  23
HETATM   23  O   UNL     1      44.560 -18.101   5.930  1.00  0.00    -0.389 OA
HETATM   24  H   UNL     1      45.012 -18.946   5.764  1.00  0.00     0.210 HD
ENDBRANCH  22  23
BRANCH  22  25
HETATM   25  C   UNL     1      43.924 -18.945   3.825  1.00  0.00     0.081 A 
HETATM   26  O   UNL     1      43.121 -18.920   2.718  1.00  0.00    -0.324 OA
HETATM   27  C   UNL     1      43.357 -20.063   2.026  1.00  0.00     0.142 A 
HETATM   28  C   UNL     1      44.308 -20.825   2.663  1.00  0.00     0.027 A 
HETATM   29  C   UNL     1      44.678 -20.102   3.821  1.00  0.00     0.037 A 
ENDBRANCH  22  25
ENDBRANCH  21  22
ENDBRANCH  19  21
ENDBRANCH   3  19
TORSDOF 7
ENDMDL
MODEL 10
REMARK VINA RESULT:      -7.6      2.746      9.983
REMARK  7 active torsions:
REMARK  status: ('A' for Active; 'I' for Inactive)
REMARK    1  A    between atoms: C_7  and  C_8 
REMARK    2  A    between atoms: C_8  and  N_9 
REMARK       I    between atoms: N_9  and  C_10 
REMARK       I    between atoms: C_10  and  N_11 
REMARK    3  A    between atoms: N_11  and  C_12 
REMARK    4  A    between atoms: C_12  and  C_13 
REMARK    5  A    between atoms: C_13  and  C_14 
REMARK    6  A    between atoms: C_14  and  O_15 
REMARK    7  A    between atoms: C_14  and  C_16 
ROOT
HETATM    1  N   UNL     1      44.261 -14.226   7.942  1.00  0.00    -0.337 N 
HETATM    2  C   UNL     1      43.740 -14.544   6.712  1.00  0.00     0.316 C 
HETATM    3  N   UNL     1      43.015 -15.697   6.758  1.00  0.00    -0.339 N 
HETATM    4  O   UNL     1      43.955 -13.877   5.706  1.00  0.00    -0.247 OA
HETATM    5  H   UNL     1      43.680 -14.533   8.712  1.00  0.00     0.164 HD
HETATM    6  H   UNL     1      43.152 -16.304   7.554  1.00  0.00     0.164 HD
ENDROOT
BRANCH   1   7
HETATM    7  C   UNL     1      44.974 -12.977   8.142  1.00  0.00     0.183 C 
BRANCH   7   8
HETATM    8  C   UNL     1      44.128 -12.006   8.882  1.00  0.00     0.044 A 
HETATM    9  N   UNL     1      43.030 -11.378   8.309  1.00  0.00    -0.343 N 
HETATM   10  C   UNL     1      42.470 -10.528   9.154  1.00  0.00     0.112 A 
HETATM   11  H   UNL     1      42.759 -11.527   7.328  1.00  0.00     0.167 HD
HETATM   12  N   UNL     1      43.157 -10.592  10.313  1.00  0.00    -0.311 N 
HETATM   13  C   UNL     1      41.313  -9.620   8.983  1.00  0.00     0.049 A 
HETATM   14  C   UNL     1      42.829  -9.814  11.422  1.00  0.00     0.014 A 
HETATM   15  C   UNL     1      44.190 -11.510  10.167  1.00  0.00     0.125 A 
HETATM   16  C   UNL     1      43.619  -9.905  12.693  1.00  0.00     0.068 C 
HETATM   17  C   UNL     1      41.773  -8.981  11.277  1.00  0.00     0.025 A 
HETATM   18  C   UNL     1      40.993  -8.869  10.049  1.00  0.00     0.006 A 
ENDBRANCH   7   8
ENDBRANCH   1   7
BRANCH   3  19
HETATM   19  C   UNL     1      42.296 -16.284   5.618  1.00  0.00     0.085 C 
HETATM   20  C   UNL     1      40.838 -16.582   5.964  1.00  0.00     0.032 C 
BRANCH  19  21
HETATM   21  C   UNL     1      43.082 -17.487   5.057  1.00  0.00     0.063 C 
BRANCH  21  22
HETATM   22  C   UNL     1      42.961 -17.740   3.549  1.00  0.00     0.177 C 
BRANCH  22  23
HETATM   23  O   UNL     1      43.644 -16.720   2.823  1.00  0.00    -0.389 OA
HETATM   24  H   UNL     1      44.510 -17.084   2.573  1.00  0.00     0.210 HD
ENDBRANCH  22  23
BRANCH  22  25
HETATM   25  C   UNL     1      43.497 -19.055   3.099  1.00  0.00     0.081 A 
HETATM   26  O   UNL     1      44.475 -19.621   3.870  1.00  0.00    -0.324 OA
HETATM   27  C   UNL     1      44.804 -20.805   3.293  1.00  0.00     0.142 A 
HETATM   28  C   UNL     1      44.046 -21.019   2.166  1.00  0.00     0.027 A 
HETATM   29  C   UNL     1      43.199 -19.893   2.043  1.00  0.00     0.037 A 
ENDBRANCH  22  25
ENDBRANCH  21  22
ENDBRANCH  19  21
ENDBRANCH   3  19
TORSDOF 7
ENDMDL
