MODEL 1
REMARK VINA RESULT:      -8.9      0.000      0.000
REMARK  3 active torsions:
REMARK  status: ('A' for Active; 'I' for Inactive)
REMARK    1  A    between atoms: C_5  and  C_6 
REMARK    2  A    between atoms: C_10  and  C_11 
REMARK    3  A    between atoms: C_24  and  N_25 
ROOT
HETATM    1  C   UNL     1      42.840 -17.175   3.233  1.00  0.00     0.070 A 
HETATM    2  N   UNL     1      43.319 -16.475   4.283  1.00  0.00    -0.228 NA
HETATM    3  C   UNL     1      42.881 -15.249   4.550  1.00  0.00     0.165 A 
HETATM    4  C   UNL     1      41.903 -14.621   3.771  1.00  0.00     0.063 A 
HETATM    5  C   UNL     1      41.417 -15.331   2.622  1.00  0.00    -0.006 A 
HETATM    6  C   UNL     1      41.909 -16.619   2.373  1.00  0.00     0.046 A 
HETATM    7  N   UNL     1      43.430 -14.684   5.613  1.00  0.00    -0.222 NA
HETATM    8  C   UNL     1      43.017 -13.467   5.951  1.00  0.00     0.237 A 
HETATM    9  N   UNL     1      42.075 -12.766   5.328  1.00  0.00    -0.229 NA
HETATM   10  C   UNL     1      41.522 -13.350   4.259  1.00  0.00     0.117 A 
ENDROOT
BRANCH   5  11
HETATM   11  C   UNL     1      40.421 -14.791   1.680  1.00  0.00    -0.022 A 
HETATM   12  C   UNL     1      40.821 -14.146   0.495  1.00  0.00     0.052 A 
HETATM   13  C   UNL     1      39.845 -13.644  -0.341  1.00  0.00     0.105 A 
HETATM   14  C   UNL     1      38.507 -13.782  -0.060  1.00  0.00     0.105 A 
HETATM   15  O   UNL     1      40.063 -12.966  -1.501  1.00  0.00    -0.323 OA
HETATM   16  O   UNL     1      37.715 -13.210  -1.006  1.00  0.00    -0.323 OA
HETATM   17  C   UNL     1      38.068 -14.430   1.071  1.00  0.00     0.040 A 
HETATM   18  C   UNL     1      38.710 -12.663  -1.898  1.00  0.00     0.352 A 
HETATM   19  C   UNL     1      39.036 -14.936   1.947  1.00  0.00     0.015 A 
ENDBRANCH   5  11
BRANCH  10  20
HETATM   20  N   UNL     1      40.544 -12.560   3.660  1.00  0.00    -0.286 NA
HETATM   21  H   UNL     1      39.680 -13.096   3.639  1.00  0.00     0.125 HD
HETATM   22  H   UNL     1      40.813 -12.236   2.739  1.00  0.00     0.125 HD
ENDBRANCH  10  20
BRANCH   1  23
HETATM   23  C   UNL     1      43.360 -18.553   3.093  1.00  0.00    -0.007 A 
HETATM   24  C   UNL     1      43.054 -19.363   1.985  1.00  0.00     0.014 A 
HETATM   25  C   UNL     1      43.522 -20.681   1.890  1.00  0.00     0.007 A 
HETATM   26  C   UNL     1      44.304 -21.232   2.908  1.00  0.00    -0.062 A 
HETATM   27  C   UNL     1      44.808 -22.640   2.818  1.00  0.00     0.048 C 
HETATM   28  C   UNL     1      44.630 -20.438   4.010  1.00  0.00     0.007 A 
HETATM   29  C   UNL     1      44.160 -19.123   4.101  1.00  0.00     0.014 A 
ENDBRANCH   1  23
TORSDOF 3
ENDMDL
MODEL 2
REMARK VINA RESULT:      -8.6      0.797      1.723
REMARK  3 active torsions:
REMARK  status: ('A' for Active; 'I' for Inactive)
REMARK    1  A    between atoms: C_5  and  C_6 
REMARK    2  A    between atoms: C_10  and  C_11 
REMARK    3  A    between atoms: C_24  and  N_25 
ROOT
HETATM    1  C   UNL     1      42.991 -16.970   2.958  1.00  0.00     0.070 A 
HETATM    2  N   UNL     1      43.243 -16.276   4.088  1.00  0.00    -0.228 NA
HETATM    3  C   UNL     1      42.854 -15.012   4.222  1.00  0.00     0.165 A 
HETATM    4  C   UNL     1      42.162 -14.335   3.211  1.00  0.00     0.063 A 
HETATM    5  C   UNL     1      41.929 -15.041   1.984  1.00  0.00    -0.006 A 
HETATM    6  C   UNL     1      42.358 -16.371   1.883  1.00  0.00     0.046 A 
HETATM    7  N   UNL     1      43.160 -14.458   5.383  1.00  0.00    -0.222 NA
HETATM    8  C   UNL     1      42.777 -13.202   5.592  1.00  0.00     0.237 A 
HETATM    9  N   UNL     1      42.086 -12.451   4.740  1.00  0.00    -0.229 NA
HETATM   10  C   UNL     1      41.777 -13.024   3.572  1.00  0.00     0.117 A 
ENDROOT
BRANCH   5  11
HETATM   11  C   UNL     1      41.253 -14.456   0.812  1.00  0.00    -0.022 A 
HETATM   12  C   UNL     1      39.854 -14.519   0.677  1.00  0.00     0.052 A 
HETATM   13  C   UNL     1      39.277 -13.970  -0.450  1.00  0.00     0.105 A 
HETATM   14  C   UNL     1      40.026 -13.346  -1.419  1.00  0.00     0.105 A 
HETATM   15  O   UNL     1      37.949 -13.977  -0.748  1.00  0.00    -0.323 OA
HETATM   16  O   UNL     1      39.266 -12.883  -2.446  1.00  0.00    -0.323 OA
HETATM   17  C   UNL     1      41.394 -13.234  -1.315  1.00  0.00     0.040 A 
HETATM   18  C   UNL     1      37.954 -13.319  -2.031  1.00  0.00     0.352 A 
HETATM   19  C   UNL     1      42.009 -13.796  -0.190  1.00  0.00     0.015 A 
ENDBRANCH   5  11
BRANCH  10  20
HETATM   20  N   UNL     1      41.053 -12.180   2.733  1.00  0.00    -0.286 NA
HETATM   21  H   UNL     1      41.009 -12.615   1.816  1.00  0.00     0.125 HD
HETATM   22  H   UNL     1      41.438 -11.244   2.692  1.00  0.00     0.125 HD
ENDBRANCH  10  20
BRANCH   1  23
HETATM   23  C   UNL     1      43.414 -18.387   2.971  1.00  0.00    -0.007 A 
HETATM   24  C   UNL     1      44.142 -18.944   4.038  1.00  0.00     0.014 A 
HETATM   25  C   UNL     1      44.571 -20.278   4.015  1.00  0.00     0.007 A 
HETATM   26  C   UNL     1      44.292 -21.094   2.916  1.00  0.00    -0.062 A 
HETATM   27  C   UNL     1      44.747 -22.522   2.880  1.00  0.00     0.048 C 
HETATM   28  C   UNL     1      43.558 -20.563   1.854  1.00  0.00     0.007 A 
HETATM   29  C   UNL     1      43.132 -19.230   1.881  1.00  0.00     0.014 A 
ENDBRANCH   1  23
TORSDOF 3
ENDMDL
MODEL 3
REMARK VINA RESULT:      -8.5      2.040      2.501
REMARK  3 active torsions:
REMARK  status: ('A' for Active; 'I' for Inactive)
REMARK    1  A    between atoms: C_5  and  C_6 
REMARK    2  A    between atoms: C_10  and  C_11 
REMARK    3  A    between atoms: C_24  and  N_25 
ROOT
HETATM    1  C   UNL     1      42.459 -17.467   2.467  1.00  0.00     0.070 A 
HETATM    2  N   UNL     1      41.889 -16.933   3.568  1.00  0.00    -0.228 NA
HETATM    3  C   UNL     1      41.196 -15.801   3.504  1.00  0.00     0.165 A 
HETATM    4  C   UNL     1      41.011 -15.107   2.303  1.00  0.00     0.063 A 
HETATM    5  C   UNL     1      41.650 -15.635   1.131  1.00  0.00    -0.006 A 
HETATM    6  C   UNL     1      42.376 -16.828   1.243  1.00  0.00     0.046 A 
HETATM    7  N   UNL     1      40.687 -15.397   4.657  1.00  0.00    -0.222 NA
HETATM    8  C   UNL     1      39.959 -14.285   4.658  1.00  0.00     0.237 A 
HETATM    9  N   UNL     1      39.673 -13.545   3.592  1.00  0.00    -0.229 NA
HETATM   10  C   UNL     1      40.187 -13.967   2.431  1.00  0.00     0.117 A 
ENDROOT
BRANCH   5  11
HETATM   11  C   UNL     1      41.587 -15.000  -0.198  1.00  0.00    -0.022 A 
HETATM   12  C   UNL     1      42.234 -13.775  -0.446  1.00  0.00     0.052 A 
HETATM   13  C   UNL     1      42.127 -13.219  -1.704  1.00  0.00     0.105 A 
HETATM   14  C   UNL     1      41.433 -13.838  -2.715  1.00  0.00     0.105 A 
HETATM   15  O   UNL     1      42.661 -12.030  -2.096  1.00  0.00    -0.323 OA
HETATM   16  O   UNL     1      41.443 -13.120  -3.869  1.00  0.00    -0.323 OA
HETATM   17  C   UNL     1      40.809 -15.050  -2.527  1.00  0.00     0.040 A 
HETATM   18  C   UNL     1      42.193 -11.957  -3.458  1.00  0.00     0.352 A 
HETATM   19  C   UNL     1      40.887 -15.632  -1.256  1.00  0.00     0.015 A 
ENDBRANCH   5  11
BRANCH  10  20
HETATM   20  N   UNL     1      39.843 -13.144   1.361  1.00  0.00    -0.286 NA
HETATM   21  H   UNL     1      40.405 -13.425   0.560  1.00  0.00     0.125 HD
HETATM   22  H   UNL     1      39.949 -12.160   1.573  1.00  0.00     0.125 HD
ENDBRANCH  10  20
BRANCH   1  23
HETATM   23  C   UNL     1      43.139 -18.766   2.666  1.00  0.00    -0.007 A 
HETATM   24  C   UNL     1      43.070 -19.803   1.719  1.00  0.00     0.014 A 
HETATM   25  C   UNL     1      43.686 -21.042   1.943  1.00  0.00     0.007 A 
HETATM   26  C   UNL     1      44.383 -21.283   3.130  1.00  0.00    -0.062 A 
HETATM   27  C   UNL     1      45.045 -22.604   3.381  1.00  0.00     0.048 C 
HETATM   28  C   UNL     1      44.475 -20.260   4.076  1.00  0.00     0.007 A 
HETATM   29  C   UNL     1      43.857 -19.025   3.848  1.00  0.00     0.014 A 
ENDBRANCH   1  23
TORSDOF 3
ENDMDL
MODEL 4
REMARK VINA RESULT:      -8.5      2.922      4.641
REMARK  3 active torsions:
REMARK  status: ('A' for Active; 'I' for Inactive)
REMARK    1  A    between atoms: C_5  and  C_6 
REMARK    2  A    between atoms: C_10  and  C_11 
REMARK    3  A    between atoms: C_24  and  N_25 
ROOT
HETATM    1  C   UNL     1      42.584 -17.546   2.313  1.00  0.00     0.070 A 
HETATM    2  N   UNL     1      42.240 -17.331   1.026  1.00  0.00    -0.228 NA
HETATM    3  C   UNL     1      41.714 -16.173   0.637  1.00  0.00     0.165 A 
HETATM    4  C   UNL     1      41.497 -15.117   1.530  1.00  0.00     0.063 A 
HETATM    5  C   UNL     1      41.812 -15.345   2.911  1.00  0.00    -0.006 A 
HETATM    6  C   UNL     1      42.360 -16.581   3.279  1.00  0.00     0.046 A 
HETATM    7  N   UNL     1      41.432 -16.098  -0.653  1.00  0.00    -0.222 NA
HETATM    8  C   UNL     1      40.928 -14.957  -1.112  1.00  0.00     0.237 A 
HETATM    9  N   UNL     1      40.701 -13.864  -0.391  1.00  0.00    -0.229 NA
HETATM   10  C   UNL     1      40.997 -13.949   0.911  1.00  0.00     0.117 A 
ENDROOT
BRANCH   5  11
HETATM   11  C   UNL     1      41.602 -14.351   3.979  1.00  0.00    -0.022 A 
HETATM   12  C   UNL     1      40.350 -14.219   4.609  1.00  0.00     0.052 A 
HETATM   13  C   UNL     1      40.206 -13.260   5.590  1.00  0.00     0.105 A 
HETATM   14  C   UNL     1      41.251 -12.457   5.979  1.00  0.00     0.105 A 
HETATM   15  O   UNL     1      39.060 -12.982   6.268  1.00  0.00    -0.323 OA
HETATM   16  O   UNL     1      40.895 -11.576   6.951  1.00  0.00    -0.323 OA
HETATM   17  C   UNL     1      42.500 -12.570   5.413  1.00  0.00     0.040 A 
HETATM   18  C   UNL     1      39.495 -11.890   7.103  1.00  0.00     0.352 A 
HETATM   19  C   UNL     1      42.672 -13.524   4.404  1.00  0.00     0.015 A 
ENDBRANCH   5  11
BRANCH  10  20
HETATM   20  N   UNL     1      40.736 -12.768   1.601  1.00  0.00    -0.286 NA
HETATM   21  H   UNL     1      39.885 -12.364   1.216  1.00  0.00     0.125 HD
HETATM   22  H   UNL     1      41.511 -12.118   1.573  1.00  0.00     0.125 HD
ENDBRANCH  10  20
BRANCH   1  23
HETATM   23  C   UNL     1      43.224 -18.850   2.593  1.00  0.00    -0.007 A 
HETATM   24  C   UNL     1      43.128 -19.939   1.709  1.00  0.00     0.014 A 
HETATM   25  C   UNL     1      43.705 -21.180   2.010  1.00  0.00     0.007 A 
HETATM   26  C   UNL     1      44.388 -21.371   3.213  1.00  0.00    -0.062 A 
HETATM   27  C   UNL     1      45.008 -22.695   3.547  1.00  0.00     0.048 C 
HETATM   28  C   UNL     1      44.506 -20.297   4.098  1.00  0.00     0.007 A 
HETATM   29  C   UNL     1      43.928 -19.060   3.793  1.00  0.00     0.014 A 
ENDBRANCH   1  23
TORSDOF 3
ENDMDL
MODEL 5
REMARK VINA RESULT:      -8.2      3.519      5.518
REMARK  3 active torsions:
REMARK  status: ('A' for Active; 'I' for Inactive)
REMARK    1  A    between atoms: C_5  and  C_6 
REMARK    2  A    between atoms: C_10  and  C_11 
REMARK    3  A    between atoms: C_24  and  N_25 
ROOT
HETATM    1  C   UNL     1      41.161 -15.969   3.063  1.00  0.00     0.070 A 
HETATM    2  N   UNL     1      40.357 -15.802   1.991  1.00  0.00    -0.228 NA
HETATM    3  C   UNL     1      39.583 -14.728   1.872  1.00  0.00     0.165 A 
HETATM    4  C   UNL     1      39.563 -13.714   2.836  1.00  0.00     0.063 A 
HETATM    5  C   UNL     1      40.375 -13.898   4.005  1.00  0.00    -0.006 A 
HETATM    6  C   UNL     1      41.172 -15.047   4.094  1.00  0.00     0.046 A 
HETATM    7  N   UNL     1      38.854 -14.690   0.769  1.00  0.00    -0.222 NA
HETATM    8  C   UNL     1      38.077 -13.629   0.575  1.00  0.00     0.237 A 
HETATM    9  N   UNL     1      37.983 -12.579   1.384  1.00  0.00    -0.229 NA
HETATM   10  C   UNL     1      38.730 -12.625   2.493  1.00  0.00     0.117 A 
ENDROOT
BRANCH   5  11
HETATM   11  C   UNL     1      40.431 -12.944   5.128  1.00  0.00    -0.022 A 
HETATM   12  C   UNL     1      39.536 -13.045   6.208  1.00  0.00     0.052 A 
HETATM   13  C   UNL     1      39.623 -12.115   7.223  1.00  0.00     0.105 A 
HETATM   14  C   UNL     1      40.570 -11.119   7.215  1.00  0.00     0.105 A 
HETATM   15  O   UNL     1      38.815 -12.051   8.316  1.00  0.00    -0.323 OA
HETATM   16  O   UNL     1      40.478 -10.306   8.300  1.00  0.00    -0.323 OA
HETATM   17  C   UNL     1      41.485 -10.998   6.195  1.00  0.00     0.040 A 
HETATM   18  C   UNL     1      39.340 -10.881   8.975  1.00  0.00     0.352 A 
HETATM   19  C   UNL     1      41.411 -11.919   5.143  1.00  0.00     0.015 A 
ENDBRANCH   5  11
BRANCH  10  20
HETATM   20  N   UNL     1      38.581 -11.492   3.289  1.00  0.00    -0.286 NA
HETATM   21  H   UNL     1      39.508 -11.191   3.578  1.00  0.00     0.125 HD
HETATM   22  H   UNL     1      37.968 -11.647   4.080  1.00  0.00     0.125 HD
ENDBRANCH  10  20
BRANCH   1  23
HETATM   23  C   UNL     1      42.020 -17.173   3.034  1.00  0.00    -0.007 A 
HETATM   24  C   UNL     1      42.618 -17.697   4.194  1.00  0.00     0.014 A 
HETATM   25  C   UNL     1      43.464 -18.814   4.142  1.00  0.00     0.007 A 
HETATM   26  C   UNL     1      43.745 -19.434   2.922  1.00  0.00    -0.062 A 
HETATM   27  C   UNL     1      44.649 -20.628   2.854  1.00  0.00     0.048 C 
HETATM   28  C   UNL     1      43.150 -18.936   1.762  1.00  0.00     0.007 A 
HETATM   29  C   UNL     1      42.307 -17.821   1.818  1.00  0.00     0.014 A 
ENDBRANCH   1  23
TORSDOF 3
ENDMDL
MODEL 6
REMARK VINA RESULT:      -8.2      1.291      2.146
REMARK  3 active torsions:
REMARK  status: ('A' for Active; 'I' for Inactive)
REMARK    1  A    between atoms: C_5  and  C_6 
REMARK    2  A    between atoms: C_10  and  C_11 
REMARK    3  A    between atoms: C_24  and  N_25 
ROOT
HETATM    1  C   UNL     1      43.477 -17.456   4.585  1.00  0.00     0.070 A 
HETATM    2  N   UNL     1      43.897 -16.711   5.630  1.00  0.00    -0.228 NA
HETATM    3  C   UNL     1      43.556 -15.431   5.744  1.00  0.00     0.165 A 
HETATM    4  C   UNL     1      42.744 -14.789   4.802  1.00  0.00     0.063 A 
HETATM    5  C   UNL     1      42.329 -15.553   3.660  1.00  0.00    -0.006 A 
HETATM    6  C   UNL     1      42.714 -16.897   3.575  1.00  0.00     0.046 A 
HETATM    7  N   UNL     1      44.031 -14.825   6.820  1.00  0.00    -0.222 NA
HETATM    8  C   UNL     1      43.705 -13.550   7.008  1.00  0.00     0.237 A 
HETATM    9  N   UNL     1      42.918 -12.826   6.219  1.00  0.00    -0.229 NA
HETATM   10  C   UNL     1      42.439 -13.451   5.138  1.00  0.00     0.117 A 
ENDROOT
BRANCH   5  11
HETATM   11  C   UNL     1      41.510 -15.011   2.560  1.00  0.00    -0.022 A 
HETATM   12  C   UNL     1      40.107 -15.117   2.584  1.00  0.00     0.052 A 
HETATM   13  C   UNL     1      39.391 -14.608   1.520  1.00  0.00     0.105 A 
HETATM   14  C   UNL     1      40.009 -13.984   0.462  1.00  0.00     0.105 A 
HETATM   15  O   UNL     1      38.040 -14.659   1.372  1.00  0.00    -0.323 OA
HETATM   16  O   UNL     1      39.126 -13.564  -0.482  1.00  0.00    -0.323 OA
HETATM   17  C   UNL     1      41.376 -13.832   0.409  1.00  0.00     0.040 A 
HETATM   18  C   UNL     1      37.882 -14.028   0.085  1.00  0.00     0.352 A 
HETATM   19  C   UNL     1      42.129 -14.353   1.468  1.00  0.00     0.015 A 
ENDBRANCH   5  11
BRANCH  10  20
HETATM   20  N   UNL     1      41.623 -12.632   4.361  1.00  0.00    -0.286 NA
HETATM   21  H   UNL     1      41.728 -12.919   3.391  1.00  0.00     0.125 HD
HETATM   22  H   UNL     1      41.819 -11.648   4.490  1.00  0.00     0.125 HD
ENDBRANCH  10  20
BRANCH   1  23
HETATM   23  C   UNL     1      43.870 -18.881   4.620  1.00  0.00    -0.007 A 
HETATM   24  C   UNL     1      43.933 -19.614   5.819  1.00  0.00     0.014 A 
HETATM   25  C   UNL     1      44.347 -20.953   5.838  1.00  0.00     0.007 A 
HETATM   26  C   UNL     1      44.722 -21.597   4.656  1.00  0.00    -0.062 A 
HETATM   27  C   UNL     1      45.168 -23.028   4.664  1.00  0.00     0.048 C 
HETATM   28  C   UNL     1      44.652 -20.889   3.454  1.00  0.00     0.007 A 
HETATM   29  C   UNL     1      44.239 -19.553   3.440  1.00  0.00     0.014 A 
ENDBRANCH   1  23
TORSDOF 3
ENDMDL
MODEL 7
REMARK VINA RESULT:      -7.9      3.351      7.122
REMARK  3 active torsions:
REMARK  status: ('A' for Active; 'I' for Inactive)
REMARK    1  A    between atoms: C_5  and  C_6 
REMARK    2  A    between atoms: C_10  and  C_11 
REMARK    3  A    between atoms: C_24  and  N_25 
ROOT
HETATM    1  C   UNL     1      41.582 -14.737   1.099  1.00  0.00     0.070 A 
HETATM    2  N   UNL     1      40.802 -14.166   2.042  1.00  0.00    -0.228 NA
HETATM    3  C   UNL     1      40.689 -14.696   3.256  1.00  0.00     0.165 A 
HETATM    4  C   UNL     1      41.370 -15.861   3.626  1.00  0.00     0.063 A 
HETATM    5  C   UNL     1      42.166 -16.508   2.622  1.00  0.00    -0.006 A 
HETATM    6  C   UNL     1      42.254 -15.919   1.354  1.00  0.00     0.046 A 
HETATM    7  N   UNL     1      39.899 -14.028   4.080  1.00  0.00    -0.222 NA
HETATM    8  C   UNL     1      39.763 -14.490   5.319  1.00  0.00     0.237 A 
HETATM    9  N   UNL     1      40.372 -15.560   5.819  1.00  0.00    -0.229 NA
HETATM   10  C   UNL     1      41.174 -16.223   4.978  1.00  0.00     0.117 A 
ENDROOT
BRANCH   5  11
HETATM   11  C   UNL     1      42.909 -17.762   2.842  1.00  0.00    -0.022 A 
HETATM   12  C   UNL     1      42.682 -18.889   2.030  1.00  0.00     0.052 A 
HETATM   13  C   UNL     1      43.393 -20.041   2.292  1.00  0.00     0.105 A 
HETATM   14  C   UNL     1      44.326 -20.105   3.300  1.00  0.00     0.105 A 
HETATM   15  O   UNL     1      43.269 -21.222   1.627  1.00  0.00    -0.323 OA
HETATM   16  O   UNL     1      44.905 -21.332   3.394  1.00  0.00    -0.323 OA
HETATM   17  C   UNL     1      44.602 -19.021   4.100  1.00  0.00     0.040 A 
HETATM   18  C   UNL     1      44.203 -22.044   2.354  1.00  0.00     0.352 A 
HETATM   19  C   UNL     1      43.884 -17.842   3.867  1.00  0.00     0.015 A 
ENDBRANCH   5  11
BRANCH  10  20
HETATM   20  N   UNL     1      41.779 -17.329   5.571  1.00  0.00    -0.286 NA
HETATM   21  H   UNL     1      41.062 -17.841   6.078  1.00  0.00     0.125 HD
HETATM   22  H   UNL     1      42.559 -17.077   6.166  1.00  0.00     0.125 HD
ENDBRANCH  10  20
BRANCH   1  23
HETATM   23  C   UNL     1      41.674 -14.004  -0.182  1.00  0.00    -0.007 A 
HETATM   24  C   UNL     1      41.331 -14.595  -1.411  1.00  0.00     0.014 A 
HETATM   25  C   UNL     1      41.464 -13.900  -2.621  1.00  0.00     0.007 A 
HETATM   26  C   UNL     1      41.956 -12.592  -2.637  1.00  0.00    -0.062 A 
HETATM   27  C   UNL     1      42.104 -11.839  -3.925  1.00  0.00     0.048 C 
HETATM   28  C   UNL     1      42.289 -11.984  -1.425  1.00  0.00     0.007 A 
HETATM   29  C   UNL     1      42.155 -12.682  -0.220  1.00  0.00     0.014 A 
ENDBRANCH   1  23
TORSDOF 3
ENDMDL
MODEL 8
REMARK VINA RESULT:      -7.9      2.552      6.032
REMARK  3 active torsions:
REMARK  status: ('A' for Active; 'I' for Inactive)
REMARK    1  A    between atoms: C_5  and  C_6 
REMARK    2  A    between atoms: C_10  and  C_11 
REMARK    3  A    between atoms: C_24  and  N_25 
ROOT
HETATM    1  C   UNL     1      44.235 -14.968   6.363  1.00  0.00     0.070 A 
HETATM    2  N   UNL     1      44.679 -16.211   6.648  1.00  0.00    -0.228 NA
HETATM    3  C   UNL     1      44.346 -17.252   5.892  1.00  0.00     0.165 A 
HETATM    4  C   UNL     1      43.530 -17.121   4.763  1.00  0.00     0.063 A 
HETATM    5  C   UNL     1      43.008 -15.816   4.473  1.00  0.00    -0.006 A 
HETATM    6  C   UNL     1      43.380 -14.747   5.298  1.00  0.00     0.046 A 
HETATM    7  N   UNL     1      44.859 -18.407   6.283  1.00  0.00    -0.222 NA
HETATM    8  C   UNL     1      44.586 -19.485   5.554  1.00  0.00     0.237 A 
HETATM    9  N   UNL     1      43.857 -19.505   4.443  1.00  0.00    -0.229 NA
HETATM   10  C   UNL     1      43.350 -18.330   4.053  1.00  0.00     0.117 A 
ENDROOT
BRANCH   5  11
HETATM   11  C   UNL     1      42.103 -15.522   3.347  1.00  0.00    -0.022 A 
HETATM   12  C   UNL     1      42.608 -15.115   2.099  1.00  0.00     0.052 A 
HETATM   13  C   UNL     1      41.713 -14.837   1.086  1.00  0.00     0.105 A 
HETATM   14  C   UNL     1      40.356 -14.970   1.260  1.00  0.00     0.105 A 
HETATM   15  O   UNL     1      42.035 -14.402  -0.162  1.00  0.00    -0.323 OA
HETATM   16  O   UNL     1      39.655 -14.638   0.145  1.00  0.00    -0.323 OA
HETATM   17  C   UNL     1      39.818 -15.393   2.454  1.00  0.00     0.040 A 
HETATM   18  C   UNL     1      40.723 -14.243  -0.741  1.00  0.00     0.352 A 
HETATM   19  C   UNL     1      40.701 -15.668   3.504  1.00  0.00     0.015 A 
ENDBRANCH   5  11
BRANCH  10  20
HETATM   20  N   UNL     1      42.601 -18.429   2.883  1.00  0.00    -0.286 NA
HETATM   21  H   UNL     1      42.983 -17.767   2.213  1.00  0.00     0.125 HD
HETATM   22  H   UNL     1      41.611 -18.284   3.038  1.00  0.00     0.125 HD
ENDBRANCH  10  20
BRANCH   1  23
HETATM   23  C   UNL     1      44.740 -13.892   7.243  1.00  0.00    -0.007 A 
HETATM   24  C   UNL     1      46.004 -13.302   7.059  1.00  0.00     0.014 A 
HETATM   25  C   UNL     1      46.483 -12.313   7.928  1.00  0.00     0.007 A 
HETATM   26  C   UNL     1      45.715 -11.891   9.016  1.00  0.00    -0.062 A 
HETATM   27  C   UNL     1      46.219 -10.835   9.953  1.00  0.00     0.048 C 
HETATM   28  C   UNL     1      44.452 -12.455   9.207  1.00  0.00     0.007 A 
HETATM   29  C   UNL     1      43.978 -13.443   8.337  1.00  0.00     0.014 A 
ENDBRANCH   1  23
TORSDOF 3
ENDMDL
MODEL 9
REMARK VINA RESULT:      -7.7      3.560      7.408
REMARK  3 active torsions:
REMARK  status: ('A' for Active; 'I' for Inactive)
REMARK    1  A    between atoms: C_5  and  C_6 
REMARK    2  A    between atoms: C_10  and  C_11 
REMARK    3  A    between atoms: C_24  and  N_25 
ROOT
HETATM    1  C   UNL     1      41.524 -15.215   3.166  1.00  0.00     0.070 A 
HETATM    2  N   UNL     1      41.831 -14.276   4.086  1.00  0.00    -0.228 NA
HETATM    3  C   UNL     1      42.690 -14.528   5.068  1.00  0.00     0.165 A 
HETATM    4  C   UNL     1      43.327 -15.767   5.200  1.00  0.00     0.063 A 
HETATM    5  C   UNL     1      42.976 -16.793   4.260  1.00  0.00    -0.006 A 
HETATM    6  C   UNL     1      42.063 -16.487   3.243  1.00  0.00     0.046 A 
HETATM    7  N   UNL     1      42.903 -13.515   5.892  1.00  0.00    -0.222 NA
HETATM    8  C   UNL     1      43.772 -13.693   6.881  1.00  0.00     0.237 A 
HETATM    9  N   UNL     1      44.474 -14.798   7.108  1.00  0.00    -0.229 NA
HETATM   10  C   UNL     1      44.256 -15.813   6.264  1.00  0.00     0.117 A 
ENDROOT
BRANCH   5  11
HETATM   11  C   UNL     1      43.526 -18.161   4.290  1.00  0.00    -0.022 A 
HETATM   12  C   UNL     1      43.378 -18.975   5.428  1.00  0.00     0.052 A 
HETATM   13  C   UNL     1      43.928 -20.240   5.407  1.00  0.00     0.105 A 
HETATM   14  C   UNL     1      44.586 -20.727   4.303  1.00  0.00     0.105 A 
HETATM   15  O   UNL     1      43.904 -21.135   6.432  1.00  0.00    -0.323 OA
HETATM   16  O   UNL     1      45.057 -21.988   4.493  1.00  0.00    -0.323 OA
HETATM   17  C   UNL     1      44.729 -19.979   3.157  1.00  0.00     0.040 A 
HETATM   18  C   UNL     1      44.653 -22.226   5.858  1.00  0.00     0.352 A 
HETATM   19  C   UNL     1      44.195 -18.685   3.155  1.00  0.00     0.015 A 
ENDBRANCH   5  11
BRANCH  10  20
HETATM   20  N   UNL     1      45.026 -16.935   6.562  1.00  0.00    -0.286 NA
HETATM   21  H   UNL     1      44.392 -17.689   6.817  1.00  0.00     0.125 HD
HETATM   22  H   UNL     1      45.715 -16.758   7.282  1.00  0.00     0.125 HD
ENDBRANCH  10  20
BRANCH   1  23
HETATM   23  C   UNL     1      40.610 -14.778   2.088  1.00  0.00    -0.007 A 
HETATM   24  C   UNL     1      39.212 -14.794   2.237  1.00  0.00     0.014 A 
HETATM   25  C   UNL     1      38.359 -14.416   1.190  1.00  0.00     0.007 A 
HETATM   26  C   UNL     1      38.883 -14.021  -0.043  1.00  0.00    -0.062 A 
HETATM   27  C   UNL     1      37.981 -13.616  -1.170  1.00  0.00     0.048 C 
HETATM   28  C   UNL     1      40.269 -13.986  -0.205  1.00  0.00     0.007 A 
HETATM   29  C   UNL     1      41.116 -14.364   0.842  1.00  0.00     0.014 A 
ENDBRANCH   1  23
TORSDOF 3
ENDMDL
MODEL 10
REMARK VINA RESULT:      -7.5      3.919      7.165
REMARK  3 active torsions:
REMARK  status: ('A' for Active; 'I' for Inactive)
REMARK    1  A    between atoms: C_5  and  C_6 
REMARK    2  A    between atoms: C_10  and  C_11 
REMARK    3  A    between atoms: C_24  and  N_25 
ROOT
HETATM    1  C   UNL     1      41.292 -13.221   1.581  1.00  0.00     0.070 A 
HETATM    2  N   UNL     1      40.408 -12.391   2.175  1.00  0.00    -0.228 NA
HETATM    3  C   UNL     1      40.016 -12.586   3.430  1.00  0.00     0.165 A 
HETATM    4  C   UNL     1      40.498 -13.648   4.204  1.00  0.00     0.063 A 
HETATM    5  C   UNL     1      41.401 -14.568   3.573  1.00  0.00    -0.006 A 
HETATM    6  C   UNL     1      41.784 -14.329   2.247  1.00  0.00     0.046 A 
HETATM    7  N   UNL     1      39.154 -11.693   3.887  1.00  0.00    -0.222 NA
HETATM    8  C   UNL     1      38.742 -11.815   5.144  1.00  0.00     0.237 A 
HETATM    9  N   UNL     1      39.139 -12.749   6.003  1.00  0.00    -0.229 NA
HETATM   10  C   UNL     1      40.016 -13.642   5.532  1.00  0.00     0.117 A 
ENDROOT
BRANCH   5  11
HETATM   11  C   UNL     1      41.962 -15.758   4.238  1.00  0.00    -0.022 A 
HETATM   12  C   UNL     1      43.117 -15.664   5.035  1.00  0.00     0.052 A 
HETATM   13  C   UNL     1      43.609 -16.814   5.619  1.00  0.00     0.105 A 
HETATM   14  C   UNL     1      42.987 -18.030   5.462  1.00  0.00     0.105 A 
HETATM   15  O   UNL     1      44.729 -16.900   6.386  1.00  0.00    -0.323 OA
HETATM   16  O   UNL     1      43.637 -19.032   6.110  1.00  0.00    -0.323 OA
HETATM   17  C   UNL     1      41.839 -18.165   4.716  1.00  0.00     0.040 A 
HETATM   18  C   UNL     1      44.760 -18.315   6.664  1.00  0.00     0.352 A 
HETATM   19  C   UNL     1      41.326 -17.018   4.099  1.00  0.00     0.015 A 
ENDBRANCH   5  11
BRANCH  10  20
HETATM   20  N   UNL     1      40.387 -14.587   6.487  1.00  0.00    -0.286 NA
HETATM   21  H   UNL     1      40.328 -14.145   7.401  1.00  0.00     0.125 HD
HETATM   22  H   UNL     1      41.303 -14.981   6.313  1.00  0.00     0.125 HD
ENDBRANCH  10  20
BRANCH   1  23
HETATM   23  C   UNL     1      41.695 -12.847   0.208  1.00  0.00    -0.007 A 
HETATM   24  C   UNL     1      42.222 -11.580  -0.101  1.00  0.00     0.014 A 
HETATM   25  C   UNL     1      42.560 -11.227  -1.415  1.00  0.00     0.007 A 
HETATM   26  C   UNL     1      42.370 -12.132  -2.463  1.00  0.00    -0.062 A 
HETATM   27  C   UNL     1      42.727 -11.766  -3.872  1.00  0.00     0.048 C 
HETATM   28  C   UNL     1      41.861 -13.399  -2.174  1.00  0.00     0.007 A 
HETATM   29  C   UNL     1      41.525 -13.746  -0.861  1.00  0.00     0.014 A 
ENDBRANCH   1  23
TORSDOF 3
ENDMDL
