MODEL 1
REMARK VINA RESULT:      -6.7      0.000      0.000
REMARK  5 active torsions:
REMARK  status: ('A' for Active; 'I' for Inactive)
REMARK    1  A    between atoms: C_7  and  C_8 
REMARK    2  A    between atoms: C_8  and  N_9 
REMARK    3  A    between atoms: C_12  and  C_13 
REMARK    4  A    between atoms: C_13  and  C_14 
REMARK    5  A    between atoms: C_14  and  O_15 
ROOT
HETATM    1  C   UNL     1      44.368 -19.550   6.228  1.00  0.00     0.020 A 
HETATM    2  C   UNL     1      44.119 -18.199   6.323  1.00  0.00     0.117 A 
HETATM    3  N   UNL     1      43.840 -17.409   5.258  1.00  0.00    -0.260 NA
HETATM    4  C   UNL     1      43.837 -17.972   4.029  1.00  0.00     0.076 A 
HETATM    5  C   UNL     1      44.064 -19.352   3.819  1.00  0.00     0.011 A 
HETATM    6  C   UNL     1      44.332 -20.130   4.966  1.00  0.00     0.016 A 
HETATM    7  C   UNL     1      43.575 -17.147   2.931  1.00  0.00    -0.003 A 
HETATM    8  C   UNL     1      43.532 -17.669   1.629  1.00  0.00     0.012 A 
HETATM    9  C   UNL     1      43.741 -19.024   1.416  1.00  0.00     0.020 A 
HETATM   10  C   UNL     1      44.008 -19.863   2.497  1.00  0.00     0.023 A 
HETATM   11 BR   UNL     1      44.279 -21.704   2.098  1.00  0.00    -0.050 Br
ENDROOT
BRANCH   7  12
HETATM   12  C   UNL     1      43.375 -15.665   3.141  1.00  0.00     0.275 C 
BRANCH  12  13
HETATM   13  N   UNL     1      42.123 -15.316   3.904  1.00  0.00    -0.067 N 
HETATM   14  H   UNL     1      42.280 -15.785   4.818  1.00  0.00     0.280 HD
HETATM   15  C   UNL     1      40.838 -15.864   3.335  1.00  0.00     0.240 C 
HETATM   16  C   UNL     1      40.074 -14.639   2.841  1.00  0.00     0.015 C 
HETATM   17  C   UNL     1      40.455 -13.601   3.895  1.00  0.00     0.034 C 
HETATM   18  C   UNL     1      41.936 -13.841   4.145  1.00  0.00     0.235 C 
BRANCH  16  19
HETATM   19  C   UNL     1      40.470 -14.186   1.427  1.00  0.00     0.032 C 
BRANCH  19  20
HETATM   20  C   UNL     1      40.776 -15.338   0.475  1.00  0.00     0.164 C 
BRANCH  20  21
HETATM   21  O   UNL     1      42.007 -15.066  -0.176  1.00  0.00    -0.401 OA
HETATM   22  H   UNL     1      42.285 -15.873  -0.647  1.00  0.00     0.209 HD
ENDBRANCH  20  21
ENDBRANCH  19  20
ENDBRANCH  16  19
ENDBRANCH  12  13
ENDBRANCH   7  12
TORSDOF 5
ENDMDL
MODEL 2
REMARK VINA RESULT:      -6.7      1.359      1.771
REMARK  5 active torsions:
REMARK  status: ('A' for Active; 'I' for Inactive)
REMARK    1  A    between atoms: C_7  and  C_8 
REMARK    2  A    between atoms: C_8  and  N_9 
REMARK    3  A    between atoms: C_12  and  C_13 
REMARK    4  A    between atoms: C_13  and  C_14 
REMARK    5  A    between atoms: C_14  and  O_15 
ROOT
HETATM    1  C   UNL     1      43.910 -18.335   7.323  1.00  0.00     0.020 A 
HETATM    2  C   UNL     1      43.632 -17.163   6.656  1.00  0.00     0.117 A 
HETATM    3  N   UNL     1      43.620 -17.051   5.306  1.00  0.00    -0.260 NA
HETATM    4  C   UNL     1      43.929 -18.143   4.572  1.00  0.00     0.076 A 
HETATM    5  C   UNL     1      44.215 -19.401   5.154  1.00  0.00     0.011 A 
HETATM    6  C   UNL     1      44.197 -19.463   6.564  1.00  0.00     0.016 A 
HETATM    7  C   UNL     1      43.940 -18.016   3.179  1.00  0.00    -0.003 A 
HETATM    8  C   UNL     1      44.229 -19.114   2.355  1.00  0.00     0.012 A 
HETATM    9  C   UNL     1      44.499 -20.354   2.918  1.00  0.00     0.020 A 
HETATM   10  C   UNL     1      44.496 -20.502   4.305  1.00  0.00     0.023 A 
HETATM   11 BR   UNL     1      44.877 -22.241   4.976  1.00  0.00    -0.050 Br
ENDROOT
BRANCH   7  12
HETATM   12  C   UNL     1      43.679 -16.668   2.551  1.00  0.00     0.275 C 
BRANCH  12  13
HETATM   13  N   UNL     1      42.304 -16.116   2.829  1.00  0.00    -0.067 N 
HETATM   14  H   UNL     1      42.224 -16.223   3.859  1.00  0.00     0.280 HD
HETATM   15  C   UNL     1      41.159 -16.878   2.210  1.00  0.00     0.240 C 
HETATM   16  C   UNL     1      40.590 -15.938   1.151  1.00  0.00     0.015 C 
HETATM   17  C   UNL     1      40.770 -14.579   1.826  1.00  0.00     0.034 C 
HETATM   18  C   UNL     1      42.140 -14.660   2.482  1.00  0.00     0.235 C 
BRANCH  16  19
HETATM   19  C   UNL     1      41.321 -16.003  -0.199  1.00  0.00     0.032 C 
BRANCH  19  20
HETATM   20  C   UNL     1      40.924 -14.894  -1.169  1.00  0.00     0.164 C 
BRANCH  20  21
HETATM   21  O   UNL     1      42.097 -14.199  -1.559  1.00  0.00    -0.401 OA
HETATM   22  H   UNL     1      41.852 -13.553  -2.247  1.00  0.00     0.209 HD
ENDBRANCH  20  21
ENDBRANCH  19  20
ENDBRANCH  16  19
ENDBRANCH  12  13
ENDBRANCH   7  12
TORSDOF 5
ENDMDL
MODEL 3
REMARK VINA RESULT:      -6.5      1.816      2.434
REMARK  5 active torsions:
REMARK  status: ('A' for Active; 'I' for Inactive)
REMARK    1  A    between atoms: C_7  and  C_8 
REMARK    2  A    between atoms: C_8  and  N_9 
REMARK    3  A    between atoms: C_12  and  C_13 
REMARK    4  A    between atoms: C_13  and  C_14 
REMARK    5  A    between atoms: C_14  and  O_15 
ROOT
HETATM    1  C   UNL     1      44.270 -18.781   6.826  1.00  0.00     0.020 A 
HETATM    2  C   UNL     1      44.004 -17.525   6.330  1.00  0.00     0.117 A 
HETATM    3  N   UNL     1      43.838 -17.256   5.013  1.00  0.00    -0.260 NA
HETATM    4  C   UNL     1      43.972 -18.272   4.131  1.00  0.00     0.076 A 
HETATM    5  C   UNL     1      44.229 -19.604   4.533  1.00  0.00     0.011 A 
HETATM    6  C   UNL     1      44.377 -19.828   5.919  1.00  0.00     0.016 A 
HETATM    7  C   UNL     1      43.825 -17.985   2.771  1.00  0.00    -0.003 A 
HETATM    8  C   UNL     1      43.928 -18.996   1.803  1.00  0.00     0.012 A 
HETATM    9  C   UNL     1      44.168 -20.307   2.190  1.00  0.00     0.020 A 
HETATM   10  C   UNL     1      44.321 -20.614   3.542  1.00  0.00     0.023 A 
HETATM   11 BR   UNL     1      44.646 -22.441   3.967  1.00  0.00    -0.050 Br
ENDROOT
BRANCH   7  12
HETATM   12  C   UNL     1      43.593 -16.560   2.330  1.00  0.00     0.275 C 
BRANCH  12  13
HETATM   13  N   UNL     1      42.271 -16.336   1.642  1.00  0.00    -0.067 N 
HETATM   14  H   UNL     1      42.447 -16.715   0.690  1.00  0.00     0.280 HD
HETATM   15  C   UNL     1      41.857 -14.894   1.479  1.00  0.00     0.240 C 
HETATM   16  C   UNL     1      40.647 -14.728   2.394  1.00  0.00     0.015 C 
HETATM   17  C   UNL     1      39.970 -16.091   2.249  1.00  0.00     0.034 C 
HETATM   18  C   UNL     1      41.119 -17.087   2.255  1.00  0.00     0.235 C 
BRANCH  16  19
HETATM   19  C   UNL     1      41.009 -14.427   3.857  1.00  0.00     0.032 C 
BRANCH  19  20
HETATM   20  C   UNL     1      39.798 -14.195   4.755  1.00  0.00     0.164 C 
BRANCH  20  21
HETATM   21  O   UNL     1      39.735 -15.249   5.703  1.00  0.00    -0.401 OA
HETATM   22  H   UNL     1      39.775 -14.858   6.595  1.00  0.00     0.209 HD
ENDBRANCH  20  21
ENDBRANCH  19  20
ENDBRANCH  16  19
ENDBRANCH  12  13
ENDBRANCH   7  12
TORSDOF 5
ENDMDL
MODEL 4
REMARK VINA RESULT:      -6.5      1.724      2.988
REMARK  5 active torsions:
REMARK  status: ('A' for Active; 'I' for Inactive)
REMARK    1  A    between atoms: C_7  and  C_8 
REMARK    2  A    between atoms: C_8  and  N_9 
REMARK    3  A    between atoms: C_12  and  C_13 
REMARK    4  A    between atoms: C_13  and  C_14 
REMARK    5  A    between atoms: C_14  and  O_15 
ROOT
HETATM    1  C   UNL     1      43.624 -18.727   1.417  1.00  0.00     0.020 A 
HETATM    2  C   UNL     1      43.348 -17.382   1.516  1.00  0.00     0.117 A 
HETATM    3  N   UNL     1      43.375 -16.693   2.682  1.00  0.00    -0.260 NA
HETATM    4  C   UNL     1      43.657 -17.370   3.818  1.00  0.00     0.076 A 
HETATM    5  C   UNL     1      43.972 -18.749   3.828  1.00  0.00     0.011 A 
HETATM    6  C   UNL     1      43.945 -19.412   2.582  1.00  0.00     0.016 A 
HETATM    7  C   UNL     1      43.658 -16.659   5.022  1.00  0.00    -0.003 A 
HETATM    8  C   UNL     1      43.967 -17.293   6.235  1.00  0.00     0.012 A 
HETATM    9  C   UNL     1      44.288 -18.643   6.252  1.00  0.00     0.020 A 
HETATM   10  C   UNL     1      44.290 -19.371   5.063  1.00  0.00     0.023 A 
HETATM   11 BR   UNL     1      44.745 -21.214   5.194  1.00  0.00    -0.050 Br
ENDROOT
BRANCH   7  12
HETATM   12  C   UNL     1      43.282 -15.197   5.026  1.00  0.00     0.275 C 
BRANCH  12  13
HETATM   13  N   UNL     1      42.065 -14.877   5.857  1.00  0.00    -0.067 N 
HETATM   14  H   UNL     1      42.353 -15.191   6.805  1.00  0.00     0.280 HD
HETATM   15  C   UNL     1      40.813 -15.636   5.496  1.00  0.00     0.240 C 
HETATM   16  C   UNL     1      39.869 -14.583   4.922  1.00  0.00     0.015 C 
HETATM   17  C   UNL     1      40.210 -13.369   5.785  1.00  0.00     0.034 C 
HETATM   18  C   UNL     1      41.724 -13.412   5.918  1.00  0.00     0.235 C 
BRANCH  16  19
HETATM   19  C   UNL     1      40.089 -14.297   3.428  1.00  0.00     0.032 C 
BRANCH  19  20
HETATM   20  C   UNL     1      40.151 -15.553   2.563  1.00  0.00     0.164 C 
BRANCH  20  21
HETATM   21  O   UNL     1      38.853 -15.811   2.054  1.00  0.00    -0.401 OA
HETATM   22  H   UNL     1      38.207 -15.365   2.631  1.00  0.00     0.209 HD
ENDBRANCH  20  21
ENDBRANCH  19  20
ENDBRANCH  16  19
ENDBRANCH  12  13
ENDBRANCH   7  12
TORSDOF 5
ENDMDL
MODEL 5
REMARK VINA RESULT:      -6.4      2.441      3.555
REMARK  5 active torsions:
REMARK  status: ('A' for Active; 'I' for Inactive)
REMARK    1  A    between atoms: C_7  and  C_8 
REMARK    2  A    between atoms: C_8  and  N_9 
REMARK    3  A    between atoms: C_12  and  C_13 
REMARK    4  A    between atoms: C_13  and  C_14 
REMARK    5  A    between atoms: C_14  and  O_15 
ROOT
HETATM    1  C   UNL     1      44.304 -19.947   2.928  1.00  0.00     0.020 A 
HETATM    2  C   UNL     1      43.576 -19.483   1.856  1.00  0.00     0.117 A 
HETATM    3  N   UNL     1      42.610 -18.539   1.955  1.00  0.00    -0.260 NA
HETATM    4  C   UNL     1      42.321 -18.047   3.181  1.00  0.00     0.076 A 
HETATM    5  C   UNL     1      43.018 -18.442   4.347  1.00  0.00     0.011 A 
HETATM    6  C   UNL     1      44.025 -19.416   4.181  1.00  0.00     0.016 A 
HETATM    7  C   UNL     1      41.305 -17.092   3.281  1.00  0.00    -0.003 A 
HETATM    8  C   UNL     1      40.969 -16.521   4.519  1.00  0.00     0.012 A 
HETATM    9  C   UNL     1      41.656 -16.894   5.666  1.00  0.00     0.020 A 
HETATM   10  C   UNL     1      42.670 -17.847   5.587  1.00  0.00     0.023 A 
HETATM   11 BR   UNL     1      43.551 -18.288   7.216  1.00  0.00    -0.050 Br
ENDROOT
BRANCH   7  12
HETATM   12  C   UNL     1      40.527 -16.696   2.049  1.00  0.00     0.275 C 
BRANCH  12  13
HETATM   13  N   UNL     1      40.638 -15.236   1.694  1.00  0.00    -0.067 N 
HETATM   14  H   UNL     1      40.323 -14.768   2.567  1.00  0.00     0.280 HD
HETATM   15  C   UNL     1      39.733 -14.765   0.583  1.00  0.00     0.240 C 
HETATM   16  C   UNL     1      40.672 -14.427  -0.571  1.00  0.00     0.015 C 
HETATM   17  C   UNL     1      41.880 -13.864   0.177  1.00  0.00     0.034 C 
HETATM   18  C   UNL     1      42.039 -14.779   1.382  1.00  0.00     0.235 C 
BRANCH  16  19
HETATM   19  C   UNL     1      41.055 -15.637  -1.438  1.00  0.00     0.032 C 
BRANCH  19  20
HETATM   20  C   UNL     1      40.849 -15.413  -2.933  1.00  0.00     0.164 C 
BRANCH  20  21
HETATM   21  O   UNL     1      42.100 -15.082  -3.513  1.00  0.00    -0.401 OA
HETATM   22  H   UNL     1      42.149 -15.505  -4.390  1.00  0.00     0.209 HD
ENDBRANCH  20  21
ENDBRANCH  19  20
ENDBRANCH  16  19
ENDBRANCH  12  13
ENDBRANCH   7  12
TORSDOF 5
ENDMDL
MODEL 6
REMARK VINA RESULT:      -6.2      2.014      2.813
REMARK  5 active torsions:
REMARK  status: ('A' for Active; 'I' for Inactive)
REMARK    1  A    between atoms: C_7  and  C_8 
REMARK    2  A    between atoms: C_8  and  N_9 
REMARK    3  A    between atoms: C_12  and  C_13 
REMARK    4  A    between atoms: C_13  and  C_14 
REMARK    5  A    between atoms: C_14  and  O_15 
ROOT
HETATM    1  C   UNL     1      42.662 -17.275   6.308  1.00  0.00     0.020 A 
HETATM    2  C   UNL     1      41.609 -16.487   5.901  1.00  0.00     0.117 A 
HETATM    3  N   UNL     1      41.104 -16.498   4.644  1.00  0.00    -0.260 NA
HETATM    4  C   UNL     1      41.688 -17.303   3.728  1.00  0.00     0.076 A 
HETATM    5  C   UNL     1      42.766 -18.163   4.043  1.00  0.00     0.011 A 
HETATM    6  C   UNL     1      43.239 -18.123   5.371  1.00  0.00     0.016 A 
HETATM    7  C   UNL     1      41.179 -17.291   2.425  1.00  0.00    -0.003 A 
HETATM    8  C   UNL     1      41.721 -18.118   1.430  1.00  0.00     0.012 A 
HETATM    9  C   UNL     1      42.771 -18.974   1.734  1.00  0.00     0.020 A 
HETATM   10  C   UNL     1      43.294 -18.999   3.026  1.00  0.00     0.023 A 
HETATM   11 BR   UNL     1      44.731 -20.208   3.339  1.00  0.00    -0.050 Br
ENDROOT
BRANCH   7  12
HETATM   12  C   UNL     1      40.058 -16.344   2.070  1.00  0.00     0.275 C 
BRANCH  12  13
HETATM   13  N   UNL     1      40.519 -14.966   1.672  1.00  0.00    -0.067 N 
HETATM   14  H   UNL     1      40.268 -14.396   2.504  1.00  0.00     0.280 HD
HETATM   15  C   UNL     1      39.812 -14.359   0.486  1.00  0.00     0.240 C 
HETATM   16  C   UNL     1      40.870 -14.300  -0.613  1.00  0.00     0.015 C 
HETATM   17  C   UNL     1      42.127 -13.986   0.196  1.00  0.00     0.034 C 
HETATM   18  C   UNL     1      42.003 -14.852   1.441  1.00  0.00     0.235 C 
BRANCH  16  19
HETATM   19  C   UNL     1      41.017 -15.607  -1.408  1.00  0.00     0.032 C 
BRANCH  19  20
HETATM   20  C   UNL     1      40.848 -15.433  -2.915  1.00  0.00     0.164 C 
BRANCH  20  21
HETATM   21  O   UNL     1      42.132 -15.254  -3.491  1.00  0.00    -0.401 OA
HETATM   22  H   UNL     1      42.324 -14.298  -3.514  1.00  0.00     0.209 HD
ENDBRANCH  20  21
ENDBRANCH  19  20
ENDBRANCH  16  19
ENDBRANCH  12  13
ENDBRANCH   7  12
TORSDOF 5
ENDMDL
MODEL 7
REMARK VINA RESULT:      -6.2      2.457      3.521
REMARK  5 active torsions:
REMARK  status: ('A' for Active; 'I' for Inactive)
REMARK    1  A    between atoms: C_7  and  C_8 
REMARK    2  A    between atoms: C_8  and  N_9 
REMARK    3  A    between atoms: C_12  and  C_13 
REMARK    4  A    between atoms: C_13  and  C_14 
REMARK    5  A    between atoms: C_14  and  O_15 
ROOT
HETATM    1  C   UNL     1      44.696 -20.314   3.662  1.00  0.00     0.020 A 
HETATM    2  C   UNL     1      43.972 -19.868   2.579  1.00  0.00     0.117 A 
HETATM    3  N   UNL     1      43.022 -18.906   2.654  1.00  0.00    -0.260 NA
HETATM    4  C   UNL     1      42.745 -18.375   3.866  1.00  0.00     0.076 A 
HETATM    5  C   UNL     1      43.439 -18.748   5.041  1.00  0.00     0.011 A 
HETATM    6  C   UNL     1      44.430 -19.743   4.900  1.00  0.00     0.016 A 
HETATM    7  C   UNL     1      41.745 -17.400   3.942  1.00  0.00    -0.003 A 
HETATM    8  C   UNL     1      41.422 -16.790   5.164  1.00  0.00     0.012 A 
HETATM    9  C   UNL     1      42.106 -17.142   6.319  1.00  0.00     0.020 A 
HETATM   10  C   UNL     1      43.105 -18.114   6.265  1.00  0.00     0.023 A 
HETATM   11 BR   UNL     1      43.983 -18.524   7.903  1.00  0.00    -0.050 Br
ENDROOT
BRANCH   7  12
HETATM   12  C   UNL     1      40.970 -17.027   2.701  1.00  0.00     0.275 C 
BRANCH  12  13
HETATM   13  N   UNL     1      41.789 -16.315   1.655  1.00  0.00    -0.067 N 
HETATM   14  H   UNL     1      42.735 -16.722   1.798  1.00  0.00     0.280 HD
HETATM   15  C   UNL     1      41.913 -14.822   1.830  1.00  0.00     0.240 C 
HETATM   16  C   UNL     1      41.133 -14.225   0.661  1.00  0.00     0.015 C 
HETATM   17  C   UNL     1      41.434 -15.232  -0.448  1.00  0.00     0.034 C 
HETATM   18  C   UNL     1      41.357 -16.587   0.239  1.00  0.00     0.235 C 
BRANCH  16  19
HETATM   19  C   UNL     1      39.623 -14.099   0.920  1.00  0.00     0.032 C 
BRANCH  19  20
HETATM   20  C   UNL     1      38.857 -13.441  -0.224  1.00  0.00     0.164 C 
BRANCH  20  21
HETATM   21  O   UNL     1      37.970 -14.400  -0.778  1.00  0.00    -0.401 OA
HETATM   22  H   UNL     1      38.254 -14.583  -1.692  1.00  0.00     0.209 HD
ENDBRANCH  20  21
ENDBRANCH  19  20
ENDBRANCH  16  19
ENDBRANCH  12  13
ENDBRANCH   7  12
TORSDOF 5
ENDMDL
MODEL 8
REMARK VINA RESULT:      -6.2      2.115      3.175
REMARK  5 active torsions:
REMARK  status: ('A' for Active; 'I' for Inactive)
REMARK    1  A    between atoms: C_7  and  C_8 
REMARK    2  A    between atoms: C_8  and  N_9 
REMARK    3  A    between atoms: C_12  and  C_13 
REMARK    4  A    between atoms: C_13  and  C_14 
REMARK    5  A    between atoms: C_14  and  O_15 
ROOT
HETATM    1  C   UNL     1      44.298 -20.174   2.965  1.00  0.00     0.020 A 
HETATM    2  C   UNL     1      43.922 -19.368   1.915  1.00  0.00     0.117 A 
HETATM    3  N   UNL     1      43.582 -18.064   2.053  1.00  0.00    -0.260 NA
HETATM    4  C   UNL     1      43.581 -17.532   3.296  1.00  0.00     0.076 A 
HETATM    5  C   UNL     1      43.966 -18.267   4.442  1.00  0.00     0.011 A 
HETATM    6  C   UNL     1      44.326 -19.615   4.236  1.00  0.00     0.016 A 
HETATM    7  C   UNL     1      43.204 -16.193   3.436  1.00  0.00    -0.003 A 
HETATM    8  C   UNL     1      43.204 -15.570   4.693  1.00  0.00     0.012 A 
HETATM    9  C   UNL     1      43.591 -16.280   5.821  1.00  0.00     0.020 A 
HETATM   10  C   UNL     1      43.968 -17.617   5.703  1.00  0.00     0.023 A 
HETATM   11 BR   UNL     1      44.483 -18.501   7.309  1.00  0.00    -0.050 Br
ENDROOT
BRANCH   7  12
HETATM   12  C   UNL     1      42.750 -15.414   2.225  1.00  0.00     0.275 C 
BRANCH  12  13
HETATM   13  N   UNL     1      41.399 -15.824   1.700  1.00  0.00    -0.067 N 
HETATM   14  H   UNL     1      41.498 -16.855   1.608  1.00  0.00     0.280 HD
HETATM   15  C   UNL     1      41.038 -15.287   0.337  1.00  0.00     0.240 C 
HETATM   16  C   UNL     1      39.896 -14.307   0.592  1.00  0.00     0.015 C 
HETATM   17  C   UNL     1      39.153 -15.000   1.734  1.00  0.00     0.034 C 
HETATM   18  C   UNL     1      40.256 -15.532   2.636  1.00  0.00     0.235 C 
BRANCH  16  19
HETATM   19  C   UNL     1      40.362 -12.897   0.991  1.00  0.00     0.032 C 
BRANCH  19  20
HETATM   20  C   UNL     1      41.625 -12.439   0.268  1.00  0.00     0.164 C 
BRANCH  20  21
HETATM   21  O   UNL     1      42.535 -11.936   1.233  1.00  0.00    -0.401 OA
HETATM   22  H   UNL     1      43.373 -12.427   1.144  1.00  0.00     0.209 HD
ENDBRANCH  20  21
ENDBRANCH  19  20
ENDBRANCH  16  19
ENDBRANCH  12  13
ENDBRANCH   7  12
TORSDOF 5
ENDMDL
MODEL 9
REMARK VINA RESULT:      -6.1      2.595      3.951
REMARK  5 active torsions:
REMARK  status: ('A' for Active; 'I' for Inactive)
REMARK    1  A    between atoms: C_7  and  C_8 
REMARK    2  A    between atoms: C_8  and  N_9 
REMARK    3  A    between atoms: C_12  and  C_13 
REMARK    4  A    between atoms: C_13  and  C_14 
REMARK    5  A    between atoms: C_14  and  O_15 
ROOT
HETATM    1  C   UNL     1      43.477 -19.049   1.451  1.00  0.00     0.020 A 
HETATM    2  C   UNL     1      43.187 -17.709   1.583  1.00  0.00     0.117 A 
HETATM    3  N   UNL     1      43.268 -17.034   2.755  1.00  0.00    -0.260 NA
HETATM    4  C   UNL     1      43.625 -17.721   3.864  1.00  0.00     0.076 A 
HETATM    5  C   UNL     1      43.960 -19.095   3.838  1.00  0.00     0.011 A 
HETATM    6  C   UNL     1      43.873 -19.743   2.587  1.00  0.00     0.016 A 
HETATM    7  C   UNL     1      43.682 -17.025   5.076  1.00  0.00    -0.003 A 
HETATM    8  C   UNL     1      44.068 -17.669   6.261  1.00  0.00     0.012 A 
HETATM    9  C   UNL     1      44.410 -19.015   6.242  1.00  0.00     0.020 A 
HETATM   10  C   UNL     1      44.356 -19.727   5.045  1.00  0.00     0.023 A 
HETATM   11 BR   UNL     1      44.845 -21.565   5.125  1.00  0.00    -0.050 Br
ENDROOT
BRANCH   7  12
HETATM   12  C   UNL     1      43.285 -15.569   5.120  1.00  0.00     0.275 C 
BRANCH  12  13
HETATM   13  N   UNL     1      41.872 -15.303   4.668  1.00  0.00    -0.067 N 
HETATM   14  H   UNL     1      41.699 -16.084   4.004  1.00  0.00     0.280 HD
HETATM   15  C   UNL     1      41.663 -14.017   3.908  1.00  0.00     0.240 C 
HETATM   16  C   UNL     1      40.817 -13.148   4.835  1.00  0.00     0.015 C 
HETATM   17  C   UNL     1      39.920 -14.194   5.494  1.00  0.00     0.034 C 
HETATM   18  C   UNL     1      40.846 -15.369   5.768  1.00  0.00     0.235 C 
BRANCH  16  19
HETATM   19  C   UNL     1      41.635 -12.364   5.874  1.00  0.00     0.032 C 
BRANCH  19  20
HETATM   20  C   UNL     1      40.792 -11.451   6.759  1.00  0.00     0.164 C 
BRANCH  20  21
HETATM   21  O   UNL     1      41.477 -11.259   7.986  1.00  0.00    -0.401 OA
HETATM   22  H   UNL     1      40.822 -11.006   8.662  1.00  0.00     0.209 HD
ENDBRANCH  20  21
ENDBRANCH  19  20
ENDBRANCH  16  19
ENDBRANCH  12  13
ENDBRANCH   7  12
TORSDOF 5
ENDMDL
MODEL 10
REMARK VINA RESULT:      -6.0      2.141      3.077
REMARK  5 active torsions:
REMARK  status: ('A' for Active; 'I' for Inactive)
REMARK    1  A    between atoms: C_7  and  C_8 
REMARK    2  A    between atoms: C_8  and  N_9 
REMARK    3  A    between atoms: C_12  and  C_13 
REMARK    4  A    between atoms: C_13  and  C_14 
REMARK    5  A    between atoms: C_14  and  O_15 
ROOT
HETATM    1  C   UNL     1      41.496 -17.378   5.722  1.00  0.00     0.020 A 
HETATM    2  C   UNL     1      41.014 -16.268   5.065  1.00  0.00     0.117 A 
HETATM    3  N   UNL     1      41.338 -15.949   3.790  1.00  0.00    -0.260 NA
HETATM    4  C   UNL     1      42.210 -16.747   3.133  1.00  0.00     0.076 A 
HETATM    5  C   UNL     1      42.754 -17.920   3.707  1.00  0.00     0.011 A 
HETATM    6  C   UNL     1      42.368 -18.212   5.033  1.00  0.00     0.016 A 
HETATM    7  C   UNL     1      42.562 -16.398   1.826  1.00  0.00    -0.003 A 
HETATM    8  C   UNL     1      43.442 -17.194   1.077  1.00  0.00     0.012 A 
HETATM    9  C   UNL     1      43.971 -18.353   1.629  1.00  0.00     0.020 A 
HETATM   10  C   UNL     1      43.636 -18.717   2.932  1.00  0.00     0.023 A 
HETATM   11 BR   UNL     1      44.412 -20.323   3.594  1.00  0.00    -0.050 Br
ENDROOT
BRANCH   7  12
HETATM   12  C   UNL     1      42.020 -15.125   1.221  1.00  0.00     0.275 C 
BRANCH  12  13
HETATM   13  N   UNL     1      40.743 -15.309   0.441  1.00  0.00    -0.067 N 
HETATM   14  H   UNL     1      40.607 -16.339   0.475  1.00  0.00     0.280 HD
HETATM   15  C   UNL     1      40.805 -14.914  -1.013  1.00  0.00     0.240 C 
HETATM   16  C   UNL     1      39.907 -13.685  -1.124  1.00  0.00     0.015 C 
HETATM   17  C   UNL     1      38.804 -14.027  -0.123  1.00  0.00     0.034 C 
HETATM   18  C   UNL     1      39.541 -14.643   1.056  1.00  0.00     0.235 C 
BRANCH  16  19
HETATM   19  C   UNL     1      40.609 -12.365  -0.768  1.00  0.00     0.032 C 
BRANCH  19  20
HETATM   20  C   UNL     1      42.060 -12.295  -1.234  1.00  0.00     0.164 C 
BRANCH  20  21
HETATM   21  O   UNL     1      42.846 -11.775  -0.174  1.00  0.00    -0.401 OA
HETATM   22  H   UNL     1      42.802 -12.402   0.572  1.00  0.00     0.209 HD
ENDBRANCH  20  21
ENDBRANCH  19  20
ENDBRANCH  16  19
ENDBRANCH  12  13
ENDBRANCH   7  12
TORSDOF 5
ENDMDL
