MODEL 1
REMARK VINA RESULT:      -9.2      0.000      0.000
REMARK  3 active torsions:
REMARK  status: ('A' for Active; 'I' for Inactive)
REMARK    1  A    between atoms: C_4  and  C_5 
REMARK    2  A    between atoms: C_11  and  C_12 
REMARK    3  A    between atoms: C_21  and  N_22 
ROOT
HETATM    1  C   UNL     1      44.274 -19.056   5.224  1.00  0.00     0.098 A 
HETATM    2  N   UNL     1      44.755 -19.552   6.382  1.00  0.00    -0.172 NA
HETATM    3  N   UNL     1      44.742 -18.512   7.235  1.00  0.00    -0.256 N 
HETATM    4  H   UNL     1      45.077 -18.650   8.182  1.00  0.00     0.191 HD
HETATM    5  C   UNL     1      44.269 -17.377   6.669  1.00  0.00     0.175 A 
HETATM    6  C   UNL     1      43.921 -17.686   5.381  1.00  0.00     0.036 A 
HETATM    7  C   UNL     1      43.267 -16.645   4.512  1.00  0.00     0.077 C 
HETATM    8  C   UNL     1      43.505 -15.262   5.156  1.00  0.00     0.076 C 
HETATM    9  C   UNL     1      43.466 -14.120   4.304  1.00  0.00     0.100 C 
HETATM   10  N   UNL     1      43.504 -13.187   3.615  1.00  0.00    -0.192 NA
HETATM   11  C   UNL     1      43.900 -15.105   6.453  1.00  0.00     0.140 C 
HETATM   12  O   UNL     1      44.178 -16.205   7.282  1.00  0.00    -0.279 OA
ENDROOT
BRANCH   7  13
HETATM   13  C   UNL     1      41.774 -17.050   4.240  1.00  0.00     0.003 C 
HETATM   14  C   UNL     1      40.781 -16.632   5.345  1.00  0.00     0.032 C 
HETATM   15  C   UNL     1      40.166 -15.283   5.142  1.00  0.00    -0.030 C 
HETATM   16  C   UNL     1      40.114 -14.675   3.950  1.00  0.00    -0.031 C 
HETATM   17  C   UNL     1      40.645 -15.276   2.687  1.00  0.00     0.027 C 
HETATM   18  C   UNL     1      41.242 -16.677   2.841  1.00  0.00     0.009 C 
ENDBRANCH   7  13
BRANCH  11  19
HETATM   19  N   UNL     1      44.131 -13.903   7.083  1.00  0.00    -0.282 NA
HETATM   20  H   UNL     1      43.951 -13.886   8.085  1.00  0.00     0.126 HD
HETATM   21  H   UNL     1      43.709 -13.123   6.588  1.00  0.00     0.126 HD
ENDBRANCH  11  19
BRANCH   1  22
HETATM   22  C   UNL     1      44.147 -19.912   4.045  1.00  0.00    -0.005 A 
HETATM   23  C   UNL     1      44.596 -21.240   4.093  1.00  0.00     0.014 A 
HETATM   24  C   UNL     1      44.477 -22.071   2.978  1.00  0.00     0.001 A 
HETATM   25  C   UNL     1      43.912 -21.582   1.802  1.00  0.00     0.000 A 
HETATM   26  C   UNL     1      43.473 -20.260   1.738  1.00  0.00     0.001 A 
HETATM   27  C   UNL     1      43.593 -19.428   2.854  1.00  0.00     0.014 A 
ENDBRANCH   1  22
TORSDOF 3
ENDMDL
MODEL 2
REMARK VINA RESULT:      -9.2      1.585      5.112
REMARK  3 active torsions:
REMARK  status: ('A' for Active; 'I' for Inactive)
REMARK    1  A    between atoms: C_4  and  C_5 
REMARK    2  A    between atoms: C_11  and  C_12 
REMARK    3  A    between atoms: C_21  and  N_22 
ROOT
HETATM    1  C   UNL     1      42.541 -15.913   4.852  1.00  0.00     0.098 A 
HETATM    2  N   UNL     1      42.573 -14.712   5.465  1.00  0.00    -0.172 NA
HETATM    3  N   UNL     1      43.118 -14.953   6.671  1.00  0.00    -0.256 N 
HETATM    4  H   UNL     1      43.233 -14.184   7.320  1.00  0.00     0.191 HD
HETATM    5  C   UNL     1      43.438 -16.257   6.848  1.00  0.00     0.175 A 
HETATM    6  C   UNL     1      43.117 -16.910   5.688  1.00  0.00     0.036 A 
HETATM    7  C   UNL     1      43.445 -18.372   5.537  1.00  0.00     0.077 C 
HETATM    8  C   UNL     1      43.724 -18.950   6.941  1.00  0.00     0.076 C 
HETATM    9  C   UNL     1      43.533 -20.350   7.129  1.00  0.00     0.100 C 
HETATM   10  N   UNL     1      43.320 -21.475   7.317  1.00  0.00    -0.192 NA
HETATM   11  C   UNL     1      43.987 -18.168   8.028  1.00  0.00     0.140 C 
HETATM   12  O   UNL     1      43.962 -16.765   7.955  1.00  0.00    -0.279 OA
ENDROOT
BRANCH   7  13
HETATM   13  C   UNL     1      44.580 -18.547   4.464  1.00  0.00     0.003 C 
HETATM   14  C   UNL     1      45.363 -19.872   4.564  1.00  0.00     0.032 C 
HETATM   15  C   UNL     1      44.794 -20.987   3.745  1.00  0.00    -0.030 C 
HETATM   16  C   UNL     1      43.977 -20.787   2.704  1.00  0.00    -0.031 C 
HETATM   17  C   UNL     1      43.553 -19.433   2.228  1.00  0.00     0.027 C 
HETATM   18  C   UNL     1      44.151 -18.259   3.010  1.00  0.00     0.009 C 
ENDBRANCH   7  13
BRANCH  11  19
HETATM   19  N   UNL     1      44.238 -18.622   9.304  1.00  0.00    -0.282 NA
HETATM   20  H   UNL     1      44.162 -19.627   9.439  1.00  0.00     0.126 HD
HETATM   21  H   UNL     1      43.739 -18.085  10.006  1.00  0.00     0.126 HD
ENDBRANCH  11  19
BRANCH   1  22
HETATM   22  C   UNL     1      41.998 -16.043   3.501  1.00  0.00    -0.005 A 
HETATM   23  C   UNL     1      42.532 -15.277   2.455  1.00  0.00     0.014 A 
HETATM   24  C   UNL     1      42.027 -15.393   1.158  1.00  0.00     0.001 A 
HETATM   25  C   UNL     1      40.980 -16.274   0.896  1.00  0.00     0.000 A 
HETATM   26  C   UNL     1      40.433 -17.033   1.929  1.00  0.00     0.001 A 
HETATM   27  C   UNL     1      40.937 -16.915   3.227  1.00  0.00     0.014 A 
ENDBRANCH   1  22
TORSDOF 3
ENDMDL
MODEL 3
REMARK VINA RESULT:      -8.7      2.417      3.992
REMARK  3 active torsions:
REMARK  status: ('A' for Active; 'I' for Inactive)
REMARK    1  A    between atoms: C_4  and  C_5 
REMARK    2  A    between atoms: C_11  and  C_12 
REMARK    3  A    between atoms: C_21  and  N_22 
ROOT
HETATM    1  C   UNL     1      43.707 -18.511   2.227  1.00  0.00     0.098 A 
HETATM    2  N   UNL     1      43.967 -18.044   0.988  1.00  0.00    -0.172 NA
HETATM    3  N   UNL     1      43.546 -16.767   1.005  1.00  0.00    -0.256 N 
HETATM    4  H   UNL     1      43.633 -16.211   0.162  1.00  0.00     0.191 HD
HETATM    5  C   UNL     1      43.034 -16.401   2.204  1.00  0.00     0.175 A 
HETATM    6  C   UNL     1      43.148 -17.482   3.036  1.00  0.00     0.036 A 
HETATM    7  C   UNL     1      42.748 -17.358   4.483  1.00  0.00     0.077 C 
HETATM    8  C   UNL     1      41.875 -16.094   4.634  1.00  0.00     0.076 C 
HETATM    9  C   UNL     1      40.965 -16.047   5.730  1.00  0.00     0.100 C 
HETATM   10  N   UNL     1      40.173 -16.020   6.578  1.00  0.00    -0.192 NA
HETATM   11  C   UNL     1      41.824 -15.109   3.692  1.00  0.00     0.140 C 
HETATM   12  O   UNL     1      42.526 -15.207   2.478  1.00  0.00    -0.279 OA
ENDROOT
BRANCH   7  13
HETATM   13  C   UNL     1      44.028 -17.445   5.390  1.00  0.00     0.003 C 
HETATM   14  C   UNL     1      44.403 -16.129   6.103  1.00  0.00     0.032 C 
HETATM   15  C   UNL     1      43.788 -15.966   7.457  1.00  0.00    -0.030 C 
HETATM   16  C   UNL     1      43.328 -16.994   8.180  1.00  0.00    -0.031 C 
HETATM   17  C   UNL     1      43.388 -18.420   7.730  1.00  0.00     0.027 C 
HETATM   18  C   UNL     1      44.053 -18.637   6.368  1.00  0.00     0.009 C 
ENDBRANCH   7  13
BRANCH  11  19
HETATM   19  N   UNL     1      41.064 -13.963   3.766  1.00  0.00    -0.282 NA
HETATM   20  H   UNL     1      40.288 -13.988   4.423  1.00  0.00     0.126 HD
HETATM   21  H   UNL     1      40.800 -13.619   2.848  1.00  0.00     0.126 HD
ENDBRANCH  11  19
BRANCH   1  22
HETATM   22  C   UNL     1      44.029 -19.891   2.583  1.00  0.00    -0.005 A 
HETATM   23  C   UNL     1      43.626 -20.943   1.747  1.00  0.00     0.014 A 
HETATM   24  C   UNL     1      43.931 -22.266   2.071  1.00  0.00     0.001 A 
HETATM   25  C   UNL     1      44.639 -22.552   3.237  1.00  0.00     0.000 A 
HETATM   26  C   UNL     1      45.035 -21.517   4.082  1.00  0.00     0.001 A 
HETATM   27  C   UNL     1      44.729 -20.192   3.759  1.00  0.00     0.014 A 
ENDBRANCH   1  22
TORSDOF 3
ENDMDL
MODEL 4
REMARK VINA RESULT:      -8.5      2.138      2.951
REMARK  3 active torsions:
REMARK  status: ('A' for Active; 'I' for Inactive)
REMARK    1  A    between atoms: C_4  and  C_5 
REMARK    2  A    between atoms: C_11  and  C_12 
REMARK    3  A    between atoms: C_21  and  N_22 
ROOT
HETATM    1  C   UNL     1      42.540 -17.455   4.697  1.00  0.00     0.098 A 
HETATM    2  N   UNL     1      42.266 -17.594   6.011  1.00  0.00    -0.172 NA
HETATM    3  N   UNL     1      41.698 -16.428   6.370  1.00  0.00    -0.256 N 
HETATM    4  H   UNL     1      41.415 -16.297   7.334  1.00  0.00     0.191 HD
HETATM    5  C   UNL     1      41.597 -15.556   5.339  1.00  0.00     0.175 A 
HETATM    6  C   UNL     1      42.095 -16.187   4.230  1.00  0.00     0.036 A 
HETATM    7  C   UNL     1      42.032 -15.504   2.889  1.00  0.00     0.077 C 
HETATM    8  C   UNL     1      41.772 -14.001   3.127  1.00  0.00     0.076 C 
HETATM    9  C   UNL     1      42.189 -13.090   2.112  1.00  0.00     0.100 C 
HETATM   10  N   UNL     1      42.581 -12.330   1.328  1.00  0.00    -0.192 NA
HETATM   11  C   UNL     1      41.314 -13.504   4.312  1.00  0.00     0.140 C 
HETATM   12  O   UNL     1      41.102 -14.330   5.429  1.00  0.00    -0.279 OA
ENDROOT
BRANCH   7  13
HETATM   13  C   UNL     1      41.011 -16.259   1.963  1.00  0.00     0.003 C 
HETATM   14  C   UNL     1      39.552 -15.772   2.080  1.00  0.00     0.032 C 
HETATM   15  C   UNL     1      39.190 -14.678   1.127  1.00  0.00    -0.030 C 
HETATM   16  C   UNL     1      39.874 -14.432   0.003  1.00  0.00    -0.031 C 
HETATM   17  C   UNL     1      41.063 -15.225  -0.438  1.00  0.00     0.027 C 
HETATM   18  C   UNL     1      41.441 -16.386   0.487  1.00  0.00     0.009 C 
ENDBRANCH   7  13
BRANCH  11  19
HETATM   19  N   UNL     1      41.068 -12.177   4.587  1.00  0.00    -0.282 NA
HETATM   20  H   UNL     1      40.191 -11.807   4.227  1.00  0.00     0.126 HD
HETATM   21  H   UNL     1      41.867 -11.588   4.378  1.00  0.00     0.126 HD
ENDBRANCH  11  19
BRANCH   1  22
HETATM   22  C   UNL     1      43.178 -18.540   3.954  1.00  0.00    -0.005 A 
HETATM   23  C   UNL     1      44.257 -19.236   4.519  1.00  0.00     0.014 A 
HETATM   24  C   UNL     1      44.873 -20.278   3.824  1.00  0.00     0.001 A 
HETATM   25  C   UNL     1      44.421 -20.632   2.554  1.00  0.00     0.000 A 
HETATM   26  C   UNL     1      43.357 -19.940   1.977  1.00  0.00     0.001 A 
HETATM   27  C   UNL     1      42.741 -18.896   2.672  1.00  0.00     0.014 A 
ENDBRANCH   1  22
TORSDOF 3
ENDMDL
MODEL 5
REMARK VINA RESULT:      -8.2      2.672      3.965
REMARK  3 active torsions:
REMARK  status: ('A' for Active; 'I' for Inactive)
REMARK    1  A    between atoms: C_4  and  C_5 
REMARK    2  A    between atoms: C_11  and  C_12 
REMARK    3  A    between atoms: C_21  and  N_22 
ROOT
HETATM    1  C   UNL     1      41.408 -16.762   4.675  1.00  0.00     0.098 A 
HETATM    2  N   UNL     1      40.934 -17.059   5.903  1.00  0.00    -0.172 NA
HETATM    3  N   UNL     1      40.173 -16.004   6.244  1.00  0.00    -0.256 N 
HETATM    4  H   UNL     1      39.715 -16.001   7.148  1.00  0.00     0.191 HD
HETATM    5  C   UNL     1      40.139 -15.051   5.282  1.00  0.00     0.175 A 
HETATM    6  C   UNL     1      40.892 -15.510   4.235  1.00  0.00     0.036 A 
HETATM    7  C   UNL     1      40.972 -14.710   2.962  1.00  0.00     0.077 C 
HETATM    8  C   UNL     1      40.490 -13.275   3.265  1.00  0.00     0.076 C 
HETATM    9  C   UNL     1      40.955 -12.228   2.417  1.00  0.00     0.100 C 
HETATM   10  N   UNL     1      41.375 -11.356   1.777  1.00  0.00    -0.192 NA
HETATM   11  C   UNL     1      39.779 -12.951   4.384  1.00  0.00     0.140 C 
HETATM   12  O   UNL     1      39.486 -13.901   5.377  1.00  0.00    -0.279 OA
ENDROOT
BRANCH   7  13
HETATM   13  C   UNL     1      40.226 -15.477   1.812  1.00  0.00     0.003 C 
HETATM   14  C   UNL     1      38.713 -15.190   1.721  1.00  0.00     0.032 C 
HETATM   15  C   UNL     1      38.355 -14.049   0.821  1.00  0.00    -0.030 C 
HETATM   16  C   UNL     1      39.166 -13.597  -0.143  1.00  0.00    -0.031 C 
HETATM   17  C   UNL     1      40.510 -14.184  -0.443  1.00  0.00     0.027 C 
HETATM   18  C   UNL     1      40.896 -15.384   0.426  1.00  0.00     0.009 C 
ENDBRANCH   7  13
BRANCH  11  19
HETATM   19  N   UNL     1      39.325 -11.693   4.713  1.00  0.00    -0.282 NA
HETATM   20  H   UNL     1      39.918 -11.160   5.345  1.00  0.00     0.126 HD
HETATM   21  H   UNL     1      38.348 -11.699   4.990  1.00  0.00     0.126 HD
ENDBRANCH  11  19
BRANCH   1  22
HETATM   22  C   UNL     1      42.293 -17.692   3.976  1.00  0.00    -0.005 A 
HETATM   23  C   UNL     1      43.402 -18.235   4.641  1.00  0.00     0.014 A 
HETATM   24  C   UNL     1      44.254 -19.129   3.989  1.00  0.00     0.001 A 
HETATM   25  C   UNL     1      44.009 -19.484   2.664  1.00  0.00     0.000 A 
HETATM   26  C   UNL     1      42.917 -18.941   1.989  1.00  0.00     0.001 A 
HETATM   27  C   UNL     1      42.064 -18.046   2.641  1.00  0.00     0.014 A 
ENDBRANCH   1  22
TORSDOF 3
ENDMDL
MODEL 6
REMARK VINA RESULT:      -8.2      2.921      4.520
REMARK  3 active torsions:
REMARK  status: ('A' for Active; 'I' for Inactive)
REMARK    1  A    between atoms: C_4  and  C_5 
REMARK    2  A    between atoms: C_11  and  C_12 
REMARK    3  A    between atoms: C_21  and  N_22 
ROOT
HETATM    1  C   UNL     1      43.878 -18.768   3.941  1.00  0.00     0.098 A 
HETATM    2  N   UNL     1      44.536 -19.617   3.125  1.00  0.00    -0.172 NA
HETATM    3  N   UNL     1      44.185 -19.244   1.882  1.00  0.00    -0.256 N 
HETATM    4  H   UNL     1      44.558 -19.758   1.092  1.00  0.00     0.191 HD
HETATM    5  C   UNL     1      43.335 -18.190   1.873  1.00  0.00     0.175 A 
HETATM    6  C   UNL     1      43.134 -17.825   3.177  1.00  0.00     0.036 A 
HETATM    7  C   UNL     1      42.302 -16.611   3.495  1.00  0.00     0.077 C 
HETATM    8  C   UNL     1      41.478 -16.251   2.240  1.00  0.00     0.076 C 
HETATM    9  C   UNL     1      40.270 -15.518   2.430  1.00  0.00     0.100 C 
HETATM   10  N   UNL     1      39.252 -14.980   2.572  1.00  0.00    -0.192 NA
HETATM   11  C   UNL     1      41.770 -16.732   0.997  1.00  0.00     0.140 C 
HETATM   12  O   UNL     1      42.815 -17.645   0.781  1.00  0.00    -0.279 OA
ENDROOT
BRANCH   7  13
HETATM   13  C   UNL     1      43.223 -15.483   4.083  1.00  0.00     0.003 C 
HETATM   14  C   UNL     1      43.603 -14.373   3.081  1.00  0.00     0.032 C 
HETATM   15  C   UNL     1      42.659 -13.213   3.060  1.00  0.00    -0.030 C 
HETATM   16  C   UNL     1      41.831 -12.926   4.071  1.00  0.00    -0.031 C 
HETATM   17  C   UNL     1      41.763 -13.715   5.340  1.00  0.00     0.027 C 
HETATM   18  C   UNL     1      42.747 -14.886   5.424  1.00  0.00     0.009 C 
ENDBRANCH   7  13
BRANCH  11  19
HETATM   19  N   UNL     1      41.073 -16.451  -0.158  1.00  0.00    -0.282 NA
HETATM   20  H   UNL     1      40.677 -17.254  -0.641  1.00  0.00     0.126 HD
HETATM   21  H   UNL     1      41.587 -15.828  -0.773  1.00  0.00     0.126 HD
ENDBRANCH  11  19
BRANCH   1  22
HETATM   22  C   UNL     1      44.014 -18.877   5.392  1.00  0.00    -0.005 A 
HETATM   23  C   UNL     1      44.677 -17.872   6.111  1.00  0.00     0.014 A 
HETATM   24  C   UNL     1      44.811 -17.959   7.498  1.00  0.00     0.001 A 
HETATM   25  C   UNL     1      44.287 -19.055   8.180  1.00  0.00     0.000 A 
HETATM   26  C   UNL     1      43.637 -20.067   7.476  1.00  0.00     0.001 A 
HETATM   27  C   UNL     1      43.504 -19.981   6.088  1.00  0.00     0.014 A 
ENDBRANCH   1  22
TORSDOF 3
ENDMDL
MODEL 7
REMARK VINA RESULT:      -8.1      2.111      5.430
REMARK  3 active torsions:
REMARK  status: ('A' for Active; 'I' for Inactive)
REMARK    1  A    between atoms: C_4  and  C_5 
REMARK    2  A    between atoms: C_11  and  C_12 
REMARK    3  A    between atoms: C_21  and  N_22 
ROOT
HETATM    1  C   UNL     1      43.100 -16.198   6.111  1.00  0.00     0.098 A 
HETATM    2  N   UNL     1      43.770 -16.193   7.281  1.00  0.00    -0.172 NA
HETATM    3  N   UNL     1      44.609 -17.242   7.204  1.00  0.00    -0.256 N 
HETATM    4  H   UNL     1      45.215 -17.443   7.991  1.00  0.00     0.191 HD
HETATM    5  C   UNL     1      44.503 -17.910   6.032  1.00  0.00     0.175 A 
HETATM    6  C   UNL     1      43.567 -17.254   5.278  1.00  0.00     0.036 A 
HETATM    7  C   UNL     1      43.291 -17.705   3.868  1.00  0.00     0.077 C 
HETATM    8  C   UNL     1      43.859 -19.130   3.699  1.00  0.00     0.076 C 
HETATM    9  C   UNL     1      43.284 -19.955   2.688  1.00  0.00     0.100 C 
HETATM   10  N   UNL     1      42.784 -20.662   1.916  1.00  0.00    -0.192 NA
HETATM   11  C   UNL     1      44.761 -19.678   4.564  1.00  0.00     0.140 C 
HETATM   12  O   UNL     1      45.195 -18.996   5.713  1.00  0.00    -0.279 OA
ENDROOT
BRANCH   7  13
HETATM   13  C   UNL     1      43.805 -16.616   2.859  1.00  0.00     0.003 C 
HETATM   14  C   UNL     1      44.258 -17.167   1.491  1.00  0.00     0.032 C 
HETATM   15  C   UNL     1      43.176 -17.220   0.460  1.00  0.00    -0.030 C 
HETATM   16  C   UNL     1      42.061 -16.483   0.531  1.00  0.00    -0.031 C 
HETATM   17  C   UNL     1      41.774 -15.515   1.635  1.00  0.00     0.027 C 
HETATM   18  C   UNL     1      42.877 -15.395   2.690  1.00  0.00     0.009 C 
ENDBRANCH   7  13
BRANCH  11  19
HETATM   19  N   UNL     1      45.301 -20.942   4.470  1.00  0.00    -0.282 NA
HETATM   20  H   UNL     1      46.125 -21.028   3.881  1.00  0.00     0.126 HD
HETATM   21  H   UNL     1      44.595 -21.646   4.276  1.00  0.00     0.126 HD
ENDBRANCH  11  19
BRANCH   1  22
HETATM   22  C   UNL     1      42.081 -15.187   5.834  1.00  0.00    -0.005 A 
HETATM   23  C   UNL     1      42.433 -13.830   5.798  1.00  0.00     0.014 A 
HETATM   24  C   UNL     1      41.472 -12.853   5.530  1.00  0.00     0.001 A 
HETATM   25  C   UNL     1      40.148 -13.223   5.300  1.00  0.00     0.000 A 
HETATM   26  C   UNL     1      39.784 -14.568   5.345  1.00  0.00     0.001 A 
HETATM   27  C   UNL     1      40.745 -15.546   5.614  1.00  0.00     0.014 A 
ENDBRANCH   1  22
TORSDOF 3
ENDMDL
MODEL 8
REMARK VINA RESULT:      -7.7      3.027      4.531
REMARK  3 active torsions:
REMARK  status: ('A' for Active; 'I' for Inactive)
REMARK    1  A    between atoms: C_4  and  C_5 
REMARK    2  A    between atoms: C_11  and  C_12 
REMARK    3  A    between atoms: C_21  and  N_22 
ROOT
HETATM    1  C   UNL     1      42.110 -17.934   2.363  1.00  0.00     0.098 A 
HETATM    2  N   UNL     1      41.823 -18.352   1.113  1.00  0.00    -0.172 NA
HETATM    3  N   UNL     1      40.999 -17.412   0.615  1.00  0.00    -0.256 N 
HETATM    4  H   UNL     1      40.639 -17.525  -0.326  1.00  0.00     0.191 HD
HETATM    5  C   UNL     1      40.754 -16.413   1.495  1.00  0.00     0.175 A 
HETATM    6  C   UNL     1      41.476 -16.687   2.625  1.00  0.00     0.036 A 
HETATM    7  C   UNL     1      41.487 -15.701   3.763  1.00  0.00     0.077 C 
HETATM    8  C   UNL     1      40.303 -14.730   3.570  1.00  0.00     0.076 C 
HETATM    9  C   UNL     1      39.788 -14.077   4.728  1.00  0.00     0.100 C 
HETATM   10  N   UNL     1      39.314 -13.589   5.668  1.00  0.00    -0.192 NA
HETATM   11  C   UNL     1      39.639 -14.594   2.386  1.00  0.00     0.140 C 
HETATM   12  O   UNL     1      39.954 -15.380   1.265  1.00  0.00    -0.279 OA
ENDROOT
BRANCH   7  13
HETATM   13  C   UNL     1      42.915 -15.058   3.886  1.00  0.00     0.003 C 
HETATM   14  C   UNL     1      42.952 -13.527   3.691  1.00  0.00     0.032 C 
HETATM   15  C   UNL     1      42.788 -12.742   4.954  1.00  0.00    -0.030 C 
HETATM   16  C   UNL     1      43.024 -13.253   6.169  1.00  0.00    -0.031 C 
HETATM   17  C   UNL     1      43.490 -14.655   6.405  1.00  0.00     0.027 C 
HETATM   18  C   UNL     1      43.716 -15.481   5.135  1.00  0.00     0.009 C 
ENDBRANCH   7  13
BRANCH  11  19
HETATM   19  N   UNL     1      38.576 -13.750   2.151  1.00  0.00    -0.282 NA
HETATM   20  H   UNL     1      38.733 -12.769   2.372  1.00  0.00     0.126 HD
HETATM   21  H   UNL     1      37.709 -14.113   2.534  1.00  0.00     0.126 HD
ENDBRANCH  11  19
BRANCH   1  22
HETATM   22  C   UNL     1      42.990 -18.721   3.225  1.00  0.00    -0.005 A 
HETATM   23  C   UNL     1      43.965 -19.553   2.657  1.00  0.00     0.014 A 
HETATM   24  C   UNL     1      44.817 -20.307   3.467  1.00  0.00     0.001 A 
HETATM   25  C   UNL     1      44.698 -20.240   4.854  1.00  0.00     0.000 A 
HETATM   26  C   UNL     1      43.724 -19.426   5.430  1.00  0.00     0.001 A 
HETATM   27  C   UNL     1      42.871 -18.672   4.620  1.00  0.00     0.014 A 
ENDBRANCH   1  22
TORSDOF 3
ENDMDL
MODEL 9
REMARK VINA RESULT:      -7.7      2.670      4.069
REMARK  3 active torsions:
REMARK  status: ('A' for Active; 'I' for Inactive)
REMARK    1  A    between atoms: C_4  and  C_5 
REMARK    2  A    between atoms: C_11  and  C_12 
REMARK    3  A    between atoms: C_21  and  N_22 
ROOT
HETATM    1  C   UNL     1      42.583 -15.979   4.211  1.00  0.00     0.098 A 
HETATM    2  N   UNL     1      42.361 -15.835   5.534  1.00  0.00    -0.172 NA
HETATM    3  N   UNL     1      41.821 -14.610   5.663  1.00  0.00    -0.256 N 
HETATM    4  H   UNL     1      41.578 -14.276   6.588  1.00  0.00     0.191 HD
HETATM    5  C   UNL     1      41.687 -13.970   4.477  1.00  0.00     0.175 A 
HETATM    6  C   UNL     1      42.133 -14.827   3.506  1.00  0.00     0.036 A 
HETATM    7  C   UNL     1      42.023 -14.437   2.056  1.00  0.00     0.077 C 
HETATM    8  C   UNL     1      41.790 -12.913   1.984  1.00  0.00     0.076 C 
HETATM    9  C   UNL     1      42.175 -12.241   0.787  1.00  0.00     0.100 C 
HETATM   10  N   UNL     1      42.543 -11.669  -0.153  1.00  0.00    -0.192 NA
HETATM   11  C   UNL     1      41.386 -12.172   3.056  1.00  0.00     0.140 C 
HETATM   12  O   UNL     1      41.210 -12.742   4.328  1.00  0.00    -0.279 OA
ENDROOT
BRANCH   7  13
HETATM   13  C   UNL     1      40.958 -15.349   1.347  1.00  0.00     0.003 C 
HETATM   14  C   UNL     1      39.553 -15.315   1.984  1.00  0.00     0.032 C 
HETATM   15  C   UNL     1      38.643 -14.275   1.413  1.00  0.00    -0.030 C 
HETATM   16  C   UNL     1      38.827 -13.724   0.207  1.00  0.00    -0.031 C 
HETATM   17  C   UNL     1      39.949 -14.092  -0.712  1.00  0.00     0.027 C 
HETATM   18  C   UNL     1      40.880 -15.188  -0.186  1.00  0.00     0.009 C 
ENDBRANCH   7  13
BRANCH  11  19
HETATM   19  N   UNL     1      41.165 -10.812   3.056  1.00  0.00    -0.282 NA
HETATM   20  H   UNL     1      40.266 -10.510   3.426  1.00  0.00     0.126 HD
HETATM   21  H   UNL     1      41.393 -10.387   2.163  1.00  0.00     0.126 HD
ENDBRANCH  11  19
BRANCH   1  22
HETATM   22  C   UNL     1      43.179 -17.206   3.688  1.00  0.00    -0.005 A 
HETATM   23  C   UNL     1      43.539 -17.288   2.335  1.00  0.00     0.014 A 
HETATM   24  C   UNL     1      44.114 -18.452   1.821  1.00  0.00     0.001 A 
HETATM   25  C   UNL     1      44.330 -19.548   2.654  1.00  0.00     0.000 A 
HETATM   26  C   UNL     1      43.965 -19.483   3.997  1.00  0.00     0.001 A 
HETATM   27  C   UNL     1      43.389 -18.319   4.512  1.00  0.00     0.014 A 
ENDBRANCH   1  22
TORSDOF 3
ENDMDL
MODEL 10
REMARK VINA RESULT:      -7.6      2.420      6.198
REMARK  3 active torsions:
REMARK  status: ('A' for Active; 'I' for Inactive)
REMARK    1  A    between atoms: C_4  and  C_5 
REMARK    2  A    between atoms: C_11  and  C_12 
REMARK    3  A    between atoms: C_21  and  N_22 
ROOT
HETATM    1  C   UNL     1      40.909 -13.061   2.684  1.00  0.00     0.098 A 
HETATM    2  N   UNL     1      41.183 -11.791   3.045  1.00  0.00    -0.172 NA
HETATM    3  N   UNL     1      42.120 -11.899   4.004  1.00  0.00    -0.256 N 
HETATM    4  H   UNL     1      42.476 -11.056   4.439  1.00  0.00     0.191 HD
HETATM    5  C   UNL     1      42.456 -13.185   4.264  1.00  0.00     0.175 A 
HETATM    6  C   UNL     1      41.727 -13.970   3.413  1.00  0.00     0.036 A 
HETATM    7  C   UNL     1      41.950 -15.459   3.393  1.00  0.00     0.077 C 
HETATM    8  C   UNL     1      42.703 -15.851   4.682  1.00  0.00     0.076 C 
HETATM    9  C   UNL     1      42.565 -17.191   5.148  1.00  0.00     0.100 C 
HETATM   10  N   UNL     1      42.410 -18.258   5.577  1.00  0.00    -0.192 NA
HETATM   11  C   UNL     1      43.354 -14.944   5.466  1.00  0.00     0.140 C 
HETATM   12  O   UNL     1      43.333 -13.568   5.182  1.00  0.00    -0.279 OA
ENDROOT
BRANCH   7  13
HETATM   13  C   UNL     1      42.618 -15.871   2.032  1.00  0.00     0.003 C 
HETATM   14  C   UNL     1      43.955 -16.629   2.173  1.00  0.00     0.032 C 
HETATM   15  C   UNL     1      43.816 -18.116   2.242  1.00  0.00    -0.030 C 
HETATM   16  C   UNL     1      42.737 -18.771   1.795  1.00  0.00    -0.031 C 
HETATM   17  C   UNL     1      41.558 -18.099   1.164  1.00  0.00     0.027 C 
HETATM   18  C   UNL     1      41.679 -16.578   1.032  1.00  0.00     0.009 C 
ENDBRANCH   7  13
BRANCH  11  19
HETATM   19  N   UNL     1      44.039 -15.228   6.627  1.00  0.00    -0.282 NA
HETATM   20  H   UNL     1      43.548 -15.816   7.297  1.00  0.00     0.126 HD
HETATM   21  H   UNL     1      44.445 -14.397   7.045  1.00  0.00     0.126 HD
ENDBRANCH  11  19
BRANCH   1  22
HETATM   22  C   UNL     1      39.913 -13.341   1.651  1.00  0.00    -0.005 A 
HETATM   23  C   UNL     1      40.137 -12.921   0.332  1.00  0.00     0.014 A 
HETATM   24  C   UNL     1      39.199 -13.186  -0.668  1.00  0.00     0.001 A 
HETATM   25  C   UNL     1      38.024 -13.868  -0.357  1.00  0.00     0.000 A 
HETATM   26  C   UNL     1      37.785 -14.280   0.953  1.00  0.00     0.001 A 
HETATM   27  C   UNL     1      38.723 -14.015   1.954  1.00  0.00     0.014 A 
ENDBRANCH   1  22
TORSDOF 3
ENDMDL
