MODEL 1
REMARK VINA RESULT:      -8.3      0.000      0.000
REMARK  5 active torsions:
REMARK  status: ('A' for Active; 'I' for Inactive)
REMARK    1  A    between atoms: C_4  and  N_5 
REMARK    2  A    between atoms: C_6  and  C_8 
REMARK    3  A    between atoms: C_6  and  O_7 
REMARK       I    between atoms: C_8  and  N_9 
REMARK    4  A    between atoms: N_9  and  C_10 
REMARK    5  A    between atoms: C_10  and  C_11 
ROOT
HETATM    1  N   UNL     1      41.247 -15.270   4.252  1.00  0.00    -0.254 N 
HETATM    2  C   UNL     1      41.274 -16.009   2.977  1.00  0.00     0.256 C 
HETATM    3  C   UNL     1      40.735 -15.194   1.816  1.00  0.00     0.035 A 
HETATM    4  C   UNL     1      39.823 -14.182   2.104  1.00  0.00     0.048 A 
HETATM    5  N   UNL     1      39.519 -13.909   3.430  1.00  0.00    -0.308 N 
HETATM    6  C   UNL     1      40.192 -14.406   4.511  1.00  0.00     0.330 C 
HETATM    7  O   UNL     1      39.864 -13.998   5.626  1.00  0.00    -0.246 OA
HETATM    8  C   UNL     1      41.022 -15.469   0.467  1.00  0.00     0.034 A 
HETATM    9  C   UNL     1      40.427 -14.715  -0.548  1.00  0.00     0.011 A 
HETATM   10 BR   UNL     1      40.848 -15.080  -2.356  1.00  0.00    -0.051 Br
HETATM   11  C   UNL     1      39.520 -13.704  -0.242  1.00  0.00     0.021 A 
HETATM   12  C   UNL     1      39.208 -13.442   1.090  1.00  0.00     0.031 A 
HETATM   13  H   UNL     1      38.825 -13.209   3.661  1.00  0.00     0.170 HD
ENDROOT
BRANCH   2  14
HETATM   14  C   UNL     1      42.693 -16.624   2.616  1.00  0.00     0.279 C 
HETATM   15  N   UNL     1      42.687 -18.004   2.508  1.00  0.00    -0.352 N 
HETATM   16  H   UNL     1      41.782 -18.442   2.365  1.00  0.00     0.162 HD
HETATM   17  O   UNL     1      43.722 -15.960   2.491  1.00  0.00    -0.268 OA
BRANCH  15  18
HETATM   18  C   UNL     1      43.872 -18.752   2.178  1.00  0.00     0.168 C 
BRANCH  18  19
HETATM   19  C   UNL     1      44.200 -19.619   3.350  1.00  0.00     0.000 A 
HETATM   20  S   UNL     1      44.621 -21.264   3.125  1.00  0.00    -0.105 SA
HETATM   21  C   UNL     1      44.811 -21.511   4.807  1.00  0.00     0.050 A 
HETATM   22  C   UNL     1      44.558 -20.368   5.530  1.00  0.00     0.008 A 
HETATM   23  C   UNL     1      44.202 -19.275   4.688  1.00  0.00     0.017 A 
ENDBRANCH  18  19
ENDBRANCH  15  18
ENDBRANCH   2  14
BRANCH   2  24
HETATM   24  O   UNL     1      40.350 -17.105   3.128  1.00  0.00    -0.359 OA
HETATM   25  H   UNL     1      40.890 -17.812   3.517  1.00  0.00     0.213 HD
ENDBRANCH   2  24
BRANCH   1  26
HETATM   26  C   UNL     1      42.011 -15.769   5.354  1.00  0.00     0.042 A 
HETATM   27  C   UNL     1      41.576 -16.873   6.097  1.00  0.00     0.030 A 
HETATM   28  C   UNL     1      42.337 -17.351   7.167  1.00  0.00     0.002 A 
HETATM   29  C   UNL     1      43.528 -16.718   7.517  1.00  0.00     0.000 A 
HETATM   30  C   UNL     1      43.952 -15.598   6.805  1.00  0.00     0.002 A 
HETATM   31  C   UNL     1      43.193 -15.122   5.735  1.00  0.00     0.030 A 
ENDBRANCH   1  26
TORSDOF 5
ENDMDL
MODEL 2
REMARK VINA RESULT:      -8.2      2.918      6.264
REMARK  5 active torsions:
REMARK  status: ('A' for Active; 'I' for Inactive)
REMARK    1  A    between atoms: C_4  and  N_5 
REMARK    2  A    between atoms: C_6  and  C_8 
REMARK    3  A    between atoms: C_6  and  O_7 
REMARK       I    between atoms: C_8  and  N_9 
REMARK    4  A    between atoms: N_9  and  C_10 
REMARK    5  A    between atoms: C_10  and  C_11 
ROOT
HETATM    1  N   UNL     1      42.684 -16.026   4.433  1.00  0.00    -0.254 N 
HETATM    2  C   UNL     1      43.052 -16.769   3.215  1.00  0.00     0.256 C 
HETATM    3  C   UNL     1      43.578 -18.161   3.514  1.00  0.00     0.035 A 
HETATM    4  C   UNL     1      44.163 -18.377   4.760  1.00  0.00     0.048 A 
HETATM    5  N   UNL     1      44.159 -17.349   5.692  1.00  0.00    -0.308 N 
HETATM    6  C   UNL     1      43.445 -16.189   5.582  1.00  0.00     0.330 C 
HETATM    7  O   UNL     1      43.469 -15.410   6.536  1.00  0.00    -0.246 OA
HETATM    8  C   UNL     1      43.603 -19.207   2.576  1.00  0.00     0.034 A 
HETATM    9  C   UNL     1      44.172 -20.439   2.908  1.00  0.00     0.011 A 
HETATM   10 BR   UNL     1      44.169 -21.844   1.642  1.00  0.00    -0.051 Br
HETATM   11  C   UNL     1      44.748 -20.639   4.159  1.00  0.00     0.021 A 
HETATM   12  C   UNL     1      44.753 -19.601   5.087  1.00  0.00     0.031 A 
HETATM   13  H   UNL     1      44.618 -17.469   6.586  1.00  0.00     0.170 HD
ENDROOT
BRANCH   2  14
HETATM   14  C   UNL     1      41.902 -16.831   2.121  1.00  0.00     0.279 C 
HETATM   15  N   UNL     1      42.220 -16.170   0.947  1.00  0.00    -0.352 N 
HETATM   16  H   UNL     1      43.206 -15.992   0.781  1.00  0.00     0.162 HD
HETATM   17  O   UNL     1      40.808 -17.364   2.300  1.00  0.00    -0.268 OA
BRANCH  15  18
HETATM   18  C   UNL     1      41.314 -16.118  -0.172  1.00  0.00     0.168 C 
BRANCH  18  19
HETATM   19  C   UNL     1      40.657 -14.776  -0.159  1.00  0.00     0.000 A 
HETATM   20  S   UNL     1      41.026 -13.615  -1.363  1.00  0.00    -0.105 SA
HETATM   21  C   UNL     1      39.960 -12.468  -0.674  1.00  0.00     0.050 A 
HETATM   22  C   UNL     1      39.336 -12.954   0.453  1.00  0.00     0.008 A 
HETATM   23  C   UNL     1      39.741 -14.287   0.752  1.00  0.00     0.017 A 
ENDBRANCH  18  19
ENDBRANCH  15  18
ENDBRANCH   2  14
BRANCH   2  24
HETATM   24  O   UNL     1      44.167 -16.063   2.636  1.00  0.00    -0.359 OA
HETATM   25  H   UNL     1      44.689 -15.783   3.405  1.00  0.00     0.213 HD
ENDBRANCH   2  24
BRANCH   1  26
HETATM   26  C   UNL     1      41.878 -14.850   4.306  1.00  0.00     0.042 A 
HETATM   27  C   UNL     1      42.400 -13.668   3.766  1.00  0.00     0.030 A 
HETATM   28  C   UNL     1      41.599 -12.531   3.643  1.00  0.00     0.002 A 
HETATM   29  C   UNL     1      40.275 -12.557   4.077  1.00  0.00     0.000 A 
HETATM   30  C   UNL     1      39.756 -13.717   4.647  1.00  0.00     0.002 A 
HETATM   31  C   UNL     1      40.556 -14.855   4.767  1.00  0.00     0.030 A 
ENDBRANCH   1  26
TORSDOF 5
ENDMDL
MODEL 3
REMARK VINA RESULT:      -8.1      4.321      6.313
REMARK  5 active torsions:
REMARK  status: ('A' for Active; 'I' for Inactive)
REMARK    1  A    between atoms: C_4  and  N_5 
REMARK    2  A    between atoms: C_6  and  C_8 
REMARK    3  A    between atoms: C_6  and  O_7 
REMARK       I    between atoms: C_8  and  N_9 
REMARK    4  A    between atoms: N_9  and  C_10 
REMARK    5  A    between atoms: C_10  and  C_11 
ROOT
HETATM    1  N   UNL     1      41.971 -15.616   6.211  1.00  0.00    -0.254 N 
HETATM    2  C   UNL     1      42.441 -14.370   5.579  1.00  0.00     0.256 C 
HETATM    3  C   UNL     1      41.422 -13.249   5.663  1.00  0.00     0.035 A 
HETATM    4  C   UNL     1      40.079 -13.602   5.772  1.00  0.00     0.048 A 
HETATM    5  N   UNL     1      39.744 -14.944   5.886  1.00  0.00    -0.308 N 
HETATM    6  C   UNL     1      40.629 -15.960   6.112  1.00  0.00     0.330 C 
HETATM    7  O   UNL     1      40.171 -17.090   6.284  1.00  0.00    -0.246 OA
HETATM    8  C   UNL     1      41.744 -11.886   5.533  1.00  0.00     0.034 A 
HETATM    9  C   UNL     1      40.737 -10.918   5.549  1.00  0.00     0.011 A 
HETATM   10 BR   UNL     1      41.193  -9.089   5.404  1.00  0.00    -0.051 Br
HETATM   11  C   UNL     1      39.400 -11.289   5.663  1.00  0.00     0.021 A 
HETATM   12  C   UNL     1      39.068 -12.638   5.764  1.00  0.00     0.031 A 
HETATM   13  H   UNL     1      38.773 -15.226   5.920  1.00  0.00     0.170 HD
ENDROOT
BRANCH   2  14
HETATM   14  C   UNL     1      43.858 -13.876   6.099  1.00  0.00     0.279 C 
HETATM   15  N   UNL     1      43.871 -13.549   7.444  1.00  0.00    -0.352 N 
HETATM   16  H   UNL     1      43.116 -13.928   8.009  1.00  0.00     0.162 HD
HETATM   17  O   UNL     1      44.848 -13.740   5.381  1.00  0.00    -0.268 OA
BRANCH  15  18
HETATM   18  C   UNL     1      45.062 -13.089   8.110  1.00  0.00     0.168 C 
BRANCH  18  19
HETATM   19  C   UNL     1      44.644 -12.120   9.167  1.00  0.00     0.000 A 
HETATM   20  S   UNL     1      43.236 -11.165   8.965  1.00  0.00    -0.105 SA
HETATM   21  C   UNL     1      43.464 -10.395  10.474  1.00  0.00     0.050 A 
HETATM   22  C   UNL     1      44.590 -10.850  11.122  1.00  0.00     0.008 A 
HETATM   23  C   UNL     1      45.274 -11.845  10.366  1.00  0.00     0.017 A 
ENDBRANCH  18  19
ENDBRANCH  15  18
ENDBRANCH   2  14
BRANCH   2  24
HETATM   24  O   UNL     1      42.569 -14.657   4.173  1.00  0.00    -0.359 OA
HETATM   25  H   UNL     1      43.171 -13.967   3.849  1.00  0.00     0.213 HD
ENDBRANCH   2  24
BRANCH   1  26
HETATM   26  C   UNL     1      42.923 -16.643   6.503  1.00  0.00     0.042 A 
HETATM   27  C   UNL     1      43.631 -17.286   5.481  1.00  0.00     0.030 A 
HETATM   28  C   UNL     1      44.561 -18.284   5.783  1.00  0.00     0.002 A 
HETATM   29  C   UNL     1      44.778 -18.662   7.106  1.00  0.00     0.000 A 
HETATM   30  C   UNL     1      44.054 -18.051   8.127  1.00  0.00     0.002 A 
HETATM   31  C   UNL     1      43.126 -17.053   7.826  1.00  0.00     0.030 A 
ENDBRANCH   1  26
TORSDOF 5
ENDMDL
MODEL 4
REMARK VINA RESULT:      -8.1      3.076      4.569
REMARK  5 active torsions:
REMARK  status: ('A' for Active; 'I' for Inactive)
REMARK    1  A    between atoms: C_4  and  N_5 
REMARK    2  A    between atoms: C_6  and  C_8 
REMARK    3  A    between atoms: C_6  and  O_7 
REMARK       I    between atoms: C_8  and  N_9 
REMARK    4  A    between atoms: N_9  and  C_10 
REMARK    5  A    between atoms: C_10  and  C_11 
ROOT
HETATM    1  N   UNL     1      41.532 -15.116   3.023  1.00  0.00    -0.254 N 
HETATM    2  C   UNL     1      42.209 -13.866   3.415  1.00  0.00     0.256 C 
HETATM    3  C   UNL     1      41.246 -12.822   3.950  1.00  0.00     0.035 A 
HETATM    4  C   UNL     1      39.921 -12.884   3.524  1.00  0.00     0.048 A 
HETATM    5  N   UNL     1      39.526 -13.937   2.710  1.00  0.00    -0.308 N 
HETATM    6  C   UNL     1      40.272 -15.051   2.445  1.00  0.00     0.330 C 
HETATM    7  O   UNL     1      39.749 -15.944   1.778  1.00  0.00    -0.246 OA
HETATM    8  C   UNL     1      41.634 -11.742   4.763  1.00  0.00     0.034 A 
HETATM    9  C   UNL     1      40.698 -10.781   5.154  1.00  0.00     0.011 A 
HETATM   10 BR   UNL     1      41.233  -9.353   6.272  1.00  0.00    -0.051 Br
HETATM   11  C   UNL     1      39.378 -10.862   4.722  1.00  0.00     0.021 A 
HETATM   12  C   UNL     1      38.988 -11.913   3.895  1.00  0.00     0.031 A 
HETATM   13  H   UNL     1      38.580 -13.977   2.352  1.00  0.00     0.170 HD
ENDROOT
BRANCH   2  14
HETATM   14  C   UNL     1      43.421 -14.074   4.420  1.00  0.00     0.279 C 
HETATM   15  N   UNL     1      43.051 -14.657   5.620  1.00  0.00    -0.352 N 
HETATM   16  H   UNL     1      42.165 -15.153   5.627  1.00  0.00     0.162 HD
HETATM   17  O   UNL     1      44.575 -13.712   4.194  1.00  0.00    -0.268 OA
BRANCH  15  18
HETATM   18  C   UNL     1      44.005 -14.938   6.661  1.00  0.00     0.168 C 
BRANCH  18  19
HETATM   19  C   UNL     1      44.095 -16.423   6.803  1.00  0.00     0.000 A 
HETATM   20  S   UNL     1      42.887 -17.291   7.652  1.00  0.00    -0.105 SA
HETATM   21  C   UNL     1      43.680 -18.782   7.383  1.00  0.00     0.050 A 
HETATM   22  C   UNL     1      44.844 -18.627   6.665  1.00  0.00     0.008 A 
HETATM   23  C   UNL     1      45.086 -17.264   6.331  1.00  0.00     0.017 A 
ENDBRANCH  18  19
ENDBRANCH  15  18
ENDBRANCH   2  14
BRANCH   2  24
HETATM   24  O   UNL     1      42.740 -13.299   2.202  1.00  0.00    -0.359 OA
HETATM   25  H   UNL     1      42.018 -13.404   1.561  1.00  0.00     0.213 HD
ENDBRANCH   2  24
BRANCH   1  26
HETATM   26  C   UNL     1      42.322 -16.291   2.815  1.00  0.00     0.042 A 
HETATM   27  C   UNL     1      43.200 -16.391   1.729  1.00  0.00     0.030 A 
HETATM   28  C   UNL     1      43.968 -17.543   1.544  1.00  0.00     0.002 A 
HETATM   29  C   UNL     1      43.851 -18.613   2.430  1.00  0.00     0.000 A 
HETATM   30  C   UNL     1      42.956 -18.536   3.494  1.00  0.00     0.002 A 
HETATM   31  C   UNL     1      42.190 -17.383   3.680  1.00  0.00     0.030 A 
ENDBRANCH   1  26
TORSDOF 5
ENDMDL
MODEL 5
REMARK VINA RESULT:      -7.6      3.304      5.015
REMARK  5 active torsions:
REMARK  status: ('A' for Active; 'I' for Inactive)
REMARK    1  A    between atoms: C_4  and  N_5 
REMARK    2  A    between atoms: C_6  and  C_8 
REMARK    3  A    between atoms: C_6  and  O_7 
REMARK       I    between atoms: C_8  and  N_9 
REMARK    4  A    between atoms: N_9  and  C_10 
REMARK    5  A    between atoms: C_10  and  C_11 
ROOT
HETATM    1  N   UNL     1      42.014 -13.974   2.999  1.00  0.00    -0.254 N 
HETATM    2  C   UNL     1      42.037 -13.825   4.466  1.00  0.00     0.256 C 
HETATM    3  C   UNL     1      41.312 -12.578   4.939  1.00  0.00     0.035 A 
HETATM    4  C   UNL     1      41.220 -11.508   4.053  1.00  0.00     0.048 A 
HETATM    5  N   UNL     1      41.710 -11.658   2.764  1.00  0.00    -0.308 N 
HETATM    6  C   UNL     1      42.099 -12.841   2.202  1.00  0.00     0.330 C 
HETATM    7  O   UNL     1      42.425 -12.831   1.014  1.00  0.00    -0.246 OA
HETATM    8  C   UNL     1      40.824 -12.406   6.246  1.00  0.00     0.034 A 
HETATM    9  C   UNL     1      40.232 -11.198   6.625  1.00  0.00     0.011 A 
HETATM   10 BR   UNL     1      39.554 -10.996   8.379  1.00  0.00    -0.051 Br
HETATM   11  C   UNL     1      40.144 -10.140   5.725  1.00  0.00     0.021 A 
HETATM   12  C   UNL     1      40.649 -10.291   4.435  1.00  0.00     0.031 A 
HETATM   13  H   UNL     1      41.695 -10.879   2.118  1.00  0.00     0.170 HD
ENDROOT
BRANCH   2  14
HETATM   14  C   UNL     1      41.524 -15.103   5.255  1.00  0.00     0.279 C 
HETATM   15  N   UNL     1      42.490 -15.682   6.060  1.00  0.00    -0.352 N 
HETATM   16  H   UNL     1      43.285 -15.098   6.302  1.00  0.00     0.162 HD
HETATM   17  O   UNL     1      40.396 -15.581   5.137  1.00  0.00    -0.268 OA
BRANCH  15  18
HETATM   18  C   UNL     1      42.221 -16.845   6.865  1.00  0.00     0.168 C 
BRANCH  18  19
HETATM   19  C   UNL     1      42.964 -17.993   6.264  1.00  0.00     0.000 A 
HETATM   20  S   UNL     1      43.873 -19.055   7.253  1.00  0.00    -0.105 SA
HETATM   21  C   UNL     1      44.371 -19.986   5.907  1.00  0.00     0.050 A 
HETATM   22  C   UNL     1      43.861 -19.499   4.725  1.00  0.00     0.008 A 
HETATM   23  C   UNL     1      43.050 -18.345   4.930  1.00  0.00     0.017 A 
ENDBRANCH  18  19
ENDBRANCH  15  18
ENDBRANCH   2  14
BRANCH   2  24
HETATM   24  O   UNL     1      43.417 -13.616   4.825  1.00  0.00    -0.359 OA
HETATM   25  H   UNL     1      43.374 -12.966   5.546  1.00  0.00     0.213 HD
ENDBRANCH   2  24
BRANCH   1  26
HETATM   26  C   UNL     1      42.358 -15.241   2.430  1.00  0.00     0.042 A 
HETATM   27  C   UNL     1      43.685 -15.686   2.401  1.00  0.00     0.030 A 
HETATM   28  C   UNL     1      44.005 -16.928   1.847  1.00  0.00     0.002 A 
HETATM   29  C   UNL     1      43.004 -17.727   1.298  1.00  0.00     0.000 A 
HETATM   30  C   UNL     1      41.686 -17.279   1.292  1.00  0.00     0.002 A 
HETATM   31  C   UNL     1      41.366 -16.039   1.848  1.00  0.00     0.030 A 
ENDBRANCH   1  26
TORSDOF 5
ENDMDL
MODEL 6
REMARK VINA RESULT:      -7.5      3.361      6.772
REMARK  5 active torsions:
REMARK  status: ('A' for Active; 'I' for Inactive)
REMARK    1  A    between atoms: C_4  and  N_5 
REMARK    2  A    between atoms: C_6  and  C_8 
REMARK    3  A    between atoms: C_6  and  O_7 
REMARK       I    between atoms: C_8  and  N_9 
REMARK    4  A    between atoms: N_9  and  C_10 
REMARK    5  A    between atoms: C_10  and  C_11 
ROOT
HETATM    1  N   UNL     1      41.392 -15.187   1.542  1.00  0.00    -0.254 N 
HETATM    2  C   UNL     1      41.344 -16.003   2.768  1.00  0.00     0.256 C 
HETATM    3  C   UNL     1      42.359 -17.132   2.760  1.00  0.00     0.035 A 
HETATM    4  C   UNL     1      42.779 -17.616   1.524  1.00  0.00     0.048 A 
HETATM    5  N   UNL     1      42.323 -16.995   0.369  1.00  0.00    -0.308 N 
HETATM    6  C   UNL     1      41.653 -15.805   0.327  1.00  0.00     0.330 C 
HETATM    7  O   UNL     1      41.396 -15.333  -0.781  1.00  0.00    -0.246 OA
HETATM    8  C   UNL     1      42.817 -17.780   3.921  1.00  0.00     0.034 A 
HETATM    9  C   UNL     1      43.698 -18.861   3.824  1.00  0.00     0.011 A 
HETATM   10 BR   UNL     1      44.326 -19.701   5.397  1.00  0.00    -0.051 Br
HETATM   11  C   UNL     1      44.110 -19.329   2.580  1.00  0.00     0.021 A 
HETATM   12  C   UNL     1      43.641 -18.711   1.423  1.00  0.00     0.031 A 
HETATM   13  H   UNL     1      42.579 -17.359  -0.540  1.00  0.00     0.170 HD
ENDROOT
BRANCH   2  14
HETATM   14  C   UNL     1      41.455 -15.162   4.110  1.00  0.00     0.279 C 
HETATM   15  N   UNL     1      40.261 -15.066   4.803  1.00  0.00    -0.352 N 
HETATM   16  H   UNL     1      39.550 -15.755   4.576  1.00  0.00     0.162 HD
HETATM   17  O   UNL     1      42.481 -14.598   4.489  1.00  0.00    -0.268 OA
BRANCH  15  18
HETATM   18  C   UNL     1      40.154 -14.352   6.050  1.00  0.00     0.168 C 
BRANCH  18  19
HETATM   19  C   UNL     1      39.988 -12.903   5.729  1.00  0.00     0.000 A 
HETATM   20  S   UNL     1      41.177 -11.765   6.204  1.00  0.00    -0.105 SA
HETATM   21  C   UNL     1      40.295 -10.465   5.527  1.00  0.00     0.050 A 
HETATM   22  C   UNL     1      39.116 -10.884   4.952  1.00  0.00     0.008 A 
HETATM   23  C   UNL     1      38.937 -12.292   5.071  1.00  0.00     0.017 A 
ENDBRANCH  18  19
ENDBRANCH  15  18
ENDBRANCH   2  14
BRANCH   2  24
HETATM   24  O   UNL     1      40.059 -16.654   2.767  1.00  0.00    -0.359 OA
HETATM   25  H   UNL     1      39.713 -16.484   1.876  1.00  0.00     0.213 HD
ENDBRANCH   2  24
BRANCH   1  26
HETATM   26  C   UNL     1      40.741 -13.912   1.536  1.00  0.00     0.042 A 
HETATM   27  C   UNL     1      39.352 -13.808   1.400  1.00  0.00     0.030 A 
HETATM   28  C   UNL     1      38.731 -12.557   1.402  1.00  0.00     0.002 A 
HETATM   29  C   UNL     1      39.495 -11.397   1.520  1.00  0.00     0.000 A 
HETATM   30  C   UNL     1      40.881 -11.489   1.623  1.00  0.00     0.002 A 
HETATM   31  C   UNL     1      41.501 -12.740   1.623  1.00  0.00     0.030 A 
ENDBRANCH   1  26
TORSDOF 5
ENDMDL
MODEL 7
REMARK VINA RESULT:      -7.4      3.120      6.131
REMARK  5 active torsions:
REMARK  status: ('A' for Active; 'I' for Inactive)
REMARK    1  A    between atoms: C_4  and  N_5 
REMARK    2  A    between atoms: C_6  and  C_8 
REMARK    3  A    between atoms: C_6  and  O_7 
REMARK       I    between atoms: C_8  and  N_9 
REMARK    4  A    between atoms: N_9  and  C_10 
REMARK    5  A    between atoms: C_10  and  C_11 
ROOT
HETATM    1  N   UNL     1      40.702 -14.914   1.033  1.00  0.00    -0.254 N 
HETATM    2  C   UNL     1      40.769 -15.746   2.248  1.00  0.00     0.256 C 
HETATM    3  C   UNL     1      41.998 -16.637   2.280  1.00  0.00     0.035 A 
HETATM    4  C   UNL     1      42.567 -16.998   1.061  1.00  0.00     0.048 A 
HETATM    5  N   UNL     1      42.046 -16.463  -0.109  1.00  0.00    -0.308 N 
HETATM    6  C   UNL     1      41.144 -15.439  -0.173  1.00  0.00     0.330 C 
HETATM    7  O   UNL     1      40.845 -15.009  -1.288  1.00  0.00    -0.246 OA
HETATM    8  C   UNL     1      42.527 -17.199   3.455  1.00  0.00     0.034 A 
HETATM    9  C   UNL     1      43.619 -18.069   3.392  1.00  0.00     0.011 A 
HETATM   10 BR   UNL     1      44.336 -18.790   4.986  1.00  0.00    -0.051 Br
HETATM   11  C   UNL     1      44.178 -18.416   2.165  1.00  0.00     0.021 A 
HETATM   12  C   UNL     1      43.644 -17.886   0.992  1.00  0.00     0.031 A 
HETATM   13  H   UNL     1      42.414 -16.747  -1.008  1.00  0.00     0.170 HD
ENDROOT
BRANCH   2  14
HETATM   14  C   UNL     1      40.639 -14.928   3.602  1.00  0.00     0.279 C 
HETATM   15  N   UNL     1      41.696 -14.064   3.831  1.00  0.00    -0.352 N 
HETATM   16  H   UNL     1      42.259 -13.815   3.023  1.00  0.00     0.162 HD
HETATM   17  O   UNL     1      39.721 -15.069   4.409  1.00  0.00    -0.268 OA
BRANCH  15  18
HETATM   18  C   UNL     1      41.762 -13.225   4.999  1.00  0.00     0.168 C 
BRANCH  18  19
HETATM   19  C   UNL     1      42.878 -13.728   5.855  1.00  0.00     0.000 A 
HETATM   20  S   UNL     1      43.550 -12.737   7.080  1.00  0.00    -0.105 SA
HETATM   21  C   UNL     1      44.672 -13.946   7.532  1.00  0.00     0.050 A 
HETATM   22  C   UNL     1      44.544 -15.082   6.767  1.00  0.00     0.008 A 
HETATM   23  C   UNL     1      43.509 -14.956   5.795  1.00  0.00     0.017 A 
ENDBRANCH  18  19
ENDBRANCH  15  18
ENDBRANCH   2  14
BRANCH   2  24
HETATM   24  O   UNL     1      39.651 -16.652   2.177  1.00  0.00    -0.359 OA
HETATM   25  H   UNL     1      39.319 -16.540   1.271  1.00  0.00     0.213 HD
ENDBRANCH   2  24
BRANCH   1  26
HETATM   26  C   UNL     1      39.799 -13.804   1.008  1.00  0.00     0.042 A 
HETATM   27  C   UNL     1      38.414 -13.997   0.937  1.00  0.00     0.030 A 
HETATM   28  C   UNL     1      37.546 -12.903   0.919  1.00  0.00     0.002 A 
HETATM   29  C   UNL     1      38.054 -11.606   0.951  1.00  0.00     0.000 A 
HETATM   30  C   UNL     1      39.431 -11.403   0.988  1.00  0.00     0.002 A 
HETATM   31  C   UNL     1      40.299 -12.496   1.009  1.00  0.00     0.030 A 
ENDBRANCH   1  26
TORSDOF 5
ENDMDL
MODEL 8
REMARK VINA RESULT:      -7.4      3.608      5.959
REMARK  5 active torsions:
REMARK  status: ('A' for Active; 'I' for Inactive)
REMARK    1  A    between atoms: C_4  and  N_5 
REMARK    2  A    between atoms: C_6  and  C_8 
REMARK    3  A    between atoms: C_6  and  O_7 
REMARK       I    between atoms: C_8  and  N_9 
REMARK    4  A    between atoms: N_9  and  C_10 
REMARK    5  A    between atoms: C_10  and  C_11 
ROOT
HETATM    1  N   UNL     1      41.278 -15.340   4.191  1.00  0.00    -0.254 N 
HETATM    2  C   UNL     1      40.782 -14.110   3.547  1.00  0.00     0.256 C 
HETATM    3  C   UNL     1      40.460 -13.014   4.545  1.00  0.00     0.035 A 
HETATM    4  C   UNL     1      40.124 -13.398   5.842  1.00  0.00     0.048 A 
HETATM    5  N   UNL     1      40.184 -14.742   6.181  1.00  0.00    -0.308 N 
HETATM    6  C   UNL     1      40.747 -15.724   5.415  1.00  0.00     0.330 C 
HETATM    7  O   UNL     1      40.808 -16.857   5.892  1.00  0.00    -0.246 OA
HETATM    8  C   UNL     1      40.380 -11.650   4.212  1.00  0.00     0.034 A 
HETATM    9  C   UNL     1      40.006 -10.710   5.175  1.00  0.00     0.011 A 
HETATM   10 BR   UNL     1      39.933  -8.877   4.716  1.00  0.00    -0.051 Br
HETATM   11  C   UNL     1      39.677 -11.111   6.467  1.00  0.00     0.021 A 
HETATM   12  C   UNL     1      39.726 -12.463   6.800  1.00  0.00     0.031 A 
HETATM   13  H   UNL     1      39.900 -15.048   7.103  1.00  0.00     0.170 HD
ENDROOT
BRANCH   2  14
HETATM   14  C   UNL     1      41.727 -13.557   2.396  1.00  0.00     0.279 C 
HETATM   15  N   UNL     1      41.132 -13.551   1.147  1.00  0.00    -0.352 N 
HETATM   16  H   UNL     1      40.117 -13.597   1.129  1.00  0.00     0.162 HD
HETATM   17  O   UNL     1      42.895 -13.211   2.569  1.00  0.00    -0.268 OA
BRANCH  15  18
HETATM   18  C   UNL     1      41.818 -13.078  -0.027  1.00  0.00     0.168 C 
BRANCH  18  19
HETATM   19  C   UNL     1      41.343 -13.891  -1.187  1.00  0.00     0.000 A 
HETATM   20  S   UNL     1      40.915 -13.134  -2.663  1.00  0.00    -0.105 SA
HETATM   21  C   UNL     1      40.507 -14.629  -3.386  1.00  0.00     0.050 A 
HETATM   22  C   UNL     1      40.688 -15.687  -2.523  1.00  0.00     0.008 A 
HETATM   23  C   UNL     1      41.168 -15.260  -1.252  1.00  0.00     0.017 A 
ENDBRANCH  18  19
ENDBRANCH  15  18
ENDBRANCH   2  14
BRANCH   2  24
HETATM   24  O   UNL     1      39.518 -14.454   2.945  1.00  0.00    -0.359 OA
HETATM   25  H   UNL     1      38.897 -13.814   3.330  1.00  0.00     0.213 HD
ENDBRANCH   2  24
BRANCH   1  26
HETATM   26  C   UNL     1      41.926 -16.329   3.385  1.00  0.00     0.042 A 
HETATM   27  C   UNL     1      43.298 -16.578   3.506  1.00  0.00     0.030 A 
HETATM   28  C   UNL     1      43.914 -17.551   2.716  1.00  0.00     0.002 A 
HETATM   29  C   UNL     1      43.169 -18.269   1.782  1.00  0.00     0.000 A 
HETATM   30  C   UNL     1      41.810 -18.005   1.630  1.00  0.00     0.002 A 
HETATM   31  C   UNL     1      41.194 -17.034   2.423  1.00  0.00     0.030 A 
ENDBRANCH   1  26
TORSDOF 5
ENDMDL
MODEL 9
REMARK VINA RESULT:      -7.2      3.380      6.044
REMARK  5 active torsions:
REMARK  status: ('A' for Active; 'I' for Inactive)
REMARK    1  A    between atoms: C_4  and  N_5 
REMARK    2  A    between atoms: C_6  and  C_8 
REMARK    3  A    between atoms: C_6  and  O_7 
REMARK       I    between atoms: C_8  and  N_9 
REMARK    4  A    between atoms: N_9  and  C_10 
REMARK    5  A    between atoms: C_10  and  C_11 
ROOT
HETATM    1  N   UNL     1      42.400 -15.518   4.120  1.00  0.00    -0.254 N 
HETATM    2  C   UNL     1      41.048 -15.008   3.828  1.00  0.00     0.256 C 
HETATM    3  C   UNL     1      40.808 -13.623   4.400  1.00  0.00     0.035 A 
HETATM    4  C   UNL     1      41.553 -13.245   5.514  1.00  0.00     0.048 A 
HETATM    5  N   UNL     1      42.532 -14.106   5.991  1.00  0.00    -0.308 N 
HETATM    6  C   UNL     1      42.986 -15.219   5.342  1.00  0.00     0.330 C 
HETATM    7  O   UNL     1      43.927 -15.833   5.848  1.00  0.00    -0.246 OA
HETATM    8  C   UNL     1      39.810 -12.748   3.938  1.00  0.00     0.034 A 
HETATM    9  C   UNL     1      39.604 -11.517   4.567  1.00  0.00     0.011 A 
HETATM   10 BR   UNL     1      38.277 -10.340   3.912  1.00  0.00    -0.051 Br
HETATM   11  C   UNL     1      40.361 -11.154   5.677  1.00  0.00     0.021 A 
HETATM   12  C   UNL     1      41.334 -12.026   6.160  1.00  0.00     0.031 A 
HETATM   13  H   UNL     1      43.054 -13.872   6.826  1.00  0.00     0.170 HD
ENDROOT
BRANCH   2  14
HETATM   14  C   UNL     1      40.659 -15.051   2.289  1.00  0.00     0.279 C 
HETATM   15  N   UNL     1      41.382 -14.164   1.510  1.00  0.00    -0.352 N 
HETATM   16  H   UNL     1      42.252 -13.819   1.907  1.00  0.00     0.162 HD
HETATM   17  O   UNL     1      39.768 -15.759   1.821  1.00  0.00    -0.268 OA
BRANCH  15  18
HETATM   18  C   UNL     1      41.186 -14.056   0.088  1.00  0.00     0.168 C 
BRANCH  18  19
HETATM   19  C   UNL     1      41.837 -12.789  -0.364  1.00  0.00     0.000 A 
HETATM   20  S   UNL     1      41.829 -11.401   0.640  1.00  0.00    -0.105 SA
HETATM   21  C   UNL     1      42.685 -10.480  -0.519  1.00  0.00     0.050 A 
HETATM   22  C   UNL     1      42.971 -11.209  -1.651  1.00  0.00     0.008 A 
HETATM   23  C   UNL     1      42.478 -12.543  -1.563  1.00  0.00     0.017 A 
ENDBRANCH  18  19
ENDBRANCH  15  18
ENDBRANCH   2  14
BRANCH   2  24
HETATM   24  O   UNL     1      40.133 -15.870   4.533  1.00  0.00    -0.359 OA
HETATM   25  H   UNL     1      39.711 -16.387   3.827  1.00  0.00     0.213 HD
ENDBRANCH   2  24
BRANCH   1  26
HETATM   26  C   UNL     1      42.886 -16.644   3.383  1.00  0.00     0.042 A 
HETATM   27  C   UNL     1      42.557 -17.952   3.759  1.00  0.00     0.030 A 
HETATM   28  C   UNL     1      43.036 -19.041   3.025  1.00  0.00     0.002 A 
HETATM   29  C   UNL     1      43.863 -18.834   1.923  1.00  0.00     0.000 A 
HETATM   30  C   UNL     1      44.222 -17.538   1.562  1.00  0.00     0.002 A 
HETATM   31  C   UNL     1      43.742 -16.450   2.293  1.00  0.00     0.030 A 
ENDBRANCH   1  26
TORSDOF 5
ENDMDL
MODEL 10
REMARK VINA RESULT:      -7.2      2.580      4.092
REMARK  5 active torsions:
REMARK  status: ('A' for Active; 'I' for Inactive)
REMARK    1  A    between atoms: C_4  and  N_5 
REMARK    2  A    between atoms: C_6  and  C_8 
REMARK    3  A    between atoms: C_6  and  O_7 
REMARK       I    between atoms: C_8  and  N_9 
REMARK    4  A    between atoms: N_9  and  C_10 
REMARK    5  A    between atoms: C_10  and  C_11 
ROOT
HETATM    1  N   UNL     1      41.455 -16.214   2.530  1.00  0.00    -0.254 N 
HETATM    2  C   UNL     1      41.587 -14.890   3.165  1.00  0.00     0.256 C 
HETATM    3  C   UNL     1      40.424 -13.969   2.846  1.00  0.00     0.035 A 
HETATM    4  C   UNL     1      39.727 -14.193   1.662  1.00  0.00     0.048 A 
HETATM    5  N   UNL     1      40.066 -15.288   0.880  1.00  0.00    -0.308 N 
HETATM    6  C   UNL     1      40.894 -16.304   1.264  1.00  0.00     0.330 C 
HETATM    7  O   UNL     1      41.025 -17.257   0.495  1.00  0.00    -0.246 OA
HETATM    8  C   UNL     1      40.080 -12.847   3.620  1.00  0.00     0.034 A 
HETATM    9  C   UNL     1      39.039 -12.005   3.219  1.00  0.00     0.011 A 
HETATM   10 BR   UNL     1      38.571 -10.518   4.289  1.00  0.00    -0.051 Br
HETATM   11  C   UNL     1      38.350 -12.247   2.034  1.00  0.00     0.021 A 
HETATM   12  C   UNL     1      38.702 -13.340   1.245  1.00  0.00     0.031 A 
HETATM   13  H   UNL     1      39.603 -15.444  -0.007  1.00  0.00     0.170 HD
ENDROOT
BRANCH   2  14
HETATM   14  C   UNL     1      41.842 -14.946   4.731  1.00  0.00     0.279 C 
HETATM   15  N   UNL     1      43.168 -14.764   5.083  1.00  0.00    -0.352 N 
HETATM   16  H   UNL     1      43.765 -14.327   4.387  1.00  0.00     0.162 HD
HETATM   17  O   UNL     1      40.968 -15.179   5.566  1.00  0.00    -0.268 OA
BRANCH  15  18
HETATM   18  C   UNL     1      43.606 -14.770   6.455  1.00  0.00     0.168 C 
BRANCH  18  19
HETATM   19  C   UNL     1      44.031 -16.163   6.788  1.00  0.00     0.000 A 
HETATM   20  S   UNL     1      43.137 -17.103   7.906  1.00  0.00    -0.105 SA
HETATM   21  C   UNL     1      44.204 -18.430   7.741  1.00  0.00     0.050 A 
HETATM   22  C   UNL     1      45.224 -18.166   6.856  1.00  0.00     0.008 A 
HETATM   23  C   UNL     1      45.127 -16.855   6.307  1.00  0.00     0.017 A 
ENDBRANCH  18  19
ENDBRANCH  15  18
ENDBRANCH   2  14
BRANCH   2  24
HETATM   24  O   UNL     1      42.737 -14.268   2.558  1.00  0.00    -0.359 OA
HETATM   25  H   UNL     1      42.891 -14.795   1.758  1.00  0.00     0.213 HD
ENDBRANCH   2  24
BRANCH   1  26
HETATM   26  C   UNL     1      42.284 -17.286   2.991  1.00  0.00     0.042 A 
HETATM   27  C   UNL     1      41.908 -18.073   4.086  1.00  0.00     0.030 A 
HETATM   28  C   UNL     1      42.725 -19.120   4.519  1.00  0.00     0.002 A 
HETATM   29  C   UNL     1      43.935 -19.376   3.876  1.00  0.00     0.000 A 
HETATM   30  C   UNL     1      44.333 -18.577   2.808  1.00  0.00     0.002 A 
HETATM   31  C   UNL     1      43.515 -17.532   2.373  1.00  0.00     0.030 A 
ENDBRANCH   1  26
TORSDOF 5
ENDMDL
