MODEL 1
REMARK VINA RESULT:      -8.4      0.000      0.000
REMARK  7 active torsions:
REMARK  status: ('A' for Active; 'I' for Inactive)
REMARK    1  A    between atoms: O_2  and  C_3 
REMARK    2  A    between atoms: C_6  and  C_7 
REMARK    3  A    between atoms: C_7  and  C_8 
REMARK    4  A    between atoms: C_7  and  C_14 
REMARK    5  A    between atoms: C_14  and  C_15 
REMARK       I    between atoms: C_15  and  N_16 
REMARK    6  A    between atoms: N_16  and  C_17 
REMARK    7  A    between atoms: C_17  and  C_18 
ROOT
HETATM    1  C   UNL     1      43.944 -18.426   3.908  1.00  0.00     0.060 C 
ENDROOT
BRANCH   1   2
HETATM    2  C   UNL     1      43.069 -17.767   2.829  1.00  0.00    -0.049 A 
HETATM    3  C   UNL     1      43.583 -17.292   1.613  1.00  0.00     0.010 A 
HETATM    4  C   UNL     1      42.753 -16.683   0.664  1.00  0.00     0.037 A 
HETATM    5  C   UNL     1      41.391 -16.519   0.905  1.00  0.00     0.068 A 
HETATM    6  C   UNL     1      40.867 -16.954   2.117  1.00  0.00     0.037 A 
HETATM    7  C   UNL     1      41.698 -17.562   3.069  1.00  0.00     0.010 A 
BRANCH   5   8
HETATM    8  O   UNL     1      40.695 -15.916  -0.106  1.00  0.00    -0.356 OA
HETATM    9  C   UNL     1      41.430 -15.054  -0.965  1.00  0.00     0.210 C 
ENDBRANCH   5   8
ENDBRANCH   1   2
BRANCH   1  10
HETATM   10  C   UNL     1      44.219 -19.917   3.699  1.00  0.00    -0.049 A 
HETATM   11  C   UNL     1      44.040 -20.533   2.449  1.00  0.00     0.008 A 
HETATM   12  C   UNL     1      44.281 -21.898   2.287  1.00  0.00     0.001 A 
HETATM   13  C   UNL     1      44.703 -22.667   3.370  1.00  0.00     0.000 A 
HETATM   14  C   UNL     1      44.884 -22.070   4.616  1.00  0.00     0.001 A 
HETATM   15  C   UNL     1      44.646 -20.705   4.780  1.00  0.00     0.008 A 
ENDBRANCH   1  10
BRANCH   1  16
HETATM   16  C   UNL     1      43.409 -18.154   5.335  1.00  0.00     0.116 C 
BRANCH  16  17
HETATM   17  C   UNL     1      43.937 -16.883   5.971  1.00  0.00     0.218 C 
HETATM   18  N   UNL     1      43.139 -15.781   5.829  1.00  0.00    -0.355 N 
HETATM   19  H   UNL     1      42.373 -15.758   5.167  1.00  0.00     0.162 HD
HETATM   20  O   UNL     1      44.974 -16.871   6.631  1.00  0.00    -0.274 OA
BRANCH  18  21
HETATM   21  C   UNL     1      43.587 -14.473   6.248  1.00  0.00     0.184 C 
BRANCH  21  22
HETATM   22  C   UNL     1      42.745 -13.435   5.576  1.00  0.00     0.080 A 
HETATM   23  N   UNL     1      42.041 -12.522   6.294  1.00  0.00    -0.177 NA
HETATM   24  N   UNL     1      41.412 -11.763   5.360  1.00  0.00    -0.281 N 
HETATM   25  H   UNL     1      40.815 -11.002   5.670  1.00  0.00     0.189 HD
HETATM   26  C   UNL     1      41.706 -12.172   4.112  1.00  0.00     0.036 A 
HETATM   27  C   UNL     1      42.550 -13.234   4.207  1.00  0.00    -0.006 A 
HETATM   28  C   UNL     1      41.356 -11.760   2.748  1.00  0.00     0.059 C 
HETATM   29  C   UNL     1      42.934 -13.747   2.883  1.00  0.00     0.043 C 
HETATM   30  C   UNL     1      41.952 -12.964   1.936  1.00  0.00     0.011 C 
ENDBRANCH  21  22
ENDBRANCH  18  21
ENDBRANCH  16  17
ENDBRANCH   1  16
TORSDOF 7
ENDMDL
MODEL 2
REMARK VINA RESULT:      -8.2      2.040      4.161
REMARK  7 active torsions:
REMARK  status: ('A' for Active; 'I' for Inactive)
REMARK    1  A    between atoms: O_2  and  C_3 
REMARK    2  A    between atoms: C_6  and  C_7 
REMARK    3  A    between atoms: C_7  and  C_8 
REMARK    4  A    between atoms: C_7  and  C_14 
REMARK    5  A    between atoms: C_14  and  C_15 
REMARK       I    between atoms: C_15  and  N_16 
REMARK    6  A    between atoms: N_16  and  C_17 
REMARK    7  A    between atoms: C_17  and  C_18 
ROOT
HETATM    1  C   UNL     1      42.578 -18.326   2.418  1.00  0.00     0.060 C 
ENDROOT
BRANCH   1   2
HETATM    2  C   UNL     1      42.708 -17.253   3.512  1.00  0.00    -0.049 A 
HETATM    3  C   UNL     1      43.494 -16.100   3.363  1.00  0.00     0.010 A 
HETATM    4  C   UNL     1      43.597 -15.157   4.392  1.00  0.00     0.037 A 
HETATM    5  C   UNL     1      42.931 -15.341   5.602  1.00  0.00     0.068 A 
HETATM    6  C   UNL     1      42.172 -16.492   5.782  1.00  0.00     0.037 A 
HETATM    7  C   UNL     1      42.071 -17.439   4.753  1.00  0.00     0.010 A 
BRANCH   5   8
HETATM    8  O   UNL     1      43.111 -14.341   6.517  1.00  0.00    -0.356 OA
HETATM    9  C   UNL     1      44.404 -14.229   7.097  1.00  0.00     0.210 C 
ENDBRANCH   5   8
ENDBRANCH   1   2
BRANCH   1  10
HETATM   10  C   UNL     1      43.373 -19.609   2.670  1.00  0.00    -0.049 A 
HETATM   11  C   UNL     1      43.291 -20.711   1.802  1.00  0.00     0.008 A 
HETATM   12  C   UNL     1      44.012 -21.877   2.061  1.00  0.00     0.001 A 
HETATM   13  C   UNL     1      44.824 -21.960   3.190  1.00  0.00     0.000 A 
HETATM   14  C   UNL     1      44.916 -20.876   4.061  1.00  0.00     0.001 A 
HETATM   15  C   UNL     1      44.197 -19.707   3.802  1.00  0.00     0.008 A 
ENDBRANCH   1  10
BRANCH   1  16
HETATM   16  C   UNL     1      42.874 -17.757   1.009  1.00  0.00     0.116 C 
BRANCH  16  17
HETATM   17  C   UNL     1      41.890 -16.705   0.537  1.00  0.00     0.218 C 
HETATM   18  N   UNL     1      42.442 -15.510   0.162  1.00  0.00    -0.355 N 
HETATM   19  H   UNL     1      43.400 -15.270   0.390  1.00  0.00     0.162 HD
HETATM   20  O   UNL     1      40.688 -16.943   0.430  1.00  0.00    -0.274 OA
BRANCH  18  21
HETATM   21  C   UNL     1      41.615 -14.371  -0.159  1.00  0.00     0.184 C 
BRANCH  21  22
HETATM   22  C   UNL     1      41.556 -13.466   1.030  1.00  0.00     0.080 A 
HETATM   23  N   UNL     1      42.247 -12.298   1.066  1.00  0.00    -0.177 NA
HETATM   24  N   UNL     1      41.953 -11.762   2.279  1.00  0.00    -0.281 N 
HETATM   25  H   UNL     1      42.367 -10.870   2.533  1.00  0.00     0.189 HD
HETATM   26  C   UNL     1      41.112 -12.549   2.975  1.00  0.00     0.036 A 
HETATM   27  C   UNL     1      40.837 -13.644   2.216  1.00  0.00    -0.006 A 
HETATM   28  C   UNL     1      40.453 -12.504   4.285  1.00  0.00     0.059 C 
HETATM   29  C   UNL     1      39.914 -14.564   2.898  1.00  0.00     0.043 C 
HETATM   30  C   UNL     1      39.871 -13.962   4.350  1.00  0.00     0.011 C 
ENDBRANCH  21  22
ENDBRANCH  18  21
ENDBRANCH  16  17
ENDBRANCH   1  16
TORSDOF 7
ENDMDL
MODEL 3
REMARK VINA RESULT:      -7.9      3.231      6.630
REMARK  7 active torsions:
REMARK  status: ('A' for Active; 'I' for Inactive)
REMARK    1  A    between atoms: O_2  and  C_3 
REMARK    2  A    between atoms: C_6  and  C_7 
REMARK    3  A    between atoms: C_7  and  C_8 
REMARK    4  A    between atoms: C_7  and  C_14 
REMARK    5  A    between atoms: C_14  and  C_15 
REMARK       I    between atoms: C_15  and  N_16 
REMARK    6  A    between atoms: N_16  and  C_17 
REMARK    7  A    between atoms: C_17  and  C_18 
ROOT
HETATM    1  C   UNL     1      42.793 -17.266   2.311  1.00  0.00     0.060 C 
ENDROOT
BRANCH   1   2
HETATM    2  C   UNL     1      43.341 -18.663   2.642  1.00  0.00    -0.049 A 
HETATM    3  C   UNL     1      44.072 -18.942   3.808  1.00  0.00     0.010 A 
HETATM    4  C   UNL     1      44.568 -20.226   4.062  1.00  0.00     0.037 A 
HETATM    5  C   UNL     1      44.361 -21.265   3.158  1.00  0.00     0.068 A 
HETATM    6  C   UNL     1      43.668 -21.003   1.981  1.00  0.00     0.037 A 
HETATM    7  C   UNL     1      43.174 -19.717   1.724  1.00  0.00     0.010 A 
BRANCH   5   8
HETATM    8  O   UNL     1      44.892 -22.469   3.532  1.00  0.00    -0.356 OA
HETATM    9  C   UNL     1      45.108 -22.670   4.922  1.00  0.00     0.210 C 
ENDBRANCH   5   8
ENDBRANCH   1   2
BRANCH   1  10
HETATM   10  C   UNL     1      42.433 -16.406   3.524  1.00  0.00    -0.049 A 
HETATM   11  C   UNL     1      43.152 -15.242   3.845  1.00  0.00     0.008 A 
HETATM   12  C   UNL     1      42.815 -14.483   4.966  1.00  0.00     0.001 A 
HETATM   13  C   UNL     1      41.757 -14.875   5.783  1.00  0.00     0.000 A 
HETATM   14  C   UNL     1      41.034 -16.027   5.479  1.00  0.00     0.001 A 
HETATM   15  C   UNL     1      41.367 -16.787   4.357  1.00  0.00     0.008 A 
ENDBRANCH   1  10
BRANCH   1  16
HETATM   16  C   UNL     1      41.619 -17.326   1.304  1.00  0.00     0.116 C 
BRANCH  16  17
HETATM   17  C   UNL     1      41.110 -15.971   0.852  1.00  0.00     0.218 C 
HETATM   18  N   UNL     1      41.764 -15.426  -0.220  1.00  0.00    -0.355 N 
HETATM   19  H   UNL     1      42.653 -15.789  -0.542  1.00  0.00     0.162 HD
HETATM   20  O   UNL     1      40.128 -15.442   1.370  1.00  0.00    -0.274 OA
BRANCH  18  21
HETATM   21  C   UNL     1      41.489 -14.078  -0.657  1.00  0.00     0.184 C 
BRANCH  21  22
HETATM   22  C   UNL     1      40.180 -14.063  -1.382  1.00  0.00     0.080 A 
HETATM   23  N   UNL     1      39.174 -13.230  -1.010  1.00  0.00    -0.177 NA
HETATM   24  N   UNL     1      38.167 -13.496  -1.881  1.00  0.00    -0.281 N 
HETATM   25  H   UNL     1      37.295 -12.983  -1.793  1.00  0.00     0.189 HD
HETATM   26  C   UNL     1      38.520 -14.448  -2.765  1.00  0.00     0.036 A 
HETATM   27  C   UNL     1      39.791 -14.835  -2.481  1.00  0.00    -0.006 A 
HETATM   28  C   UNL     1      37.891 -15.124  -3.907  1.00  0.00     0.059 C 
HETATM   29  C   UNL     1      40.267 -15.875  -3.406  1.00  0.00     0.043 C 
HETATM   30  C   UNL     1      38.945 -16.259  -4.168  1.00  0.00     0.011 C 
ENDBRANCH  21  22
ENDBRANCH  18  21
ENDBRANCH  16  17
ENDBRANCH   1  16
TORSDOF 7
ENDMDL
MODEL 4
REMARK VINA RESULT:      -7.9      1.484      2.186
REMARK  7 active torsions:
REMARK  status: ('A' for Active; 'I' for Inactive)
REMARK    1  A    between atoms: O_2  and  C_3 
REMARK    2  A    between atoms: C_6  and  C_7 
REMARK    3  A    between atoms: C_7  and  C_8 
REMARK    4  A    between atoms: C_7  and  C_14 
REMARK    5  A    between atoms: C_14  and  C_15 
REMARK       I    between atoms: C_15  and  N_16 
REMARK    6  A    between atoms: N_16  and  C_17 
REMARK    7  A    between atoms: C_17  and  C_18 
ROOT
HETATM    1  C   UNL     1      43.891 -18.176   4.027  1.00  0.00     0.060 C 
ENDROOT
BRANCH   1   2
HETATM    2  C   UNL     1      42.865 -17.367   3.217  1.00  0.00    -0.049 A 
HETATM    3  C   UNL     1      41.484 -17.612   3.269  1.00  0.00     0.010 A 
HETATM    4  C   UNL     1      40.586 -16.861   2.502  1.00  0.00     0.037 A 
HETATM    5  C   UNL     1      41.038 -15.855   1.651  1.00  0.00     0.068 A 
HETATM    6  C   UNL     1      42.405 -15.617   1.560  1.00  0.00     0.037 A 
HETATM    7  C   UNL     1      43.305 -16.370   2.326  1.00  0.00     0.010 A 
BRANCH   5   8
HETATM    8  O   UNL     1      40.056 -15.195   0.965  1.00  0.00    -0.356 OA
HETATM    9  C   UNL     1      38.877 -14.867   1.689  1.00  0.00     0.210 C 
ENDBRANCH   5   8
ENDBRANCH   1   2
BRANCH   1  10
HETATM   10  C   UNL     1      44.076 -19.626   3.575  1.00  0.00    -0.049 A 
HETATM   11  C   UNL     1      44.611 -20.604   4.431  1.00  0.00     0.008 A 
HETATM   12  C   UNL     1      44.786 -21.917   3.991  1.00  0.00     0.001 A 
HETATM   13  C   UNL     1      44.430 -22.272   2.692  1.00  0.00     0.000 A 
HETATM   14  C   UNL     1      43.899 -21.314   1.831  1.00  0.00     0.001 A 
HETATM   15  C   UNL     1      43.720 -20.000   2.269  1.00  0.00     0.008 A 
ENDBRANCH   1  10
BRANCH   1  16
HETATM   16  C   UNL     1      43.620 -18.099   5.549  1.00  0.00     0.116 C 
BRANCH  16  17
HETATM   17  C   UNL     1      43.071 -16.767   6.022  1.00  0.00     0.218 C 
HETATM   18  N   UNL     1      43.848 -15.677   5.735  1.00  0.00    -0.355 N 
HETATM   19  H   UNL     1      44.810 -15.772   5.434  1.00  0.00     0.162 HD
HETATM   20  O   UNL     1      41.968 -16.674   6.556  1.00  0.00    -0.274 OA
BRANCH  18  21
HETATM   21  C   UNL     1      43.526 -14.371   6.260  1.00  0.00     0.184 C 
BRANCH  21  22
HETATM   22  C   UNL     1      42.745 -13.615   5.231  1.00  0.00     0.080 A 
HETATM   23  N   UNL     1      43.325 -13.175   4.085  1.00  0.00    -0.177 NA
HETATM   24  N   UNL     1      42.325 -12.546   3.414  1.00  0.00    -0.281 N 
HETATM   25  H   UNL     1      42.530 -12.128   2.511  1.00  0.00     0.189 HD
HETATM   26  C   UNL     1      41.168 -12.590   4.099  1.00  0.00     0.036 A 
HETATM   27  C   UNL     1      41.393 -13.260   5.261  1.00  0.00    -0.006 A 
HETATM   28  C   UNL     1      39.793 -12.118   3.896  1.00  0.00     0.059 C 
HETATM   29  C   UNL     1      40.174 -13.364   6.078  1.00  0.00     0.043 C 
HETATM   30  C   UNL     1      39.195 -12.393   5.322  1.00  0.00     0.011 C 
ENDBRANCH  21  22
ENDBRANCH  18  21
ENDBRANCH  16  17
ENDBRANCH   1  16
TORSDOF 7
ENDMDL
MODEL 5
REMARK VINA RESULT:      -7.9      3.967      7.209
REMARK  7 active torsions:
REMARK  status: ('A' for Active; 'I' for Inactive)
REMARK    1  A    between atoms: O_2  and  C_3 
REMARK    2  A    between atoms: C_6  and  C_7 
REMARK    3  A    between atoms: C_7  and  C_8 
REMARK    4  A    between atoms: C_7  and  C_14 
REMARK    5  A    between atoms: C_14  and  C_15 
REMARK       I    between atoms: C_15  and  N_16 
REMARK    6  A    between atoms: N_16  and  C_17 
REMARK    7  A    between atoms: C_17  and  C_18 
ROOT
HETATM    1  C   UNL     1      42.643 -17.095   2.187  1.00  0.00     0.060 C 
ENDROOT
BRANCH   1   2
HETATM    2  C   UNL     1      43.239 -18.458   2.574  1.00  0.00    -0.049 A 
HETATM    3  C   UNL     1      43.953 -18.670   3.764  1.00  0.00     0.010 A 
HETATM    4  C   UNL     1      44.493 -19.925   4.070  1.00  0.00     0.037 A 
HETATM    5  C   UNL     1      44.348 -21.000   3.196  1.00  0.00     0.068 A 
HETATM    6  C   UNL     1      43.672 -20.803   1.996  1.00  0.00     0.037 A 
HETATM    7  C   UNL     1      43.133 -19.546   1.688  1.00  0.00     0.010 A 
BRANCH   5   8
HETATM    8  O   UNL     1      44.917 -22.168   3.619  1.00  0.00    -0.356 OA
HETATM    9  C   UNL     1      45.073 -22.335   5.022  1.00  0.00     0.210 C 
ENDBRANCH   5   8
ENDBRANCH   1   2
BRANCH   1  10
HETATM   10  C   UNL     1      42.418 -16.130   3.353  1.00  0.00    -0.049 A 
HETATM   11  C   UNL     1      41.362 -16.306   4.264  1.00  0.00     0.008 A 
HETATM   12  C   UNL     1      41.166 -15.403   5.310  1.00  0.00     0.001 A 
HETATM   13  C   UNL     1      42.020 -14.313   5.462  1.00  0.00     0.000 A 
HETATM   14  C   UNL     1      43.072 -14.125   4.567  1.00  0.00     0.001 A 
HETATM   15  C   UNL     1      43.272 -15.028   3.521  1.00  0.00     0.008 A 
ENDBRANCH   1  10
BRANCH   1  16
HETATM   16  C   UNL     1      41.362 -17.242   1.332  1.00  0.00     0.116 C 
BRANCH  16  17
HETATM   17  C   UNL     1      41.041 -16.038   0.469  1.00  0.00     0.218 C 
HETATM   18  N   UNL     1      41.302 -16.187  -0.867  1.00  0.00    -0.355 N 
HETATM   19  H   UNL     1      41.869 -16.950  -1.217  1.00  0.00     0.162 HD
HETATM   20  O   UNL     1      40.511 -15.030   0.933  1.00  0.00    -0.274 OA
BRANCH  18  21
HETATM   21  C   UNL     1      41.192 -15.074  -1.779  1.00  0.00     0.184 C 
BRANCH  21  22
HETATM   22  C   UNL     1      40.083 -15.349  -2.746  1.00  0.00     0.080 A 
HETATM   23  N   UNL     1      40.106 -16.437  -3.558  1.00  0.00    -0.177 NA
HETATM   24  N   UNL     1      38.958 -16.351  -4.278  1.00  0.00    -0.281 N 
HETATM   25  H   UNL     1      38.757 -17.071  -4.965  1.00  0.00     0.189 HD
HETATM   26  C   UNL     1      38.241 -15.264  -3.936  1.00  0.00     0.036 A 
HETATM   27  C   UNL     1      38.924 -14.600  -2.966  1.00  0.00    -0.006 A 
HETATM   28  C   UNL     1      36.963 -14.664  -4.337  1.00  0.00     0.059 C 
HETATM   29  C   UNL     1      38.209 -13.393  -2.522  1.00  0.00     0.043 C 
HETATM   30  C   UNL     1      37.064 -13.283  -3.596  1.00  0.00     0.011 C 
ENDBRANCH  21  22
ENDBRANCH  18  21
ENDBRANCH  16  17
ENDBRANCH   1  16
TORSDOF 7
ENDMDL
MODEL 6
REMARK VINA RESULT:      -7.8      3.398      5.626
REMARK  7 active torsions:
REMARK  status: ('A' for Active; 'I' for Inactive)
REMARK    1  A    between atoms: O_2  and  C_3 
REMARK    2  A    between atoms: C_6  and  C_7 
REMARK    3  A    between atoms: C_7  and  C_8 
REMARK    4  A    between atoms: C_7  and  C_14 
REMARK    5  A    between atoms: C_14  and  C_15 
REMARK       I    between atoms: C_15  and  N_16 
REMARK    6  A    between atoms: N_16  and  C_17 
REMARK    7  A    between atoms: C_17  and  C_18 
ROOT
HETATM    1  C   UNL     1      42.451 -17.589   2.443  1.00  0.00     0.060 C 
ENDROOT
BRANCH   1   2
HETATM    2  C   UNL     1      42.693 -16.528   3.529  1.00  0.00    -0.049 A 
HETATM    3  C   UNL     1      42.101 -16.585   4.800  1.00  0.00     0.010 A 
HETATM    4  C   UNL     1      42.336 -15.588   5.754  1.00  0.00     0.037 A 
HETATM    5  C   UNL     1      43.157 -14.500   5.465  1.00  0.00     0.068 A 
HETATM    6  C   UNL     1      43.727 -14.407   4.200  1.00  0.00     0.037 A 
HETATM    7  C   UNL     1      43.490 -15.404   3.244  1.00  0.00     0.010 A 
BRANCH   5   8
HETATM    8  O   UNL     1      43.307 -13.604   6.487  1.00  0.00    -0.356 OA
HETATM    9  C   UNL     1      44.534 -13.646   7.202  1.00  0.00     0.210 C 
ENDBRANCH   5   8
ENDBRANCH   1   2
BRANCH   1  10
HETATM   10  C   UNL     1      43.206 -18.905   2.642  1.00  0.00    -0.049 A 
HETATM   11  C   UNL     1      44.128 -19.077   3.688  1.00  0.00     0.008 A 
HETATM   12  C   UNL     1      44.817 -20.281   3.839  1.00  0.00     0.001 A 
HETATM   13  C   UNL     1      44.596 -21.329   2.949  1.00  0.00     0.000 A 
HETATM   14  C   UNL     1      43.685 -21.174   1.906  1.00  0.00     0.001 A 
HETATM   15  C   UNL     1      42.993 -19.972   1.753  1.00  0.00     0.008 A 
ENDBRANCH   1  10
BRANCH   1  16
HETATM   16  C   UNL     1      42.680 -17.026   1.019  1.00  0.00     0.116 C 
BRANCH  16  17
HETATM   17  C   UNL     1      41.501 -16.262   0.449  1.00  0.00     0.218 C 
HETATM   18  N   UNL     1      41.608 -15.917  -0.871  1.00  0.00    -0.355 N 
HETATM   19  H   UNL     1      42.491 -15.968  -1.365  1.00  0.00     0.162 HD
HETATM   20  O   UNL     1      40.490 -16.040   1.113  1.00  0.00    -0.274 OA
BRANCH  18  21
HETATM   21  C   UNL     1      40.635 -15.056  -1.501  1.00  0.00     0.184 C 
BRANCH  21  22
HETATM   22  C   UNL     1      41.353 -13.951  -2.209  1.00  0.00     0.080 A 
HETATM   23  N   UNL     1      41.618 -14.018  -3.539  1.00  0.00    -0.177 NA
HETATM   24  N   UNL     1      42.268 -12.859  -3.818  1.00  0.00    -0.281 N 
HETATM   25  H   UNL     1      42.572 -12.686  -4.772  1.00  0.00     0.189 HD
HETATM   26  C   UNL     1      42.403 -12.093  -2.720  1.00  0.00     0.036 A 
HETATM   27  C   UNL     1      41.835 -12.753  -1.676  1.00  0.00    -0.006 A 
HETATM   28  C   UNL     1      42.980 -10.781  -2.403  1.00  0.00     0.059 C 
HETATM   29  C   UNL     1      41.929 -11.983  -0.426  1.00  0.00     0.043 C 
HETATM   30  C   UNL     1      42.908 -10.821  -0.835  1.00  0.00     0.011 C 
ENDBRANCH  21  22
ENDBRANCH  18  21
ENDBRANCH  16  17
ENDBRANCH   1  16
TORSDOF 7
ENDMDL
MODEL 7
REMARK VINA RESULT:      -7.8      3.609      6.393
REMARK  7 active torsions:
REMARK  status: ('A' for Active; 'I' for Inactive)
REMARK    1  A    between atoms: O_2  and  C_3 
REMARK    2  A    between atoms: C_6  and  C_7 
REMARK    3  A    between atoms: C_7  and  C_8 
REMARK    4  A    between atoms: C_7  and  C_14 
REMARK    5  A    between atoms: C_14  and  C_15 
REMARK       I    between atoms: C_15  and  N_16 
REMARK    6  A    between atoms: N_16  and  C_17 
REMARK    7  A    between atoms: C_17  and  C_18 
ROOT
HETATM    1  C   UNL     1      42.856 -17.514   2.370  1.00  0.00     0.060 C 
ENDROOT
BRANCH   1   2
HETATM    2  C   UNL     1      43.361 -18.949   2.595  1.00  0.00    -0.049 A 
HETATM    3  C   UNL     1      44.205 -19.304   3.659  1.00  0.00     0.010 A 
HETATM    4  C   UNL     1      44.655 -20.620   3.817  1.00  0.00     0.037 A 
HETATM    5  C   UNL     1      44.290 -21.616   2.914  1.00  0.00     0.068 A 
HETATM    6  C   UNL     1      43.481 -21.278   1.834  1.00  0.00     0.037 A 
HETATM    7  C   UNL     1      43.032 -19.960   1.673  1.00  0.00     0.010 A 
BRANCH   5   8
HETATM    8  O   UNL     1      44.793 -22.857   3.189  1.00  0.00    -0.356 OA
HETATM    9  C   UNL     1      45.053 -23.156   4.554  1.00  0.00     0.210 C 
ENDBRANCH   5   8
ENDBRANCH   1   2
BRANCH   1  10
HETATM   10  C   UNL     1      42.424 -16.772   3.636  1.00  0.00    -0.049 A 
HETATM   11  C   UNL     1      43.080 -15.607   4.070  1.00  0.00     0.008 A 
HETATM   12  C   UNL     1      42.679 -14.957   5.238  1.00  0.00     0.001 A 
HETATM   13  C   UNL     1      41.619 -15.460   5.989  1.00  0.00     0.000 A 
HETATM   14  C   UNL     1      40.958 -16.614   5.572  1.00  0.00     0.001 A 
HETATM   15  C   UNL     1      41.356 -17.266   4.403  1.00  0.00     0.008 A 
ENDBRANCH   1  10
BRANCH   1  16
HETATM   16  C   UNL     1      41.754 -17.450   1.285  1.00  0.00     0.116 C 
BRANCH  16  17
HETATM   17  C   UNL     1      41.213 -16.059   1.021  1.00  0.00     0.218 C 
HETATM   18  N   UNL     1      41.995 -15.266   0.226  1.00  0.00    -0.355 N 
HETATM   19  H   UNL     1      42.957 -15.505   0.016  1.00  0.00     0.162 HD
HETATM   20  O   UNL     1      40.111 -15.703   1.434  1.00  0.00    -0.274 OA
BRANCH  18  21
HETATM   21  C   UNL     1      41.682 -13.872   0.020  1.00  0.00     0.184 C 
BRANCH  21  22
HETATM   22  C   UNL     1      41.756 -13.571  -1.444  1.00  0.00     0.080 A 
HETATM   23  N   UNL     1      41.533 -14.532  -2.376  1.00  0.00    -0.177 NA
HETATM   24  N   UNL     1      41.685 -13.897  -3.567  1.00  0.00    -0.281 N 
HETATM   25  H   UNL     1      41.564 -14.429  -4.424  1.00  0.00     0.189 HD
HETATM   26  C   UNL     1      41.984 -12.596  -3.397  1.00  0.00     0.036 A 
HETATM   27  C   UNL     1      42.040 -12.349  -2.062  1.00  0.00    -0.006 A 
HETATM   28  C   UNL     1      42.244 -11.443  -4.267  1.00  0.00     0.059 C 
HETATM   29  C   UNL     1      42.358 -10.941  -1.778  1.00  0.00     0.043 C 
HETATM   30  C   UNL     1      42.755 -10.406  -3.203  1.00  0.00     0.011 C 
ENDBRANCH  21  22
ENDBRANCH  18  21
ENDBRANCH  16  17
ENDBRANCH   1  16
TORSDOF 7
ENDMDL
MODEL 8
REMARK VINA RESULT:      -7.8      2.375      4.385
REMARK  7 active torsions:
REMARK  status: ('A' for Active; 'I' for Inactive)
REMARK    1  A    between atoms: O_2  and  C_3 
REMARK    2  A    between atoms: C_6  and  C_7 
REMARK    3  A    between atoms: C_7  and  C_8 
REMARK    4  A    between atoms: C_7  and  C_14 
REMARK    5  A    between atoms: C_14  and  C_15 
REMARK       I    between atoms: C_15  and  N_16 
REMARK    6  A    between atoms: N_16  and  C_17 
REMARK    7  A    between atoms: C_17  and  C_18 
ROOT
HETATM    1  C   UNL     1      42.326 -17.555   2.798  1.00  0.00     0.060 C 
ENDROOT
BRANCH   1   2
HETATM    2  C   UNL     1      42.350 -16.195   3.515  1.00  0.00    -0.049 A 
HETATM    3  C   UNL     1      43.335 -15.223   3.279  1.00  0.00     0.010 A 
HETATM    4  C   UNL     1      43.329 -14.004   3.966  1.00  0.00     0.037 A 
HETATM    5  C   UNL     1      42.349 -13.722   4.915  1.00  0.00     0.068 A 
HETATM    6  C   UNL     1      41.382 -14.683   5.187  1.00  0.00     0.037 A 
HETATM    7  C   UNL     1      41.389 -15.906   4.502  1.00  0.00     0.010 A 
BRANCH   5   8
HETATM    8  O   UNL     1      42.456 -12.494   5.506  1.00  0.00    -0.356 OA
HETATM    9  C   UNL     1      41.390 -12.098   6.360  1.00  0.00     0.210 C 
ENDBRANCH   5   8
ENDBRANCH   1   2
BRANCH   1  10
HETATM   10  C   UNL     1      43.336 -18.580   3.319  1.00  0.00    -0.049 A 
HETATM   11  C   UNL     1      43.888 -19.564   2.482  1.00  0.00     0.008 A 
HETATM   12  C   UNL     1      44.795 -20.499   2.983  1.00  0.00     0.001 A 
HETATM   13  C   UNL     1      45.162 -20.465   4.326  1.00  0.00     0.000 A 
HETATM   14  C   UNL     1      44.624 -19.495   5.169  1.00  0.00     0.001 A 
HETATM   15  C   UNL     1      43.718 -18.558   4.670  1.00  0.00     0.008 A 
ENDBRANCH   1  10
BRANCH   1  16
HETATM   16  C   UNL     1      42.429 -17.404   1.262  1.00  0.00     0.116 C 
BRANCH  16  17
HETATM   17  C   UNL     1      41.472 -16.392   0.665  1.00  0.00     0.218 C 
HETATM   18  N   UNL     1      42.042 -15.460  -0.160  1.00  0.00    -0.355 N 
HETATM   19  H   UNL     1      43.044 -15.318  -0.191  1.00  0.00     0.162 HD
HETATM   20  O   UNL     1      40.258 -16.459   0.852  1.00  0.00    -0.274 OA
BRANCH  18  21
HETATM   21  C   UNL     1      41.277 -14.347  -0.672  1.00  0.00     0.184 C 
BRANCH  21  22
HETATM   22  C   UNL     1      41.374 -13.209   0.295  1.00  0.00     0.080 A 
HETATM   23  N   UNL     1      42.400 -12.321   0.243  1.00  0.00    -0.177 NA
HETATM   24  N   UNL     1      42.152 -11.451   1.256  1.00  0.00    -0.281 N 
HETATM   25  H   UNL     1      42.802 -10.686   1.413  1.00  0.00     0.189 HD
HETATM   26  C   UNL     1      41.022 -11.768   1.913  1.00  0.00     0.036 A 
HETATM   27  C   UNL     1      40.498 -12.881   1.334  1.00  0.00    -0.006 A 
HETATM   28  C   UNL     1      40.260 -11.223   3.042  1.00  0.00     0.059 C 
HETATM   29  C   UNL     1      39.249 -13.301   1.987  1.00  0.00     0.043 C 
HETATM   30  C   UNL     1      39.229 -12.386   3.266  1.00  0.00     0.011 C 
ENDBRANCH  21  22
ENDBRANCH  18  21
ENDBRANCH  16  17
ENDBRANCH   1  16
TORSDOF 7
ENDMDL
MODEL 9
REMARK VINA RESULT:      -7.8      2.312      3.314
REMARK  7 active torsions:
REMARK  status: ('A' for Active; 'I' for Inactive)
REMARK    1  A    between atoms: O_2  and  C_3 
REMARK    2  A    between atoms: C_6  and  C_7 
REMARK    3  A    between atoms: C_7  and  C_8 
REMARK    4  A    between atoms: C_7  and  C_14 
REMARK    5  A    between atoms: C_14  and  C_15 
REMARK       I    between atoms: C_15  and  N_16 
REMARK    6  A    between atoms: N_16  and  C_17 
REMARK    7  A    between atoms: C_17  and  C_18 
ROOT
HETATM    1  C   UNL     1      43.391 -17.182   4.240  1.00  0.00     0.060 C 
ENDROOT
BRANCH   1   2
HETATM    2  C   UNL     1      42.481 -16.554   3.172  1.00  0.00    -0.049 A 
HETATM    3  C   UNL     1      42.953 -15.671   2.188  1.00  0.00     0.010 A 
HETATM    4  C   UNL     1      42.086 -15.110   1.244  1.00  0.00     0.037 A 
HETATM    5  C   UNL     1      40.723 -15.401   1.260  1.00  0.00     0.068 A 
HETATM    6  C   UNL     1      40.230 -16.248   2.246  1.00  0.00     0.037 A 
HETATM    7  C   UNL     1      41.097 -16.809   3.194  1.00  0.00     0.010 A 
BRANCH   5   8
HETATM    8  O   UNL     1      39.992 -14.791   0.279  1.00  0.00    -0.356 OA
HETATM    9  C   UNL     1      40.690 -14.413  -0.901  1.00  0.00     0.210 C 
ENDBRANCH   5   8
ENDBRANCH   1   2
BRANCH   1  10
HETATM   10  C   UNL     1      43.864 -18.605   3.936  1.00  0.00    -0.049 A 
HETATM   11  C   UNL     1      43.719 -19.174   2.659  1.00  0.00     0.008 A 
HETATM   12  C   UNL     1      44.142 -20.480   2.409  1.00  0.00     0.001 A 
HETATM   13  C   UNL     1      44.714 -21.237   3.429  1.00  0.00     0.000 A 
HETATM   14  C   UNL     1      44.864 -20.687   4.701  1.00  0.00     0.001 A 
HETATM   15  C   UNL     1      44.444 -19.380   4.953  1.00  0.00     0.008 A 
ENDBRANCH   1  10
BRANCH   1  16
HETATM   16  C   UNL     1      42.772 -17.093   5.656  1.00  0.00     0.116 C 
BRANCH  16  17
HETATM   17  C   UNL     1      43.590 -16.291   6.649  1.00  0.00     0.218 C 
HETATM   18  N   UNL     1      44.048 -15.084   6.194  1.00  0.00    -0.355 N 
HETATM   19  H   UNL     1      44.034 -14.845   5.210  1.00  0.00     0.162 HD
HETATM   20  O   UNL     1      43.761 -16.673   7.806  1.00  0.00    -0.274 OA
BRANCH  18  21
HETATM   21  C   UNL     1      44.966 -14.289   6.976  1.00  0.00     0.184 C 
BRANCH  21  22
HETATM   22  C   UNL     1      44.218 -13.146   7.585  1.00  0.00     0.080 A 
HETATM   23  N   UNL     1      43.033 -12.723   7.075  1.00  0.00    -0.177 NA
HETATM   24  N   UNL     1      42.664 -11.689   7.874  1.00  0.00    -0.281 N 
HETATM   25  H   UNL     1      41.793 -11.206   7.678  1.00  0.00     0.189 HD
HETATM   26  C   UNL     1      43.569 -11.470   8.846  1.00  0.00     0.036 A 
HETATM   27  C   UNL     1      44.573 -12.375   8.696  1.00  0.00    -0.006 A 
HETATM   28  C   UNL     1      43.716 -10.541   9.973  1.00  0.00     0.059 C 
HETATM   29  C   UNL     1      45.612 -12.215   9.725  1.00  0.00     0.043 C 
HETATM   30  C   UNL     1      45.195 -10.855  10.397  1.00  0.00     0.011 C 
ENDBRANCH  21  22
ENDBRANCH  18  21
ENDBRANCH  16  17
ENDBRANCH   1  16
TORSDOF 7
ENDMDL
MODEL 10
REMARK VINA RESULT:      -7.6      2.196      5.456
REMARK  7 active torsions:
REMARK  status: ('A' for Active; 'I' for Inactive)
REMARK    1  A    between atoms: O_2  and  C_3 
REMARK    2  A    between atoms: C_6  and  C_7 
REMARK    3  A    between atoms: C_7  and  C_8 
REMARK    4  A    between atoms: C_7  and  C_14 
REMARK    5  A    between atoms: C_14  and  C_15 
REMARK       I    between atoms: C_15  and  N_16 
REMARK    6  A    between atoms: N_16  and  C_17 
REMARK    7  A    between atoms: C_17  and  C_18 
ROOT
HETATM    1  C   UNL     1      42.804 -17.334   2.250  1.00  0.00     0.060 C 
ENDROOT
BRANCH   1   2
HETATM    2  C   UNL     1      43.357 -18.711   2.654  1.00  0.00    -0.049 A 
HETATM    3  C   UNL     1      44.063 -18.931   3.847  1.00  0.00     0.010 A 
HETATM    4  C   UNL     1      44.564 -20.197   4.168  1.00  0.00     0.037 A 
HETATM    5  C   UNL     1      44.388 -21.277   3.306  1.00  0.00     0.068 A 
HETATM    6  C   UNL     1      43.719 -21.074   2.104  1.00  0.00     0.037 A 
HETATM    7  C   UNL     1      43.219 -19.805   1.780  1.00  0.00     0.010 A 
BRANCH   5   8
HETATM    8  O   UNL     1      44.921 -22.458   3.744  1.00  0.00    -0.356 OA
HETATM    9  C   UNL     1      45.230 -22.548   5.129  1.00  0.00     0.210 C 
ENDBRANCH   5   8
ENDBRANCH   1   2
BRANCH   1  10
HETATM   10  C   UNL     1      43.031 -16.218   3.271  1.00  0.00    -0.049 A 
HETATM   11  C   UNL     1      42.670 -16.367   4.621  1.00  0.00     0.008 A 
HETATM   12  C   UNL     1      42.872 -15.328   5.531  1.00  0.00     0.001 A 
HETATM   13  C   UNL     1      43.437 -14.128   5.107  1.00  0.00     0.000 A 
HETATM   14  C   UNL     1      43.800 -13.965   3.772  1.00  0.00     0.001 A 
HETATM   15  C   UNL     1      43.601 -15.002   2.860  1.00  0.00     0.008 A 
ENDBRANCH   1  10
BRANCH   1  16
HETATM   16  C   UNL     1      41.316 -17.407   1.829  1.00  0.00     0.116 C 
BRANCH  16  17
HETATM   17  C   UNL     1      40.690 -16.066   1.500  1.00  0.00     0.218 C 
HETATM   18  N   UNL     1      39.944 -15.506   2.501  1.00  0.00    -0.355 N 
HETATM   19  H   UNL     1      39.648 -16.041   3.309  1.00  0.00     0.162 HD
HETATM   20  O   UNL     1      40.907 -15.493   0.434  1.00  0.00    -0.274 OA
BRANCH  18  21
HETATM   21  C   UNL     1      39.166 -14.311   2.275  1.00  0.00     0.184 C 
BRANCH  21  22
HETATM   22  C   UNL     1      39.939 -13.129   2.770  1.00  0.00     0.080 A 
HETATM   23  N   UNL     1      40.582 -12.295   1.914  1.00  0.00    -0.177 NA
HETATM   24  N   UNL     1      41.161 -11.362   2.713  1.00  0.00    -0.281 N 
HETATM   25  H   UNL     1      41.707 -10.621   2.284  1.00  0.00     0.189 HD
HETATM   26  C   UNL     1      40.893 -11.591   4.012  1.00  0.00     0.036 A 
HETATM   27  C   UNL     1      40.120 -12.707   4.091  1.00  0.00    -0.006 A 
HETATM   28  C   UNL     1      41.215 -10.952   5.293  1.00  0.00     0.059 C 
HETATM   29  C   UNL     1      39.770 -13.033   5.481  1.00  0.00     0.043 C 
HETATM   30  C   UNL     1      40.698 -12.053   6.287  1.00  0.00     0.011 C 
ENDBRANCH  21  22
ENDBRANCH  18  21
ENDBRANCH  16  17
ENDBRANCH   1  16
TORSDOF 7
ENDMDL
