MODEL 1
REMARK VINA RESULT:      -9.9      0.000      0.000
REMARK  7 active torsions:
REMARK  status: ('A' for Active; 'I' for Inactive)
REMARK    1  A    between atoms: C_4  and  C_5 
REMARK    2  A    between atoms: C_5  and  O_6 
REMARK    3  A    between atoms: C_5  and  C_7 
REMARK    4  A    between atoms: C_9  and  C_10 
REMARK    5  A    between atoms: C_10  and  N_11 
REMARK       I    between atoms: N_11  and  C_12 
REMARK    6  A    between atoms: C_12  and  C_13 
REMARK       I    between atoms: C_13  and  N_14 
REMARK    7  A    between atoms: N_14  and  C_15 
ROOT
HETATM    1  N   UNL     1      41.708 -13.291   2.055  1.00  0.00    -0.348 N 
HETATM    2  C   UNL     1      42.288 -13.628   3.250  1.00  0.00     0.310 C 
HETATM    3  O   UNL     1      42.902 -12.883   3.999  1.00  0.00    -0.262 OA
HETATM    4  H   UNL     1      41.320 -14.061   1.515  1.00  0.00     0.163 HD
ENDROOT
BRANCH   2   5
HETATM    5  C   UNL     1      42.131 -15.127   3.588  1.00  0.00     0.313 C 
HETATM    6  N   UNL     1      43.324 -15.814   3.509  1.00  0.00    -0.319 N 
HETATM    7  H   UNL     1      44.126 -15.240   3.257  1.00  0.00     0.169 HD
HETATM    8  O   UNL     1      41.013 -15.544   3.858  1.00  0.00    -0.262 OA
BRANCH   6   9
HETATM    9  C   UNL     1      43.526 -17.194   3.684  1.00  0.00     0.036 A 
HETATM   10  C   UNL     1      43.467 -18.120   2.643  1.00  0.00     0.039 A 
HETATM   11  C   UNL     1      43.729 -19.478   2.875  1.00  0.00    -0.028 A 
HETATM   12  C   UNL     1      44.034 -19.924   4.165  1.00  0.00     0.050 A 
HETATM   13  C   UNL     1      43.595 -20.478   1.764  1.00  0.00     0.050 C 
HETATM   14  N   UNL     1      44.315 -21.300   4.380  1.00  0.00    -0.317 N 
HETATM   15  C   UNL     1      44.035 -19.011   5.230  1.00  0.00    -0.028 A 
HETATM   16  C   UNL     1      44.551 -22.185   3.331  1.00  0.00     0.224 C 
HETATM   17  C   UNL     1      44.540 -21.782   5.738  1.00  0.00     0.132 C 
HETATM   18  O   UNL     1      44.815 -23.377   3.503  1.00  0.00    -0.273 OA
HETATM   19  C   UNL     1      44.607 -21.587   1.944  1.00  0.00     0.108 C 
HETATM   20  C   UNL     1      43.889 -20.918   6.807  1.00  0.00     0.025 C 
HETATM   21  C   UNL     1      44.321 -19.471   6.633  1.00  0.00     0.042 C 
HETATM   22  C   UNL     1      43.804 -17.649   4.977  1.00  0.00     0.039 A 
ENDBRANCH   6   9
ENDBRANCH   2   5
BRANCH   1  23
HETATM   23  C   UNL     1      41.884 -12.005   1.433  1.00  0.00     0.169 C 
BRANCH  23  24
HETATM   24  C   UNL     1      42.045 -12.235  -0.035  1.00  0.00     0.001 A 
HETATM   25  S   UNL     1      41.293 -13.582  -0.781  1.00  0.00    -0.095 SA
HETATM   26  C   UNL     1      41.791 -13.091  -2.347  1.00  0.00     0.017 A 
HETATM   27  C   UNL     1      42.566 -11.949  -2.287  1.00  0.00     0.018 A 
HETATM   28  C   UNL     1      42.718 -11.460  -0.957  1.00  0.00     0.017 A 
BRANCH  26  29
HETATM   29  C   UNL     1      41.335 -13.873  -3.551  1.00  0.00     0.198 C 
BRANCH  29  30
HETATM   30  C   UNL     1      39.860 -14.163  -3.560  1.00  0.00     0.016 A 
HETATM   31  S   UNL     1      39.313 -15.767  -3.852  1.00  0.00    -0.103 SA
HETATM   32  C   UNL     1      37.674 -15.310  -3.695  1.00  0.00     0.050 A 
HETATM   33  C   UNL     1      37.534 -13.967  -3.428  1.00  0.00     0.008 A 
HETATM   34  C   UNL     1      38.793 -13.307  -3.351  1.00  0.00     0.018 A 
ENDBRANCH  29  30
BRANCH  29  35
HETATM   35  O   UNL     1      42.018 -15.127  -3.499  1.00  0.00    -0.385 OA
HETATM   36  H   UNL     1      41.742 -15.549  -2.668  1.00  0.00     0.210 HD
ENDBRANCH  29  35
ENDBRANCH  26  29
ENDBRANCH  23  24
ENDBRANCH   1  23
TORSDOF 7
ENDMDL
MODEL 2
REMARK VINA RESULT:      -9.6      6.153      9.307
REMARK  7 active torsions:
REMARK  status: ('A' for Active; 'I' for Inactive)
REMARK    1  A    between atoms: C_4  and  C_5 
REMARK    2  A    between atoms: C_5  and  O_6 
REMARK    3  A    between atoms: C_5  and  C_7 
REMARK    4  A    between atoms: C_9  and  C_10 
REMARK    5  A    between atoms: C_10  and  N_11 
REMARK       I    between atoms: N_11  and  C_12 
REMARK    6  A    between atoms: C_12  and  C_13 
REMARK       I    between atoms: C_13  and  N_14 
REMARK    7  A    between atoms: N_14  and  C_15 
ROOT
HETATM    1  N   UNL     1      41.307 -12.713   6.376  1.00  0.00    -0.348 N 
HETATM    2  C   UNL     1      41.918 -13.268   5.282  1.00  0.00     0.310 C 
HETATM    3  O   UNL     1      42.464 -12.668   4.368  1.00  0.00    -0.262 OA
HETATM    4  H   UNL     1      40.818 -13.360   6.990  1.00  0.00     0.163 HD
ENDROOT
BRANCH   2   5
HETATM    5  C   UNL     1      41.829 -14.810   5.266  1.00  0.00     0.313 C 
HETATM    6  N   UNL     1      43.023 -15.404   4.915  1.00  0.00    -0.319 N 
HETATM    7  H   UNL     1      43.783 -14.751   4.735  1.00  0.00     0.169 HD
HETATM    8  O   UNL     1      40.753 -15.329   5.531  1.00  0.00    -0.262 OA
BRANCH   6   9
HETATM    9  C   UNL     1      43.272 -16.776   4.737  1.00  0.00     0.036 A 
HETATM   10  C   UNL     1      43.232 -17.411   3.496  1.00  0.00     0.039 A 
HETATM   11  C   UNL     1      43.541 -18.775   3.379  1.00  0.00    -0.028 A 
HETATM   12  C   UNL     1      43.875 -19.520   4.514  1.00  0.00     0.050 A 
HETATM   13  C   UNL     1      43.428 -19.467   2.052  1.00  0.00     0.050 C 
HETATM   14  N   UNL     1      44.203 -20.895   4.375  1.00  0.00    -0.317 N 
HETATM   15  C   UNL     1      43.857 -18.905   5.775  1.00  0.00    -0.028 A 
HETATM   16  C   UNL     1      44.456 -21.480   3.136  1.00  0.00     0.224 C 
HETATM   17  C   UNL     1      44.458 -21.695   5.568  1.00  0.00     0.132 C 
HETATM   18  O   UNL     1      44.761 -22.666   3.002  1.00  0.00    -0.273 OA
HETATM   19  C   UNL     1      44.478 -20.550   1.944  1.00  0.00     0.108 C 
HETATM   20  C   UNL     1      43.790 -21.152   6.821  1.00  0.00     0.025 C 
HETATM   21  C   UNL     1      44.173 -19.693   7.016  1.00  0.00     0.042 C 
HETATM   22  C   UNL     1      43.579 -17.531   5.873  1.00  0.00     0.039 A 
ENDBRANCH   6   9
ENDBRANCH   2   5
BRANCH   1  23
HETATM   23  C   UNL     1      41.089 -11.297   6.518  1.00  0.00     0.169 C 
BRANCH  23  24
HETATM   24  C   UNL     1      41.224 -10.967   7.969  1.00  0.00     0.001 A 
HETATM   25  S   UNL     1      39.853 -11.030   8.996  1.00  0.00    -0.095 SA
HETATM   26  C   UNL     1      40.788 -10.695  10.394  1.00  0.00     0.017 A 
HETATM   27  C   UNL     1      42.114 -10.485  10.067  1.00  0.00     0.018 A 
HETATM   28  C   UNL     1      42.364 -10.634   8.672  1.00  0.00     0.017 A 
BRANCH  26  29
HETATM   29  C   UNL     1      40.129 -10.704  11.748  1.00  0.00     0.198 C 
BRANCH  29  30
HETATM   30  C   UNL     1      40.974 -10.104  12.837  1.00  0.00     0.016 A 
HETATM   31  S   UNL     1      40.734  -8.463  13.289  1.00  0.00    -0.103 SA
HETATM   32  C   UNL     1      41.952  -8.544  14.485  1.00  0.00     0.050 A 
HETATM   33  C   UNL     1      42.537  -9.788  14.546  1.00  0.00     0.008 A 
HETATM   34  C   UNL     1      41.974 -10.687  13.596  1.00  0.00     0.018 A 
ENDBRANCH  29  30
BRANCH  29  35
HETATM   35  O   UNL     1      39.912 -12.078  12.081  1.00  0.00    -0.385 OA
HETATM   36  H   UNL     1      39.707 -12.094  13.031  1.00  0.00     0.210 HD
ENDBRANCH  29  35
ENDBRANCH  26  29
ENDBRANCH  23  24
ENDBRANCH   1  23
TORSDOF 7
ENDMDL
MODEL 3
REMARK VINA RESULT:      -9.5      7.739     11.077
REMARK  7 active torsions:
REMARK  status: ('A' for Active; 'I' for Inactive)
REMARK    1  A    between atoms: C_4  and  C_5 
REMARK    2  A    between atoms: C_5  and  O_6 
REMARK    3  A    between atoms: C_5  and  C_7 
REMARK    4  A    between atoms: C_9  and  C_10 
REMARK    5  A    between atoms: C_10  and  N_11 
REMARK       I    between atoms: N_11  and  C_12 
REMARK    6  A    between atoms: C_12  and  C_13 
REMARK       I    between atoms: C_13  and  N_14 
REMARK    7  A    between atoms: N_14  and  C_15 
ROOT
HETATM    1  N   UNL     1      44.357 -13.290   8.078  1.00  0.00    -0.348 N 
HETATM    2  C   UNL     1      45.301 -12.403   8.525  1.00  0.00     0.310 C 
HETATM    3  O   UNL     1      46.497 -12.422   8.275  1.00  0.00    -0.262 OA
HETATM    4  H   UNL     1      43.423 -13.180   8.465  1.00  0.00     0.163 HD
ENDROOT
BRANCH   2   5
HETATM    5  C   UNL     1      44.712 -11.325   9.461  1.00  0.00     0.313 C 
HETATM    6  N   UNL     1      43.473 -11.674   9.954  1.00  0.00    -0.319 N 
HETATM    7  H   UNL     1      43.136 -12.584   9.647  1.00  0.00     0.169 HD
HETATM    8  O   UNL     1      45.361 -10.304   9.647  1.00  0.00    -0.262 OA
BRANCH   6   9
HETATM    9  C   UNL     1      42.632 -10.898  10.771  1.00  0.00     0.036 A 
HETATM   10  C   UNL     1      41.461 -10.292  10.316  1.00  0.00     0.039 A 
HETATM   11  C   UNL     1      40.638  -9.572  11.195  1.00  0.00    -0.028 A 
HETATM   12  C   UNL     1      40.994  -9.438  12.541  1.00  0.00     0.050 A 
HETATM   13  C   UNL     1      39.417  -8.864  10.684  1.00  0.00     0.050 C 
HETATM   14  N   UNL     1      40.139  -8.722  13.421  1.00  0.00    -0.317 N 
HETATM   15  C   UNL     1      42.200  -9.992  12.995  1.00  0.00    -0.028 A 
HETATM   16  C   UNL     1      38.840  -8.363  13.071  1.00  0.00     0.224 C 
HETATM   17  C   UNL     1      40.556  -8.501  14.802  1.00  0.00     0.132 C 
HETATM   18  O   UNL     1      38.082  -7.759  13.831  1.00  0.00    -0.273 OA
HETATM   19  C   UNL     1      38.335  -8.873  11.740  1.00  0.00     0.108 C 
HETATM   20  C   UNL     1      42.064  -8.535  14.996  1.00  0.00     0.025 C 
HETATM   21  C   UNL     1      42.627  -9.828  14.428  1.00  0.00     0.042 C 
HETATM   22  C   UNL     1      42.998 -10.738  12.111  1.00  0.00     0.039 A 
ENDBRANCH   6   9
ENDBRANCH   2   5
BRANCH   1  23
HETATM   23  C   UNL     1      44.688 -14.490   7.354  1.00  0.00     0.169 C 
BRANCH  23  24
HETATM   24  C   UNL     1      43.614 -14.712   6.340  1.00  0.00     0.001 A 
HETATM   25  S   UNL     1      43.471 -16.230   5.558  1.00  0.00    -0.095 SA
HETATM   26  C   UNL     1      42.042 -15.760   4.736  1.00  0.00     0.017 A 
HETATM   27  C   UNL     1      41.717 -14.446   5.015  1.00  0.00     0.018 A 
HETATM   28  C   UNL     1      42.625 -13.841   5.932  1.00  0.00     0.017 A 
BRANCH  26  29
HETATM   29  C   UNL     1      41.310 -16.764   3.885  1.00  0.00     0.198 C 
BRANCH  29  30
HETATM   30  C   UNL     1      42.177 -17.430   2.853  1.00  0.00     0.016 A 
HETATM   31  S   UNL     1      42.609 -16.571   1.428  1.00  0.00    -0.103 SA
HETATM   32  C   UNL     1      43.528 -17.884   0.834  1.00  0.00     0.050 A 
HETATM   33  C   UNL     1      43.512 -18.959   1.694  1.00  0.00     0.008 A 
HETATM   34  C   UNL     1      42.733 -18.697   2.857  1.00  0.00     0.018 A 
ENDBRANCH  29  30
BRANCH  29  35
HETATM   35  O   UNL     1      40.295 -16.037   3.189  1.00  0.00    -0.385 OA
HETATM   36  H   UNL     1      40.608 -15.118   3.141  1.00  0.00     0.210 HD
ENDBRANCH  29  35
ENDBRANCH  26  29
ENDBRANCH  23  24
ENDBRANCH   1  23
TORSDOF 7
ENDMDL
MODEL 4
REMARK VINA RESULT:      -9.5      4.840      7.908
REMARK  7 active torsions:
REMARK  status: ('A' for Active; 'I' for Inactive)
REMARK    1  A    between atoms: C_4  and  C_5 
REMARK    2  A    between atoms: C_5  and  O_6 
REMARK    3  A    between atoms: C_5  and  C_7 
REMARK    4  A    between atoms: C_9  and  C_10 
REMARK    5  A    between atoms: C_10  and  N_11 
REMARK       I    between atoms: N_11  and  C_12 
REMARK    6  A    between atoms: C_12  and  C_13 
REMARK       I    between atoms: C_13  and  N_14 
REMARK    7  A    between atoms: N_14  and  C_15 
ROOT
HETATM    1  N   UNL     1      41.670 -12.573   4.643  1.00  0.00    -0.348 N 
HETATM    2  C   UNL     1      42.253 -13.365   3.688  1.00  0.00     0.310 C 
HETATM    3  O   UNL     1      42.806 -12.989   2.666  1.00  0.00    -0.262 OA
HETATM    4  H   UNL     1      41.170 -13.061   5.382  1.00  0.00     0.163 HD
ENDROOT
BRANCH   2   5
HETATM    5  C   UNL     1      42.120 -14.871   4.000  1.00  0.00     0.313 C 
HETATM    6  N   UNL     1      43.278 -15.570   3.732  1.00  0.00    -0.319 N 
HETATM    7  H   UNL     1      44.047 -14.998   3.388  1.00  0.00     0.169 HD
HETATM    8  O   UNL     1      41.044 -15.284   4.411  1.00  0.00    -0.262 OA
BRANCH   6   9
HETATM    9  C   UNL     1      43.480 -16.957   3.835  1.00  0.00     0.036 A 
HETATM   10  C   UNL     1      43.401 -17.830   2.751  1.00  0.00     0.039 A 
HETATM   11  C   UNL     1      43.664 -19.199   2.911  1.00  0.00    -0.028 A 
HETATM   12  C   UNL     1      43.990 -19.709   4.172  1.00  0.00     0.050 A 
HETATM   13  C   UNL     1      43.509 -20.143   1.754  1.00  0.00     0.050 C 
HETATM   14  N   UNL     1      44.271 -21.095   4.313  1.00  0.00    -0.317 N 
HETATM   15  C   UNL     1      44.011 -18.850   5.281  1.00  0.00    -0.028 A 
HETATM   16  C   UNL     1      44.487 -21.927   3.217  1.00  0.00     0.224 C 
HETATM   17  C   UNL     1      44.518 -21.643   5.642  1.00  0.00     0.132 C 
HETATM   18  O   UNL     1      44.750 -23.126   3.326  1.00  0.00    -0.273 OA
HETATM   19  C   UNL     1      44.521 -21.261   1.861  1.00  0.00     0.108 C 
HETATM   20  C   UNL     1      43.887 -20.833   6.763  1.00  0.00     0.025 C 
HETATM   21  C   UNL     1      44.320 -19.380   6.654  1.00  0.00     0.042 C 
HETATM   22  C   UNL     1      43.780 -17.476   5.099  1.00  0.00     0.039 A 
ENDBRANCH   6   9
ENDBRANCH   2   5
BRANCH   1  23
HETATM   23  C   UNL     1      41.494 -11.153   4.483  1.00  0.00     0.169 C 
BRANCH  23  24
HETATM   24  C   UNL     1      41.189 -10.585   5.831  1.00  0.00     0.001 A 
HETATM   25  S   UNL     1      40.461 -11.567   7.032  1.00  0.00    -0.095 SA
HETATM   26  C   UNL     1      40.572 -10.334   8.219  1.00  0.00     0.017 A 
HETATM   27  C   UNL     1      41.105  -9.177   7.684  1.00  0.00     0.018 A 
HETATM   28  C   UNL     1      41.454  -9.319   6.310  1.00  0.00     0.017 A 
BRANCH  26  29
HETATM   29  C   UNL     1      40.148 -10.625   9.634  1.00  0.00     0.198 C 
BRANCH  29  30
HETATM   30  C   UNL     1      41.297 -10.856  10.575  1.00  0.00     0.016 A 
HETATM   31  S   UNL     1      40.991 -11.059  12.254  1.00  0.00    -0.103 SA
HETATM   32  C   UNL     1      42.650 -11.271  12.601  1.00  0.00     0.050 A 
HETATM   33  C   UNL     1      43.431 -11.189  11.471  1.00  0.00     0.008 A 
HETATM   34  C   UNL     1      42.651 -10.950  10.303  1.00  0.00     0.018 A 
ENDBRANCH  29  30
BRANCH  29  35
HETATM   35  O   UNL     1      39.384 -11.832   9.585  1.00  0.00    -0.385 OA
HETATM   36  H   UNL     1      38.456 -11.559   9.492  1.00  0.00     0.210 HD
ENDBRANCH  29  35
ENDBRANCH  26  29
ENDBRANCH  23  24
ENDBRANCH   1  23
TORSDOF 7
ENDMDL
MODEL 5
REMARK VINA RESULT:      -9.5      7.914     11.458
REMARK  7 active torsions:
REMARK  status: ('A' for Active; 'I' for Inactive)
REMARK    1  A    between atoms: C_4  and  C_5 
REMARK    2  A    between atoms: C_5  and  O_6 
REMARK    3  A    between atoms: C_5  and  C_7 
REMARK    4  A    between atoms: C_9  and  C_10 
REMARK    5  A    between atoms: C_10  and  N_11 
REMARK       I    between atoms: N_11  and  C_12 
REMARK    6  A    between atoms: C_12  and  C_13 
REMARK       I    between atoms: C_13  and  N_14 
REMARK    7  A    between atoms: N_14  and  C_15 
ROOT
HETATM    1  N   UNL     1      44.279 -13.434   7.967  1.00  0.00    -0.348 N 
HETATM    2  C   UNL     1      45.051 -12.675   8.808  1.00  0.00     0.310 C 
HETATM    3  O   UNL     1      46.208 -12.329   8.623  1.00  0.00    -0.262 OA
HETATM    4  H   UNL     1      43.368 -13.709   8.326  1.00  0.00     0.163 HD
ENDROOT
BRANCH   2   5
HETATM    5  C   UNL     1      44.317 -12.294  10.112  1.00  0.00     0.313 C 
HETATM    6  N   UNL     1      43.330 -11.354   9.907  1.00  0.00    -0.319 N 
HETATM    7  H   UNL     1      43.219 -11.062   8.938  1.00  0.00     0.169 HD
HETATM    8  O   UNL     1      44.680 -12.820  11.155  1.00  0.00    -0.262 OA
BRANCH   6   9
HETATM    9  C   UNL     1      42.522 -10.739  10.879  1.00  0.00     0.036 A 
HETATM   10  C   UNL     1      42.907 -10.577  12.210  1.00  0.00     0.039 A 
HETATM   11  C   UNL     1      42.075  -9.908  13.121  1.00  0.00    -0.028 A 
HETATM   12  C   UNL     1      40.835  -9.412  12.706  1.00  0.00     0.050 A 
HETATM   13  C   UNL     1      42.465  -9.799  14.566  1.00  0.00     0.050 C 
HETATM   14  N   UNL     1      40.014  -8.721  13.637  1.00  0.00    -0.317 N 
HETATM   15  C   UNL     1      40.412  -9.624  11.386  1.00  0.00    -0.028 A 
HETATM   16  C   UNL     1      40.487  -8.291  14.874  1.00  0.00     0.224 C 
HETATM   17  C   UNL     1      38.681  -8.286  13.231  1.00  0.00     0.132 C 
HETATM   18  O   UNL     1      39.792  -7.674  15.683  1.00  0.00    -0.273 OA
HETATM   19  C   UNL     1      41.962  -8.493  15.139  1.00  0.00     0.108 C 
HETATM   20  C   UNL     1      38.094  -9.105  12.093  1.00  0.00     0.025 C 
HETATM   21  C   UNL     1      39.066  -9.135  10.925  1.00  0.00     0.042 C 
HETATM   22  C   UNL     1      41.269 -10.265  10.476  1.00  0.00     0.039 A 
ENDBRANCH   6   9
ENDBRANCH   2   5
BRANCH   1  23
HETATM   23  C   UNL     1      44.800 -14.070   6.786  1.00  0.00     0.169 C 
BRANCH  23  24
HETATM   24  C   UNL     1      43.997 -15.309   6.553  1.00  0.00     0.001 A 
HETATM   25  S   UNL     1      43.159 -15.524   5.074  1.00  0.00    -0.095 SA
HETATM   26  C   UNL     1      42.658 -17.108   5.499  1.00  0.00     0.017 A 
HETATM   27  C   UNL     1      43.080 -17.438   6.772  1.00  0.00     0.018 A 
HETATM   28  C   UNL     1      43.844 -16.401   7.382  1.00  0.00     0.017 A 
BRANCH  26  29
HETATM   29  C   UNL     1      41.898 -17.940   4.499  1.00  0.00     0.198 C 
BRANCH  29  30
HETATM   30  C   UNL     1      42.340 -17.731   3.078  1.00  0.00     0.016 A 
HETATM   31  S   UNL     1      41.326 -16.864   1.993  1.00  0.00    -0.103 SA
HETATM   32  C   UNL     1      42.441 -17.031   0.709  1.00  0.00     0.050 A 
HETATM   33  C   UNL     1      43.563 -17.732   1.085  1.00  0.00     0.008 A 
HETATM   34  C   UNL     1      43.505 -18.135   2.450  1.00  0.00     0.018 A 
ENDBRANCH  29  30
BRANCH  29  35
HETATM   35  O   UNL     1      40.532 -17.529   4.589  1.00  0.00    -0.385 OA
HETATM   36  H   UNL     1      40.050 -18.280   4.973  1.00  0.00     0.210 HD
ENDBRANCH  29  35
ENDBRANCH  26  29
ENDBRANCH  23  24
ENDBRANCH   1  23
TORSDOF 7
ENDMDL
MODEL 6
REMARK VINA RESULT:      -9.2      5.736      8.599
REMARK  7 active torsions:
REMARK  status: ('A' for Active; 'I' for Inactive)
REMARK    1  A    between atoms: C_4  and  C_5 
REMARK    2  A    between atoms: C_5  and  O_6 
REMARK    3  A    between atoms: C_5  and  C_7 
REMARK    4  A    between atoms: C_9  and  C_10 
REMARK    5  A    between atoms: C_10  and  N_11 
REMARK       I    between atoms: N_11  and  C_12 
REMARK    6  A    between atoms: C_12  and  C_13 
REMARK       I    between atoms: C_13  and  N_14 
REMARK    7  A    between atoms: N_14  and  C_15 
ROOT
HETATM    1  N   UNL     1      44.507 -12.142  10.239  1.00  0.00    -0.348 N 
HETATM    2  C   UNL     1      45.352 -11.712   9.250  1.00  0.00     0.310 C 
HETATM    3  O   UNL     1      45.971 -10.658   9.226  1.00  0.00    -0.262 OA
HETATM    4  H   UNL     1      44.000 -13.003  10.049  1.00  0.00     0.163 HD
ENDROOT
BRANCH   2   5
HETATM    5  C   UNL     1      45.445 -12.704   8.071  1.00  0.00     0.313 C 
HETATM    6  N   UNL     1      44.266 -13.387   7.860  1.00  0.00    -0.319 N 
HETATM    7  H   UNL     1      43.511 -13.132   8.494  1.00  0.00     0.169 HD
HETATM    8  O   UNL     1      46.513 -12.801   7.480  1.00  0.00    -0.262 OA
BRANCH   6   9
HETATM    9  C   UNL     1      44.027 -14.406   6.922  1.00  0.00     0.036 A 
HETATM   10  C   UNL     1      43.412 -14.190   5.689  1.00  0.00     0.039 A 
HETATM   11  C   UNL     1      43.249 -15.241   4.775  1.00  0.00    -0.028 A 
HETATM   12  C   UNL     1      43.685 -16.530   5.100  1.00  0.00     0.050 A 
HETATM   13  C   UNL     1      42.524 -15.016   3.480  1.00  0.00     0.050 C 
HETATM   14  N   UNL     1      43.528 -17.579   4.156  1.00  0.00    -0.317 N 
HETATM   15  C   UNL     1      44.248 -16.771   6.362  1.00  0.00    -0.028 A 
HETATM   16  C   UNL     1      43.194 -17.340   2.825  1.00  0.00     0.224 C 
HETATM   17  C   UNL     1      43.895 -18.940   4.530  1.00  0.00     0.132 C 
HETATM   18  O   UNL     1      43.073 -18.239   1.990  1.00  0.00    -0.273 OA
HETATM   19  C   UNL     1      43.115 -15.892   2.399  1.00  0.00     0.108 C 
HETATM   20  C   UNL     1      43.849 -19.194   6.028  1.00  0.00     0.025 C 
HETATM   21  C   UNL     1      44.689 -18.155   6.753  1.00  0.00     0.042 C 
HETATM   22  C   UNL     1      44.437 -15.702   7.254  1.00  0.00     0.039 A 
ENDBRANCH   6   9
ENDBRANCH   2   5
BRANCH   1  23
HETATM   23  C   UNL     1      44.106 -11.312  11.345  1.00  0.00     0.169 C 
BRANCH  23  24
HETATM   24  C   UNL     1      42.634 -11.085  11.225  1.00  0.00     0.001 A 
HETATM   25  S   UNL     1      41.972 -10.493   9.760  1.00  0.00    -0.095 SA
HETATM   26  C   UNL     1      40.364 -10.641  10.336  1.00  0.00     0.017 A 
HETATM   27  C   UNL     1      40.343 -11.082  11.645  1.00  0.00     0.018 A 
HETATM   28  C   UNL     1      41.649 -11.331  12.159  1.00  0.00     0.017 A 
BRANCH  26  29
HETATM   29  C   UNL     1      39.213 -10.338   9.413  1.00  0.00     0.198 C 
BRANCH  29  30
HETATM   30  C   UNL     1      39.369 -10.927   8.038  1.00  0.00     0.016 A 
HETATM   31  S   UNL     1      39.651  -9.888   6.698  1.00  0.00    -0.103 SA
HETATM   32  C   UNL     1      39.723 -11.202   5.607  1.00  0.00     0.050 A 
HETATM   33  C   UNL     1      39.535 -12.410   6.239  1.00  0.00     0.008 A 
HETATM   34  C   UNL     1      39.331 -12.252   7.639  1.00  0.00     0.018 A 
ENDBRANCH  29  30
BRANCH  29  35
HETATM   35  O   UNL     1      39.177  -8.916   9.268  1.00  0.00    -0.385 OA
HETATM   36  H   UNL     1      38.624  -8.587   9.996  1.00  0.00     0.210 HD
ENDBRANCH  29  35
ENDBRANCH  26  29
ENDBRANCH  23  24
ENDBRANCH   1  23
TORSDOF 7
ENDMDL
MODEL 7
REMARK VINA RESULT:      -9.1      6.636      9.994
REMARK  7 active torsions:
REMARK  status: ('A' for Active; 'I' for Inactive)
REMARK    1  A    between atoms: C_4  and  C_5 
REMARK    2  A    between atoms: C_5  and  O_6 
REMARK    3  A    between atoms: C_5  and  C_7 
REMARK    4  A    between atoms: C_9  and  C_10 
REMARK    5  A    between atoms: C_10  and  N_11 
REMARK       I    between atoms: N_11  and  C_12 
REMARK    6  A    between atoms: C_12  and  C_13 
REMARK       I    between atoms: C_13  and  N_14 
REMARK    7  A    between atoms: N_14  and  C_15 
ROOT
HETATM    1  N   UNL     1      40.796 -12.133   6.768  1.00  0.00    -0.348 N 
HETATM    2  C   UNL     1      40.785 -12.532   5.457  1.00  0.00     0.310 C 
HETATM    3  O   UNL     1      40.630 -11.817   4.479  1.00  0.00    -0.262 OA
HETATM    4  H   UNL     1      40.841 -12.878   7.460  1.00  0.00     0.163 HD
ENDROOT
BRANCH   2   5
HETATM    5  C   UNL     1      40.956 -14.057   5.295  1.00  0.00     0.313 C 
HETATM    6  N   UNL     1      42.278 -14.447   5.334  1.00  0.00    -0.319 N 
HETATM    7  H   UNL     1      42.939 -13.687   5.478  1.00  0.00     0.169 HD
HETATM    8  O   UNL     1      39.953 -14.738   5.131  1.00  0.00    -0.262 OA
BRANCH   6   9
HETATM    9  C   UNL     1      42.790 -15.743   5.150  1.00  0.00     0.036 A 
HETATM   10  C   UNL     1      43.310 -16.521   6.184  1.00  0.00     0.039 A 
HETATM   11  C   UNL     1      43.760 -17.828   5.943  1.00  0.00    -0.028 A 
HETATM   12  C   UNL     1      43.710 -18.361   4.650  1.00  0.00     0.050 A 
HETATM   13  C   UNL     1      44.381 -18.634   7.046  1.00  0.00     0.050 C 
HETATM   14  N   UNL     1      44.152 -19.692   4.427  1.00  0.00    -0.317 N 
HETATM   15  C   UNL     1      43.246 -17.565   3.592  1.00  0.00    -0.028 A 
HETATM   16  C   UNL     1      44.395 -20.582   5.470  1.00  0.00     0.224 C 
HETATM   17  C   UNL     1      44.188 -20.216   3.065  1.00  0.00     0.132 C 
HETATM   18  O   UNL     1      44.760 -21.745   5.290  1.00  0.00    -0.273 OA
HETATM   19  C   UNL     1      44.056 -20.099   6.862  1.00  0.00     0.108 C 
HETATM   20  C   UNL     1      44.315 -19.137   2.001  1.00  0.00     0.025 C 
HETATM   21  C   UNL     1      43.219 -18.100   2.186  1.00  0.00     0.042 C 
HETATM   22  C   UNL     1      42.768 -16.270   3.854  1.00  0.00     0.039 A 
ENDBRANCH   6   9
ENDBRANCH   2   5
BRANCH   1  23
HETATM   23  C   UNL     1      40.464 -10.796   7.185  1.00  0.00     0.169 C 
BRANCH  23  24
HETATM   24  C   UNL     1      40.808 -10.679   8.634  1.00  0.00     0.001 A 
HETATM   25  S   UNL     1      39.573 -10.763   9.819  1.00  0.00    -0.095 SA
HETATM   26  C   UNL     1      40.700 -10.705  11.110  1.00  0.00     0.017 A 
HETATM   27  C   UNL     1      41.991 -10.567  10.638  1.00  0.00     0.018 A 
HETATM   28  C   UNL     1      42.053 -10.545   9.214  1.00  0.00     0.017 A 
BRANCH  26  29
HETATM   29  C   UNL     1      40.212 -10.841  12.529  1.00  0.00     0.198 C 
BRANCH  29  30
HETATM   30  C   UNL     1      40.978 -10.004  13.515  1.00  0.00     0.016 A 
HETATM   31  S   UNL     1      40.554  -8.353  13.735  1.00  0.00    -0.103 SA
HETATM   32  C   UNL     1      41.765  -8.129  14.919  1.00  0.00     0.050 A 
HETATM   33  C   UNL     1      42.484  -9.280  15.149  1.00  0.00     0.008 A 
HETATM   34  C   UNL     1      42.031 -10.360  14.340  1.00  0.00     0.018 A 
ENDBRANCH  29  30
BRANCH  29  35
HETATM   35  O   UNL     1      40.404 -12.211  12.889  1.00  0.00    -0.385 OA
HETATM   36  H   UNL     1      39.520 -12.616  12.886  1.00  0.00     0.210 HD
ENDBRANCH  29  35
ENDBRANCH  26  29
ENDBRANCH  23  24
ENDBRANCH   1  23
TORSDOF 7
ENDMDL
MODEL 8
REMARK VINA RESULT:      -8.9      7.012      9.947
REMARK  7 active torsions:
REMARK  status: ('A' for Active; 'I' for Inactive)
REMARK    1  A    between atoms: C_4  and  C_5 
REMARK    2  A    between atoms: C_5  and  O_6 
REMARK    3  A    between atoms: C_5  and  C_7 
REMARK    4  A    between atoms: C_9  and  C_10 
REMARK    5  A    between atoms: C_10  and  N_11 
REMARK       I    between atoms: N_11  and  C_12 
REMARK    6  A    between atoms: C_12  and  C_13 
REMARK       I    between atoms: C_13  and  N_14 
REMARK    7  A    between atoms: N_14  and  C_15 
ROOT
HETATM    1  N   UNL     1      44.938 -11.358   9.035  1.00  0.00    -0.348 N 
HETATM    2  C   UNL     1      44.780 -12.712   9.177  1.00  0.00     0.310 C 
HETATM    3  O   UNL     1      44.566 -13.316  10.217  1.00  0.00    -0.262 OA
HETATM    4  H   UNL     1      45.207 -11.035   8.108  1.00  0.00     0.163 HD
ENDROOT
BRANCH   2   5
HETATM    5  C   UNL     1      44.940 -13.475   7.845  1.00  0.00     0.313 C 
HETATM    6  N   UNL     1      43.989 -14.460   7.683  1.00  0.00    -0.319 N 
HETATM    7  H   UNL     1      43.320 -14.531   8.447  1.00  0.00     0.169 HD
HETATM    8  O   UNL     1      45.865 -13.163   7.107  1.00  0.00    -0.262 OA
BRANCH   6   9
HETATM    9  C   UNL     1      43.887 -15.381   6.626  1.00  0.00     0.036 A 
HETATM   10  C   UNL     1      43.326 -15.074   5.387  1.00  0.00     0.039 A 
HETATM   11  C   UNL     1      43.301 -16.024   4.355  1.00  0.00    -0.028 A 
HETATM   12  C   UNL     1      43.822 -17.305   4.567  1.00  0.00     0.050 A 
HETATM   13  C   UNL     1      42.634 -15.709   3.048  1.00  0.00     0.050 C 
HETATM   14  N   UNL     1      43.805 -18.249   3.506  1.00  0.00    -0.317 N 
HETATM   15  C   UNL     1      44.332 -17.644   5.829  1.00  0.00    -0.028 A 
HETATM   16  C   UNL     1      43.527 -17.887   2.190  1.00  0.00     0.224 C 
HETATM   17  C   UNL     1      44.261 -19.613   3.753  1.00  0.00     0.132 C 
HETATM   18  O   UNL     1      43.528 -18.692   1.257  1.00  0.00    -0.273 OA
HETATM   19  C   UNL     1      43.354 -16.410   1.919  1.00  0.00     0.108 C 
HETATM   20  C   UNL     1      44.152 -20.037   5.209  1.00  0.00     0.025 C 
HETATM   21  C   UNL     1      44.862 -19.026   6.095  1.00  0.00     0.042 C 
HETATM   22  C   UNL     1      44.382 -16.672   6.842  1.00  0.00     0.039 A 
ENDBRANCH   6   9
ENDBRANCH   2   5
BRANCH   1  23
HETATM   23  C   UNL     1      45.026 -10.456  10.154  1.00  0.00     0.169 C 
BRANCH  23  24
HETATM   24  C   UNL     1      43.766 -10.600  10.945  1.00  0.00     0.001 A 
HETATM   25  S   UNL     1      42.244 -10.468  10.170  1.00  0.00    -0.095 SA
HETATM   26  C   UNL     1      41.392 -10.867  11.603  1.00  0.00     0.017 A 
HETATM   27  C   UNL     1      42.259 -11.042  12.665  1.00  0.00     0.018 A 
HETATM   28  C   UNL     1      43.624 -10.881  12.288  1.00  0.00     0.017 A 
BRANCH  26  29
HETATM   29  C   UNL     1      39.894 -11.019  11.559  1.00  0.00     0.198 C 
BRANCH  29  30
HETATM   30  C   UNL     1      39.150  -9.719  11.687  1.00  0.00     0.016 A 
HETATM   31  S   UNL     1      39.604  -8.599  12.910  1.00  0.00    -0.103 SA
HETATM   32  C   UNL     1      38.406  -7.481  12.427  1.00  0.00     0.050 A 
HETATM   33  C   UNL     1      37.668  -7.941  11.360  1.00  0.00     0.008 A 
HETATM   34  C   UNL     1      38.097  -9.231  10.934  1.00  0.00     0.018 A 
ENDBRANCH  29  30
BRANCH  29  35
HETATM   35  O   UNL     1      39.539 -11.829  12.682  1.00  0.00    -0.385 OA
HETATM   36  H   UNL     1      40.100 -12.621  12.630  1.00  0.00     0.210 HD
ENDBRANCH  29  35
ENDBRANCH  26  29
ENDBRANCH  23  24
ENDBRANCH   1  23
TORSDOF 7
ENDMDL
MODEL 9
REMARK VINA RESULT:      -8.8      6.920      9.978
REMARK  7 active torsions:
REMARK  status: ('A' for Active; 'I' for Inactive)
REMARK    1  A    between atoms: C_4  and  C_5 
REMARK    2  A    between atoms: C_5  and  O_6 
REMARK    3  A    between atoms: C_5  and  C_7 
REMARK    4  A    between atoms: C_9  and  C_10 
REMARK    5  A    between atoms: C_10  and  N_11 
REMARK       I    between atoms: N_11  and  C_12 
REMARK    6  A    between atoms: C_12  and  C_13 
REMARK       I    between atoms: C_13  and  N_14 
REMARK    7  A    between atoms: N_14  and  C_15 
ROOT
HETATM    1  N   UNL     1      44.934 -11.428   8.963  1.00  0.00    -0.348 N 
HETATM    2  C   UNL     1      44.771 -12.785   9.068  1.00  0.00     0.310 C 
HETATM    3  O   UNL     1      44.568 -13.418  10.093  1.00  0.00    -0.262 OA
HETATM    4  H   UNL     1      45.192 -11.080   8.043  1.00  0.00     0.163 HD
ENDROOT
BRANCH   2   5
HETATM    5  C   UNL     1      44.907 -13.510   7.712  1.00  0.00     0.313 C 
HETATM    6  N   UNL     1      44.039 -14.574   7.592  1.00  0.00    -0.319 N 
HETATM    7  H   UNL     1      43.432 -14.718   8.397  1.00  0.00     0.169 HD
HETATM    8  O   UNL     1      45.749 -13.104   6.922  1.00  0.00    -0.262 OA
BRANCH   6   9
HETATM    9  C   UNL     1      43.949 -15.484   6.525  1.00  0.00     0.036 A 
HETATM   10  C   UNL     1      44.524 -16.755   6.544  1.00  0.00     0.039 A 
HETATM   11  C   UNL     1      44.353 -17.636   5.466  1.00  0.00    -0.028 A 
HETATM   12  C   UNL     1      43.618 -17.240   4.344  1.00  0.00     0.050 A 
HETATM   13  C   UNL     1      45.032 -18.974   5.464  1.00  0.00     0.050 C 
HETATM   14  N   UNL     1      43.440 -18.151   3.269  1.00  0.00    -0.317 N 
HETATM   15  C   UNL     1      43.088 -15.942   4.288  1.00  0.00    -0.028 A 
HETATM   16  C   UNL     1      43.744 -19.505   3.381  1.00  0.00     0.224 C 
HETATM   17  C   UNL     1      42.754 -17.707   2.060  1.00  0.00     0.132 C 
HETATM   18  O   UNL     1      43.576 -20.310   2.463  1.00  0.00    -0.273 OA
HETATM   19  C   UNL     1      44.170 -19.989   4.748  1.00  0.00     0.108 C 
HETATM   20  C   UNL     1      42.823 -16.204   1.837  1.00  0.00     0.025 C 
HETATM   21  C   UNL     1      42.327 -15.477   3.077  1.00  0.00     0.042 C 
HETATM   22  C   UNL     1      43.237 -15.082   5.389  1.00  0.00     0.039 A 
ENDBRANCH   6   9
ENDBRANCH   2   5
BRANCH   1  23
HETATM   23  C   UNL     1      45.042 -10.560  10.107  1.00  0.00     0.169 C 
BRANCH  23  24
HETATM   24  C   UNL     1      43.783 -10.702  10.898  1.00  0.00     0.001 A 
HETATM   25  S   UNL     1      42.261 -10.543  10.127  1.00  0.00    -0.095 SA
HETATM   26  C   UNL     1      41.407 -10.954  11.556  1.00  0.00     0.017 A 
HETATM   27  C   UNL     1      42.273 -11.152  12.614  1.00  0.00     0.018 A 
HETATM   28  C   UNL     1      43.639 -11.001  12.238  1.00  0.00     0.017 A 
BRANCH  26  29
HETATM   29  C   UNL     1      39.907 -11.089  11.512  1.00  0.00     0.198 C 
BRANCH  29  30
HETATM   30  C   UNL     1      39.178  -9.779  11.621  1.00  0.00     0.016 A 
HETATM   31  S   UNL     1      39.597  -8.676  12.873  1.00  0.00    -0.103 SA
HETATM   32  C   UNL     1      38.437  -7.536  12.349  1.00  0.00     0.050 A 
HETATM   33  C   UNL     1      37.738  -7.975  11.248  1.00  0.00     0.008 A 
HETATM   34  C   UNL     1      38.165  -9.267  10.829  1.00  0.00     0.018 A 
ENDBRANCH  29  30
BRANCH  29  35
HETATM   35  O   UNL     1      39.541 -11.878  12.647  1.00  0.00    -0.385 OA
HETATM   36  H   UNL     1      40.207 -11.691  13.330  1.00  0.00     0.210 HD
ENDBRANCH  29  35
ENDBRANCH  26  29
ENDBRANCH  23  24
ENDBRANCH   1  23
TORSDOF 7
ENDMDL
MODEL 10
REMARK VINA RESULT:      -8.8      1.906      2.682
REMARK  7 active torsions:
REMARK  status: ('A' for Active; 'I' for Inactive)
REMARK    1  A    between atoms: C_4  and  C_5 
REMARK    2  A    between atoms: C_5  and  O_6 
REMARK    3  A    between atoms: C_5  and  C_7 
REMARK    4  A    between atoms: C_9  and  C_10 
REMARK    5  A    between atoms: C_10  and  N_11 
REMARK       I    between atoms: N_11  and  C_12 
REMARK    6  A    between atoms: C_12  and  C_13 
REMARK       I    between atoms: C_13  and  N_14 
REMARK    7  A    between atoms: N_14  and  C_15 
ROOT
HETATM    1  N   UNL     1      40.370 -13.443   3.048  1.00  0.00    -0.348 N 
HETATM    2  C   UNL     1      41.431 -13.614   3.898  1.00  0.00     0.310 C 
HETATM    3  O   UNL     1      42.207 -12.750   4.279  1.00  0.00    -0.262 OA
HETATM    4  H   UNL     1      39.888 -14.291   2.761  1.00  0.00     0.163 HD
ENDROOT
BRANCH   2   5
HETATM    5  C   UNL     1      41.610 -15.081   4.343  1.00  0.00     0.313 C 
HETATM    6  N   UNL     1      42.584 -15.737   3.620  1.00  0.00    -0.319 N 
HETATM    7  H   UNL     1      43.049 -15.163   2.919  1.00  0.00     0.169 HD
HETATM    8  O   UNL     1      40.889 -15.507   5.234  1.00  0.00    -0.262 OA
BRANCH   6   9
HETATM    9  C   UNL     1      42.952 -17.090   3.717  1.00  0.00     0.036 A 
HETATM   10  C   UNL     1      42.882 -17.986   2.650  1.00  0.00     0.039 A 
HETATM   11  C   UNL     1      43.313 -19.313   2.799  1.00  0.00    -0.028 A 
HETATM   12  C   UNL     1      43.801 -19.760   4.031  1.00  0.00     0.050 A 
HETATM   13  C   UNL     1      43.170 -20.289   1.668  1.00  0.00     0.050 C 
HETATM   14  N   UNL     1      44.250 -21.101   4.159  1.00  0.00    -0.317 N 
HETATM   15  C   UNL     1      43.818 -18.884   5.127  1.00  0.00    -0.028 A 
HETATM   16  C   UNL     1      44.467 -21.923   3.056  1.00  0.00     0.224 C 
HETATM   17  C   UNL     1      44.671 -21.594   5.467  1.00  0.00     0.132 C 
HETATM   18  O   UNL     1      44.874 -23.083   3.151  1.00  0.00    -0.273 OA
HETATM   19  C   UNL     1      44.309 -21.283   1.696  1.00  0.00     0.108 C 
HETATM   20  C   UNL     1      44.048 -20.840   6.631  1.00  0.00     0.025 C 
HETATM   21  C   UNL     1      44.301 -19.350   6.473  1.00  0.00     0.042 C 
HETATM   22  C   UNL     1      43.415 -17.548   4.955  1.00  0.00     0.039 A 
ENDBRANCH   6   9
ENDBRANCH   2   5
BRANCH   1  23
HETATM   23  C   UNL     1      40.116 -12.210   2.349  1.00  0.00     0.169 C 
BRANCH  23  24
HETATM   24  C   UNL     1      40.497 -12.419   0.919  1.00  0.00     0.001 A 
HETATM   25  S   UNL     1      41.963 -11.766   0.317  1.00  0.00    -0.095 SA
HETATM   26  C   UNL     1      41.755 -12.507  -1.215  1.00  0.00     0.017 A 
HETATM   27  C   UNL     1      40.557 -13.193  -1.277  1.00  0.00     0.018 A 
HETATM   28  C   UNL     1      39.830 -13.137  -0.052  1.00  0.00     0.017 A 
BRANCH  26  29
HETATM   29  C   UNL     1      42.837 -12.382  -2.254  1.00  0.00     0.198 C 
BRANCH  29  30
HETATM   30  C   UNL     1      42.604 -11.273  -3.241  1.00  0.00     0.016 A 
HETATM   31  S   UNL     1      42.494  -9.650  -2.684  1.00  0.00    -0.103 SA
HETATM   32  C   UNL     1      42.262  -9.050  -4.267  1.00  0.00     0.050 A 
HETATM   33  C   UNL     1      42.264 -10.054  -5.208  1.00  0.00     0.008 A 
HETATM   34  C   UNL     1      42.460 -11.335  -4.617  1.00  0.00     0.018 A 
ENDBRANCH  29  30
BRANCH  29  35
HETATM   35  O   UNL     1      42.839 -13.611  -2.984  1.00  0.00    -0.385 OA
HETATM   36  H   UNL     1      41.989 -14.040  -2.788  1.00  0.00     0.210 HD
ENDBRANCH  29  35
ENDBRANCH  26  29
ENDBRANCH  23  24
ENDBRANCH   1  23
TORSDOF 7
ENDMDL
