MODEL 1
REMARK VINA RESULT:      -7.9      0.000      0.000
REMARK  6 active torsions:
REMARK  status: ('A' for Active; 'I' for Inactive)
REMARK    1  A    between atoms: C_3  and  C_4 
REMARK    2  A    between atoms: C_14  and  N_15 
REMARK       I    between atoms: N_15  and  C_16 
REMARK    3  A    between atoms: C_16  and  C_17 
REMARK    4  A    between atoms: N_21  and  C_22 
REMARK    5  A    between atoms: C_22  and  C_23 
REMARK    6  A    between atoms: C_26  and  O_27 
ROOT
HETATM    1  C   UNL     1      45.444 -17.771   6.512  1.00  0.00     0.051 C 
HETATM    2  C   UNL     1      44.229 -17.086   5.984  1.00  0.00    -0.022 A 
HETATM    3  C   UNL     1      43.793 -15.758   6.255  1.00  0.00     0.062 A 
HETATM    4  C   UNL     1      42.565 -15.555   5.640  1.00  0.00     0.125 A 
HETATM    5  N   UNL     1      42.271 -16.700   4.921  1.00  0.00    -0.332 N 
HETATM    6  C   UNL     1      43.277 -17.644   5.138  1.00  0.00     0.017 A 
HETATM    7  C   UNL     1      43.226 -19.024   4.558  1.00  0.00     0.069 C 
ENDROOT
BRANCH   3   8
HETATM    8  C   UNL     1      44.476 -14.688   7.053  1.00  0.00     0.143 A 
HETATM    9  N   UNL     1      43.988 -14.217   8.190  1.00  0.00    -0.228 NA
HETATM   10  C   UNL     1      44.815 -13.169   8.535  1.00  0.00     0.086 A 
HETATM   11  C   UNL     1      45.852 -13.035   7.620  1.00  0.00     0.062 A 
HETATM   12  C   UNL     1      44.733 -12.272   9.610  1.00  0.00     0.034 A 
HETATM   13  N   UNL     1      45.626 -14.029   6.705  1.00  0.00    -0.338 N 
HETATM   14  C   UNL     1      46.837 -12.049   7.710  1.00  0.00     0.032 A 
HETATM   15  H   UNL     1      46.177 -14.188   5.877  1.00  0.00     0.167 HD
HETATM   16  C   UNL     1      46.737 -11.160   8.784  1.00  0.00     0.002 A 
HETATM   17  C   UNL     1      45.703 -11.266   9.719  1.00  0.00     0.002 A 
ENDBRANCH   3   8
BRANCH   4  18
HETATM   18  N   UNL     1      41.851 -14.388   5.898  1.00  0.00    -0.312 N 
HETATM   19  C   UNL     1      41.807 -13.186   5.143  1.00  0.00     0.226 C 
HETATM   20  O   UNL     1      42.742 -12.860   4.430  1.00  0.00    -0.273 OA
HETATM   21  H   UNL     1      41.385 -14.393   6.810  1.00  0.00     0.170 HD
BRANCH  19  22
HETATM   22  C   UNL     1      40.549 -12.353   5.295  1.00  0.00     0.070 C 
HETATM   23  C   UNL     1      40.200 -11.736   3.945  1.00  0.00     0.019 C 
HETATM   24  C   UNL     1      39.381 -13.140   5.874  1.00  0.00     0.019 C 
ENDBRANCH  19  22
ENDBRANCH   4  18
BRANCH   5  25
HETATM   25  C   UNL     1      41.089 -16.983   4.109  1.00  0.00     0.169 C 
BRANCH  25  26
HETATM   26  C   UNL     1      41.058 -16.337   2.745  1.00  0.00    -0.040 A 
HETATM   27  C   UNL     1      40.398 -15.138   2.447  1.00  0.00     0.011 A 
HETATM   28  C   UNL     1      40.368 -14.650   1.136  1.00  0.00     0.037 A 
HETATM   29  C   UNL     1      40.990 -15.343   0.097  1.00  0.00     0.068 A 
HETATM   30  C   UNL     1      41.659 -16.529   0.381  1.00  0.00     0.037 A 
HETATM   31  C   UNL     1      41.694 -17.017   1.691  1.00  0.00     0.011 A 
BRANCH  29  32
HETATM   32  O   UNL     1      40.866 -14.763  -1.136  1.00  0.00    -0.356 OA
HETATM   33  C   UNL     1      40.927 -15.628  -2.264  1.00  0.00     0.210 C 
ENDBRANCH  29  32
ENDBRANCH  25  26
ENDBRANCH   5  25
TORSDOF 6
ENDMDL
MODEL 2
REMARK VINA RESULT:      -7.8      3.198      7.239
REMARK  6 active torsions:
REMARK  status: ('A' for Active; 'I' for Inactive)
REMARK    1  A    between atoms: C_3  and  C_4 
REMARK    2  A    between atoms: C_14  and  N_15 
REMARK       I    between atoms: N_15  and  C_16 
REMARK    3  A    between atoms: C_16  and  C_17 
REMARK    4  A    between atoms: N_21  and  C_22 
REMARK    5  A    between atoms: C_22  and  C_23 
REMARK    6  A    between atoms: C_26  and  O_27 
ROOT
HETATM    1  C   UNL     1      39.571 -10.693   4.057  1.00  0.00     0.051 C 
HETATM    2  C   UNL     1      40.032 -12.109   4.145  1.00  0.00    -0.022 A 
HETATM    3  C   UNL     1      40.650 -12.885   3.124  1.00  0.00     0.062 A 
HETATM    4  C   UNL     1      40.828 -14.180   3.593  1.00  0.00     0.125 A 
HETATM    5  N   UNL     1      40.413 -14.201   4.912  1.00  0.00    -0.332 N 
HETATM    6  C   UNL     1      39.913 -12.941   5.251  1.00  0.00     0.017 A 
HETATM    7  C   UNL     1      39.316 -12.645   6.592  1.00  0.00     0.069 C 
ENDROOT
BRANCH   3   8
HETATM    8  C   UNL     1      41.077 -12.465   1.749  1.00  0.00     0.143 A 
HETATM    9  N   UNL     1      40.718 -13.117   0.654  1.00  0.00    -0.228 NA
HETATM   10  C   UNL     1      41.414 -12.516  -0.372  1.00  0.00     0.086 A 
HETATM   11  C   UNL     1      42.167 -11.448   0.099  1.00  0.00     0.062 A 
HETATM   12  C   UNL     1      41.467 -12.838  -1.736  1.00  0.00     0.034 A 
HETATM   13  N   UNL     1      41.914 -11.423   1.445  1.00  0.00    -0.338 N 
HETATM   14  C   UNL     1      42.983 -10.660  -0.715  1.00  0.00     0.032 A 
HETATM   15  H   UNL     1      42.338 -10.789   2.102  1.00  0.00     0.167 HD
HETATM   16  C   UNL     1      43.028 -10.999  -2.071  1.00  0.00     0.002 A 
HETATM   17  C   UNL     1      42.286 -12.070  -2.576  1.00  0.00     0.002 A 
ENDBRANCH   3   8
BRANCH   4  18
HETATM   18  N   UNL     1      41.261 -15.175   2.719  1.00  0.00    -0.312 N 
HETATM   19  C   UNL     1      42.582 -15.642   2.486  1.00  0.00     0.226 C 
HETATM   20  O   UNL     1      43.544 -14.918   2.678  1.00  0.00    -0.273 OA
HETATM   21  H   UNL     1      40.518 -15.526   2.108  1.00  0.00     0.170 HD
BRANCH  19  22
HETATM   22  C   UNL     1      42.701 -17.067   1.980  1.00  0.00     0.070 C 
HETATM   23  C   UNL     1      41.548 -17.348   1.023  1.00  0.00     0.019 C 
HETATM   24  C   UNL     1      44.051 -17.359   1.338  1.00  0.00     0.019 C 
ENDBRANCH  19  22
ENDBRANCH   4  18
BRANCH   5  25
HETATM   25  C   UNL     1      40.396 -15.329   5.841  1.00  0.00     0.169 C 
BRANCH  25  26
HETATM   26  C   UNL     1      41.623 -16.210   5.830  1.00  0.00    -0.040 A 
HETATM   27  C   UNL     1      42.913 -15.779   6.164  1.00  0.00     0.011 A 
HETATM   28  C   UNL     1      44.002 -16.652   6.060  1.00  0.00     0.037 A 
HETATM   29  C   UNL     1      43.831 -17.966   5.621  1.00  0.00     0.068 A 
HETATM   30  C   UNL     1      42.553 -18.409   5.298  1.00  0.00     0.037 A 
HETATM   31  C   UNL     1      41.462 -17.540   5.404  1.00  0.00     0.011 A 
BRANCH  29  32
HETATM   32  O   UNL     1      44.981 -18.702   5.549  1.00  0.00    -0.356 OA
HETATM   33  C   UNL     1      44.941 -19.884   4.758  1.00  0.00     0.210 C 
ENDBRANCH  29  32
ENDBRANCH  25  26
ENDBRANCH   5  25
TORSDOF 6
ENDMDL
MODEL 3
REMARK VINA RESULT:      -7.8      2.389      6.986
REMARK  6 active torsions:
REMARK  status: ('A' for Active; 'I' for Inactive)
REMARK    1  A    between atoms: C_3  and  C_4 
REMARK    2  A    between atoms: C_14  and  N_15 
REMARK       I    between atoms: N_15  and  C_16 
REMARK    3  A    between atoms: C_16  and  C_17 
REMARK    4  A    between atoms: N_21  and  C_22 
REMARK    5  A    between atoms: C_22  and  C_23 
REMARK    6  A    between atoms: C_26  and  O_27 
ROOT
HETATM    1  C   UNL     1      41.255 -16.570  -0.007  1.00  0.00     0.051 C 
HETATM    2  C   UNL     1      41.707 -15.731   1.140  1.00  0.00    -0.022 A 
HETATM    3  C   UNL     1      42.376 -16.163   2.320  1.00  0.00     0.062 A 
HETATM    4  C   UNL     1      42.527 -15.077   3.172  1.00  0.00     0.125 A 
HETATM    5  N   UNL     1      42.042 -13.964   2.510  1.00  0.00    -0.332 N 
HETATM    6  C   UNL     1      41.528 -14.360   1.273  1.00  0.00     0.017 A 
HETATM    7  C   UNL     1      40.861 -13.402   0.333  1.00  0.00     0.069 C 
ENDROOT
BRANCH   3   8
HETATM    8  C   UNL     1      42.877 -17.532   2.672  1.00  0.00     0.143 A 
HETATM    9  N   UNL     1      43.420 -17.820   3.845  1.00  0.00    -0.228 NA
HETATM   10  C   UNL     1      43.872 -19.117   3.728  1.00  0.00     0.086 A 
HETATM   11  C   UNL     1      43.551 -19.643   2.483  1.00  0.00     0.062 A 
HETATM   12  C   UNL     1      44.582 -19.910   4.641  1.00  0.00     0.034 A 
HETATM   13  N   UNL     1      42.898 -18.623   1.843  1.00  0.00    -0.338 N 
HETATM   14  C   UNL     1      43.895 -20.935   2.079  1.00  0.00     0.032 A 
HETATM   15  H   UNL     1      42.562 -18.657   0.894  1.00  0.00     0.167 HD
HETATM   16  C   UNL     1      44.608 -21.709   3.000  1.00  0.00     0.002 A 
HETATM   17  C   UNL     1      44.948 -21.208   4.259  1.00  0.00     0.002 A 
ENDBRANCH   3   8
BRANCH   4  18
HETATM   18  N   UNL     1      43.002 -15.277   4.466  1.00  0.00    -0.312 N 
HETATM   19  C   UNL     1      43.890 -14.469   5.224  1.00  0.00     0.226 C 
HETATM   20  O   UNL     1      44.705 -13.747   4.672  1.00  0.00    -0.273 OA
HETATM   21  H   UNL     1      42.737 -16.187   4.856  1.00  0.00     0.170 HD
BRANCH  19  22
HETATM   22  C   UNL     1      43.763 -14.576   6.731  1.00  0.00     0.070 C 
HETATM   23  C   UNL     1      43.854 -16.046   7.129  1.00  0.00     0.019 C 
HETATM   24  C   UNL     1      44.783 -13.727   7.476  1.00  0.00     0.019 C 
ENDBRANCH  19  22
ENDBRANCH   4  18
BRANCH   5  25
HETATM   25  C   UNL     1      41.972 -12.583   2.984  1.00  0.00     0.169 C 
BRANCH  25  26
HETATM   26  C   UNL     1      41.194 -12.365   4.260  1.00  0.00    -0.040 A 
HETATM   27  C   UNL     1      41.684 -11.688   5.384  1.00  0.00     0.011 A 
HETATM   28  C   UNL     1      40.913 -11.592   6.548  1.00  0.00     0.037 A 
HETATM   29  C   UNL     1      39.644 -12.169   6.619  1.00  0.00     0.068 A 
HETATM   30  C   UNL     1      39.141 -12.835   5.506  1.00  0.00     0.037 A 
HETATM   31  C   UNL     1      39.908 -12.928   4.340  1.00  0.00     0.011 A 
BRANCH  29  32
HETATM   32  O   UNL     1      39.010 -12.017   7.821  1.00  0.00    -0.356 OA
HETATM   33  C   UNL     1      39.341 -10.861   8.583  1.00  0.00     0.210 C 
ENDBRANCH  29  32
ENDBRANCH  25  26
ENDBRANCH   5  25
TORSDOF 6
ENDMDL
MODEL 4
REMARK VINA RESULT:      -7.6      2.341      7.665
REMARK  6 active torsions:
REMARK  status: ('A' for Active; 'I' for Inactive)
REMARK    1  A    between atoms: C_3  and  C_4 
REMARK    2  A    between atoms: C_14  and  N_15 
REMARK       I    between atoms: N_15  and  C_16 
REMARK    3  A    between atoms: C_16  and  C_17 
REMARK    4  A    between atoms: N_21  and  C_22 
REMARK    5  A    between atoms: C_22  and  C_23 
REMARK    6  A    between atoms: C_26  and  O_27 
ROOT
HETATM    1  C   UNL     1      43.492 -18.257   0.993  1.00  0.00     0.051 C 
HETATM    2  C   UNL     1      42.720 -17.384   1.924  1.00  0.00    -0.022 A 
HETATM    3  C   UNL     1      41.988 -16.206   1.603  1.00  0.00     0.062 A 
HETATM    4  C   UNL     1      41.500 -15.648   2.777  1.00  0.00     0.125 A 
HETATM    5  N   UNL     1      41.842 -16.501   3.811  1.00  0.00    -0.332 N 
HETATM    6  C   UNL     1      42.599 -17.557   3.297  1.00  0.00     0.017 A 
HETATM    7  C   UNL     1      43.187 -18.624   4.167  1.00  0.00     0.069 C 
ENDROOT
BRANCH   3   8
HETATM    8  C   UNL     1      41.727 -15.597   0.257  1.00  0.00     0.143 A 
HETATM    9  N   UNL     1      41.976 -14.324  -0.016  1.00  0.00    -0.228 NA
HETATM   10  C   UNL     1      41.480 -14.122  -1.285  1.00  0.00     0.086 A 
HETATM   11  C   UNL     1      40.970 -15.301  -1.812  1.00  0.00     0.062 A 
HETATM   12  C   UNL     1      41.414 -12.948  -2.051  1.00  0.00     0.034 A 
HETATM   13  N   UNL     1      41.163 -16.226  -0.821  1.00  0.00    -0.338 N 
HETATM   14  C   UNL     1      40.390 -15.393  -3.080  1.00  0.00     0.032 A 
HETATM   15  H   UNL     1      40.866 -17.188  -0.861  1.00  0.00     0.167 HD
HETATM   16  C   UNL     1      40.328 -14.213  -3.826  1.00  0.00     0.002 A 
HETATM   17  C   UNL     1      40.829 -13.009  -3.323  1.00  0.00     0.002 A 
ENDBRANCH   3   8
BRANCH   4  18
HETATM   18  N   UNL     1      40.893 -14.395   2.743  1.00  0.00    -0.312 N 
HETATM   19  C   UNL     1      39.515 -14.077   2.613  1.00  0.00     0.226 C 
HETATM   20  O   UNL     1      38.747 -14.840   2.053  1.00  0.00    -0.273 OA
HETATM   21  H   UNL     1      41.565 -13.622   2.709  1.00  0.00     0.170 HD
BRANCH  19  22
HETATM   22  C   UNL     1      39.084 -12.745   3.197  1.00  0.00     0.070 C 
HETATM   23  C   UNL     1      40.307 -12.044   3.779  1.00  0.00     0.019 C 
HETATM   24  C   UNL     1      38.355 -11.863   2.192  1.00  0.00     0.019 C 
ENDBRANCH  19  22
ENDBRANCH   4  18
BRANCH   5  25
HETATM   25  C   UNL     1      41.563 -16.355   5.238  1.00  0.00     0.169 C 
BRANCH  25  26
HETATM   26  C   UNL     1      42.530 -15.492   6.012  1.00  0.00    -0.040 A 
HETATM   27  C   UNL     1      42.678 -14.110   5.838  1.00  0.00     0.011 A 
HETATM   28  C   UNL     1      43.650 -13.403   6.556  1.00  0.00     0.037 A 
HETATM   29  C   UNL     1      44.493 -14.054   7.456  1.00  0.00     0.068 A 
HETATM   30  C   UNL     1      44.349 -15.425   7.647  1.00  0.00     0.037 A 
HETATM   31  C   UNL     1      43.376 -16.133   6.934  1.00  0.00     0.011 A 
BRANCH  29  32
HETATM   32  O   UNL     1      45.408 -13.247   8.074  1.00  0.00    -0.356 OA
HETATM   33  C   UNL     1      44.932 -12.426   9.135  1.00  0.00     0.210 C 
ENDBRANCH  29  32
ENDBRANCH  25  26
ENDBRANCH   5  25
TORSDOF 6
ENDMDL
MODEL 5
REMARK VINA RESULT:      -7.5      2.685      7.507
REMARK  6 active torsions:
REMARK  status: ('A' for Active; 'I' for Inactive)
REMARK    1  A    between atoms: C_3  and  C_4 
REMARK    2  A    between atoms: C_14  and  N_15 
REMARK       I    between atoms: N_15  and  C_16 
REMARK    3  A    between atoms: C_16  and  C_17 
REMARK    4  A    between atoms: N_21  and  C_22 
REMARK    5  A    between atoms: C_22  and  C_23 
REMARK    6  A    between atoms: C_26  and  O_27 
ROOT
HETATM    1  C   UNL     1      39.705 -14.528   3.240  1.00  0.00     0.051 C 
HETATM    2  C   UNL     1      40.562 -13.759   4.186  1.00  0.00    -0.022 A 
HETATM    3  C   UNL     1      41.625 -14.254   4.993  1.00  0.00     0.062 A 
HETATM    4  C   UNL     1      42.094 -13.224   5.798  1.00  0.00     0.125 A 
HETATM    5  N   UNL     1      41.401 -12.079   5.446  1.00  0.00    -0.332 N 
HETATM    6  C   UNL     1      40.455 -12.403   4.471  1.00  0.00     0.017 A 
HETATM    7  C   UNL     1      39.488 -11.399   3.921  1.00  0.00     0.069 C 
ENDROOT
BRANCH   3   8
HETATM    8  C   UNL     1      42.213 -15.633   5.034  1.00  0.00     0.143 A 
HETATM    9  N   UNL     1      42.304 -16.343   6.148  1.00  0.00    -0.228 NA
HETATM   10  C   UNL     1      43.015 -17.472   5.803  1.00  0.00     0.086 A 
HETATM   11  C   UNL     1      43.315 -17.473   4.447  1.00  0.00     0.062 A 
HETATM   12  C   UNL     1      43.457 -18.538   6.600  1.00  0.00     0.034 A 
HETATM   13  N   UNL     1      42.772 -16.306   3.979  1.00  0.00    -0.338 N 
HETATM   14  C   UNL     1      44.039 -18.488   3.817  1.00  0.00     0.032 A 
HETATM   15  H   UNL     1      42.845 -15.972   3.031  1.00  0.00     0.167 HD
HETATM   16  C   UNL     1      44.478 -19.539   4.628  1.00  0.00     0.002 A 
HETATM   17  C   UNL     1      44.195 -19.566   5.997  1.00  0.00     0.002 A 
ENDBRANCH   3   8
BRANCH   4  18
HETATM   18  N   UNL     1      43.022 -13.500   6.799  1.00  0.00    -0.312 N 
HETATM   19  C   UNL     1      44.440 -13.501   6.722  1.00  0.00     0.226 C 
HETATM   20  O   UNL     1      45.009 -13.714   5.665  1.00  0.00    -0.273 OA
HETATM   21  H   UNL     1      42.592 -13.840   7.664  1.00  0.00     0.170 HD
BRANCH  19  22
HETATM   22  C   UNL     1      45.175 -13.238   8.023  1.00  0.00     0.070 C 
HETATM   23  C   UNL     1      46.509 -12.571   7.707  1.00  0.00     0.019 C 
HETATM   24  C   UNL     1      44.356 -12.420   9.013  1.00  0.00     0.019 C 
ENDBRANCH  19  22
ENDBRANCH   4  18
BRANCH   5  25
HETATM   25  C   UNL     1      41.525 -10.735   6.006  1.00  0.00     0.169 C 
BRANCH  25  26
HETATM   26  C   UNL     1      41.055 -10.570   7.432  1.00  0.00    -0.040 A 
HETATM   27  C   UNL     1      41.811  -9.988   8.456  1.00  0.00     0.011 A 
HETATM   28  C   UNL     1      41.316  -9.939   9.765  1.00  0.00     0.037 A 
HETATM   29  C   UNL     1      40.065 -10.469  10.081  1.00  0.00     0.068 A 
HETATM   30  C   UNL     1      39.299 -11.041   9.070  1.00  0.00     0.037 A 
HETATM   31  C   UNL     1      39.789 -11.087   7.760  1.00  0.00     0.011 A 
BRANCH  29  32
HETATM   32  O   UNL     1      39.716 -10.372  11.399  1.00  0.00    -0.356 OA
HETATM   33  C   UNL     1      40.401 -11.220  12.312  1.00  0.00     0.210 C 
ENDBRANCH  29  32
ENDBRANCH  25  26
ENDBRANCH   5  25
TORSDOF 6
ENDMDL
MODEL 6
REMARK VINA RESULT:      -7.4      3.327      6.273
REMARK  6 active torsions:
REMARK  status: ('A' for Active; 'I' for Inactive)
REMARK    1  A    between atoms: C_3  and  C_4 
REMARK    2  A    between atoms: C_14  and  N_15 
REMARK       I    between atoms: N_15  and  C_16 
REMARK    3  A    between atoms: C_16  and  C_17 
REMARK    4  A    between atoms: N_21  and  C_22 
REMARK    5  A    between atoms: C_22  and  C_23 
REMARK    6  A    between atoms: C_26  and  O_27 
ROOT
HETATM    1  C   UNL     1      39.024 -11.785   4.156  1.00  0.00     0.051 C 
HETATM    2  C   UNL     1      38.997 -12.722   2.996  1.00  0.00    -0.022 A 
HETATM    3  C   UNL     1      39.677 -13.966   2.869  1.00  0.00     0.062 A 
HETATM    4  C   UNL     1      39.457 -14.469   1.594  1.00  0.00     0.125 A 
HETATM    5  N   UNL     1      38.584 -13.606   0.956  1.00  0.00    -0.332 N 
HETATM    6  C   UNL     1      38.310 -12.529   1.803  1.00  0.00     0.017 A 
HETATM    7  C   UNL     1      37.450 -11.376   1.388  1.00  0.00     0.069 C 
ENDROOT
BRANCH   3   8
HETATM    8  C   UNL     1      40.508 -14.693   3.885  1.00  0.00     0.143 A 
HETATM    9  N   UNL     1      41.831 -14.728   3.838  1.00  0.00    -0.228 NA
HETATM   10  C   UNL     1      42.208 -15.594   4.842  1.00  0.00     0.086 A 
HETATM   11  C   UNL     1      41.099 -16.051   5.543  1.00  0.00     0.062 A 
HETATM   12  C   UNL     1      43.482 -16.054   5.205  1.00  0.00     0.034 A 
HETATM   13  N   UNL     1      40.036 -15.443   4.930  1.00  0.00    -0.338 N 
HETATM   14  C   UNL     1      41.177 -16.951   6.608  1.00  0.00     0.032 A 
HETATM   15  H   UNL     1      39.069 -15.590   5.168  1.00  0.00     0.167 HD
HETATM   16  C   UNL     1      42.454 -17.404   6.953  1.00  0.00     0.002 A 
HETATM   17  C   UNL     1      43.589 -16.966   6.265  1.00  0.00     0.002 A 
ENDBRANCH   3   8
BRANCH   4  18
HETATM   18  N   UNL     1      40.156 -15.596   1.168  1.00  0.00    -0.312 N 
HETATM   19  C   UNL     1      41.443 -15.673   0.574  1.00  0.00     0.226 C 
HETATM   20  O   UNL     1      41.897 -14.735  -0.059  1.00  0.00    -0.273 OA
HETATM   21  H   UNL     1      39.600 -16.456   1.213  1.00  0.00     0.170 HD
BRANCH  19  22
HETATM   22  C   UNL     1      42.186 -16.981   0.768  1.00  0.00     0.070 C 
HETATM   23  C   UNL     1      43.560 -16.683   1.357  1.00  0.00     0.019 C 
HETATM   24  C   UNL     1      41.414 -17.983   1.616  1.00  0.00     0.019 C 
ENDBRANCH  19  22
ENDBRANCH   4  18
BRANCH   5  25
HETATM   25  C   UNL     1      38.052 -13.692  -0.402  1.00  0.00     0.169 C 
BRANCH  25  26
HETATM   26  C   UNL     1      39.017 -13.342  -1.510  1.00  0.00    -0.040 A 
HETATM   27  C   UNL     1      39.429 -14.227  -2.515  1.00  0.00     0.011 A 
HETATM   28  C   UNL     1      40.380 -13.832  -3.463  1.00  0.00     0.037 A 
HETATM   29  C   UNL     1      40.940 -12.555  -3.430  1.00  0.00     0.068 A 
HETATM   30  C   UNL     1      40.531 -11.662  -2.444  1.00  0.00     0.037 A 
HETATM   31  C   UNL     1      39.578 -12.053  -1.498  1.00  0.00     0.011 A 
BRANCH  29  32
HETATM   32  O   UNL     1      41.869 -12.310  -4.403  1.00  0.00    -0.356 OA
HETATM   33  C   UNL     1      42.315 -10.965  -4.545  1.00  0.00     0.210 C 
ENDBRANCH  29  32
ENDBRANCH  25  26
ENDBRANCH   5  25
TORSDOF 6
ENDMDL
MODEL 7
REMARK VINA RESULT:      -7.4      2.307      5.524
REMARK  6 active torsions:
REMARK  status: ('A' for Active; 'I' for Inactive)
REMARK    1  A    between atoms: C_3  and  C_4 
REMARK    2  A    between atoms: C_14  and  N_15 
REMARK       I    between atoms: N_15  and  C_16 
REMARK    3  A    between atoms: C_16  and  C_17 
REMARK    4  A    between atoms: N_21  and  C_22 
REMARK    5  A    between atoms: C_22  and  C_23 
REMARK    6  A    between atoms: C_26  and  O_27 
ROOT
HETATM    1  C   UNL     1      44.388 -14.568   7.286  1.00  0.00     0.051 C 
HETATM    2  C   UNL     1      43.265 -14.670   6.310  1.00  0.00    -0.022 A 
HETATM    3  C   UNL     1      42.866 -15.814   5.562  1.00  0.00     0.062 A 
HETATM    4  C   UNL     1      41.839 -15.450   4.701  1.00  0.00     0.125 A 
HETATM    5  N   UNL     1      41.534 -14.126   4.961  1.00  0.00    -0.332 N 
HETATM    6  C   UNL     1      42.411 -13.640   5.933  1.00  0.00     0.017 A 
HETATM    7  C   UNL     1      42.395 -12.215   6.393  1.00  0.00     0.069 C 
ENDROOT
BRANCH   3   8
HETATM    8  C   UNL     1      43.400 -17.214   5.626  1.00  0.00     0.143 A 
HETATM    9  N   UNL     1      44.180 -17.729   4.688  1.00  0.00    -0.228 NA
HETATM   10  C   UNL     1      44.337 -19.054   5.033  1.00  0.00     0.086 A 
HETATM   11  C   UNL     1      43.686 -19.335   6.227  1.00  0.00     0.062 A 
HETATM   12  C   UNL     1      45.012 -20.086   4.365  1.00  0.00     0.034 A 
HETATM   13  N   UNL     1      43.121 -18.143   6.593  1.00  0.00    -0.338 N 
HETATM   14  C   UNL     1      43.664 -20.602   6.815  1.00  0.00     0.032 A 
HETATM   15  H   UNL     1      42.536 -18.004   7.401  1.00  0.00     0.167 HD
HETATM   16  C   UNL     1      44.336 -21.621   6.131  1.00  0.00     0.002 A 
HETATM   17  C   UNL     1      44.998 -21.371   4.926  1.00  0.00     0.002 A 
ENDBRANCH   3   8
BRANCH   4  18
HETATM   18  N   UNL     1      41.392 -16.355   3.742  1.00  0.00    -0.312 N 
HETATM   19  C   UNL     1      41.950 -16.654   2.470  1.00  0.00     0.226 C 
HETATM   20  O   UNL     1      42.617 -15.827   1.870  1.00  0.00    -0.273 OA
HETATM   21  H   UNL     1      40.485 -16.771   3.972  1.00  0.00     0.170 HD
BRANCH  19  22
HETATM   22  C   UNL     1      41.651 -18.036   1.923  1.00  0.00     0.070 C 
HETATM   23  C   UNL     1      40.731 -17.898   0.715  1.00  0.00     0.019 C 
HETATM   24  C   UNL     1      42.908 -18.827   1.586  1.00  0.00     0.019 C 
ENDBRANCH  19  22
ENDBRANCH   4  18
BRANCH   5  25
HETATM   25  C   UNL     1      40.531 -13.282   4.315  1.00  0.00     0.169 C 
BRANCH  25  26
HETATM   26  C   UNL     1      40.631 -13.173   2.812  1.00  0.00    -0.040 A 
HETATM   27  C   UNL     1      39.730 -13.754   1.911  1.00  0.00     0.011 A 
HETATM   28  C   UNL     1      39.941 -13.654   0.531  1.00  0.00     0.037 A 
HETATM   29  C   UNL     1      41.051 -12.979   0.021  1.00  0.00     0.068 A 
HETATM   30  C   UNL     1      41.947 -12.388   0.906  1.00  0.00     0.037 A 
HETATM   31  C   UNL     1      41.736 -12.482   2.285  1.00  0.00     0.011 A 
BRANCH  29  32
HETATM   32  O   UNL     1      41.145 -12.976  -1.343  1.00  0.00    -0.356 OA
HETATM   33  C   UNL     1      40.892 -14.207  -2.010  1.00  0.00     0.210 C 
ENDBRANCH  29  32
ENDBRANCH  25  26
ENDBRANCH   5  25
TORSDOF 6
ENDMDL
MODEL 8
REMARK VINA RESULT:      -7.3      4.185      7.480
REMARK  6 active torsions:
REMARK  status: ('A' for Active; 'I' for Inactive)
REMARK    1  A    between atoms: C_3  and  C_4 
REMARK    2  A    between atoms: C_14  and  N_15 
REMARK       I    between atoms: N_15  and  C_16 
REMARK    3  A    between atoms: C_16  and  C_17 
REMARK    4  A    between atoms: N_21  and  C_22 
REMARK    5  A    between atoms: C_22  and  C_23 
REMARK    6  A    between atoms: C_26  and  O_27 
ROOT
HETATM    1  C   UNL     1      40.933 -11.500   3.782  1.00  0.00     0.051 C 
HETATM    2  C   UNL     1      40.909 -12.752   2.972  1.00  0.00    -0.022 A 
HETATM    3  C   UNL     1      41.133 -12.885   1.572  1.00  0.00     0.062 A 
HETATM    4  C   UNL     1      40.921 -14.208   1.209  1.00  0.00     0.125 A 
HETATM    5  N   UNL     1      40.656 -14.915   2.367  1.00  0.00    -0.332 N 
HETATM    6  C   UNL     1      40.633 -14.028   3.446  1.00  0.00     0.017 A 
HETATM    7  C   UNL     1      40.303 -14.464   4.840  1.00  0.00     0.069 C 
ENDROOT
BRANCH   3   8
HETATM    8  C   UNL     1      41.536 -11.836   0.579  1.00  0.00     0.143 A 
HETATM    9  N   UNL     1      42.795 -11.628   0.223  1.00  0.00    -0.228 NA
HETATM   10  C   UNL     1      42.766 -10.510  -0.582  1.00  0.00     0.086 A 
HETATM   11  C   UNL     1      41.463 -10.062  -0.761  1.00  0.00     0.062 A 
HETATM   12  C   UNL     1      43.818  -9.807  -1.187  1.00  0.00     0.034 A 
HETATM   13  N   UNL     1      40.702 -10.937  -0.033  1.00  0.00    -0.338 N 
HETATM   14  C   UNL     1      41.131  -8.939  -1.521  1.00  0.00     0.032 A 
HETATM   15  H   UNL     1      39.704 -10.874   0.087  1.00  0.00     0.167 HD
HETATM   16  C   UNL     1      42.193  -8.246  -2.111  1.00  0.00     0.002 A 
HETATM   17  C   UNL     1      43.515  -8.670  -1.948  1.00  0.00     0.002 A 
ENDBRANCH   3   8
BRANCH   4  18
HETATM   18  N   UNL     1      40.914 -14.559  -0.139  1.00  0.00    -0.312 N 
HETATM   19  C   UNL     1      39.939 -14.267  -1.130  1.00  0.00     0.226 C 
HETATM   20  O   UNL     1      38.774 -14.076  -0.824  1.00  0.00    -0.273 OA
HETATM   21  H   UNL     1      41.676 -15.194  -0.395  1.00  0.00     0.170 HD
BRANCH  19  22
HETATM   22  C   UNL     1      40.439 -14.225  -2.561  1.00  0.00     0.070 C 
HETATM   23  C   UNL     1      41.791 -13.520  -2.589  1.00  0.00     0.019 C 
HETATM   24  C   UNL     1      40.508 -15.602  -3.207  1.00  0.00     0.019 C 
ENDBRANCH  19  22
ENDBRANCH   4  18
BRANCH   5  25
HETATM   25  C   UNL     1      40.360 -16.339   2.513  1.00  0.00     0.169 C 
BRANCH  25  26
HETATM   26  C   UNL     1      41.557 -17.250   2.642  1.00  0.00    -0.040 A 
HETATM   27  C   UNL     1      42.277 -17.775   1.561  1.00  0.00     0.011 A 
HETATM   28  C   UNL     1      43.334 -18.667   1.777  1.00  0.00     0.037 A 
HETATM   29  C   UNL     1      43.694 -19.056   3.068  1.00  0.00     0.068 A 
HETATM   30  C   UNL     1      42.994 -18.533   4.151  1.00  0.00     0.037 A 
HETATM   31  C   UNL     1      41.940 -17.638   3.938  1.00  0.00     0.011 A 
BRANCH  29  32
HETATM   32  O   UNL     1      44.730 -19.945   3.132  1.00  0.00    -0.356 OA
HETATM   33  C   UNL     1      44.518 -21.225   2.547  1.00  0.00     0.210 C 
ENDBRANCH  29  32
ENDBRANCH  25  26
ENDBRANCH   5  25
TORSDOF 6
ENDMDL
MODEL 9
REMARK VINA RESULT:      -7.3      3.149      5.437
REMARK  6 active torsions:
REMARK  status: ('A' for Active; 'I' for Inactive)
REMARK    1  A    between atoms: C_3  and  C_4 
REMARK    2  A    between atoms: C_14  and  N_15 
REMARK       I    between atoms: N_15  and  C_16 
REMARK    3  A    between atoms: C_16  and  C_17 
REMARK    4  A    between atoms: N_21  and  C_22 
REMARK    5  A    between atoms: C_22  and  C_23 
REMARK    6  A    between atoms: C_26  and  O_27 
ROOT
HETATM    1  C   UNL     1      40.678 -12.400   5.475  1.00  0.00     0.051 C 
HETATM    2  C   UNL     1      40.393 -13.308   4.327  1.00  0.00    -0.022 A 
HETATM    3  C   UNL     1      40.939 -14.601   4.088  1.00  0.00     0.062 A 
HETATM    4  C   UNL     1      40.484 -15.058   2.858  1.00  0.00     0.125 A 
HETATM    5  N   UNL     1      39.600 -14.113   2.370  1.00  0.00    -0.332 N 
HETATM    6  C   UNL     1      39.551 -13.035   3.257  1.00  0.00     0.017 A 
HETATM    7  C   UNL     1      38.737 -11.807   2.988  1.00  0.00     0.069 C 
ENDROOT
BRANCH   3   8
HETATM    8  C   UNL     1      41.852 -15.413   4.956  1.00  0.00     0.143 A 
HETATM    9  N   UNL     1      43.002 -15.909   4.525  1.00  0.00    -0.228 NA
HETATM   10  C   UNL     1      43.469 -16.696   5.556  1.00  0.00     0.086 A 
HETATM   11  C   UNL     1      42.615 -16.636   6.650  1.00  0.00     0.062 A 
HETATM   12  C   UNL     1      44.610 -17.508   5.625  1.00  0.00     0.034 A 
HETATM   13  N   UNL     1      41.611 -15.794   6.251  1.00  0.00    -0.338 N 
HETATM   14  C   UNL     1      42.829 -17.343   7.836  1.00  0.00     0.032 A 
HETATM   15  H   UNL     1      40.798 -15.563   6.798  1.00  0.00     0.167 HD
HETATM   16  C   UNL     1      43.968 -18.152   7.884  1.00  0.00     0.002 A 
HETATM   17  C   UNL     1      44.845 -18.237   6.799  1.00  0.00     0.002 A 
ENDBRANCH   3   8
BRANCH   4  18
HETATM   18  N   UNL     1      41.012 -16.229   2.321  1.00  0.00    -0.312 N 
HETATM   19  C   UNL     1      42.000 -16.380   1.312  1.00  0.00     0.226 C 
HETATM   20  O   UNL     1      42.172 -15.515   0.470  1.00  0.00    -0.273 OA
HETATM   21  H   UNL     1      40.533 -17.074   2.646  1.00  0.00     0.170 HD
BRANCH  19  22
HETATM   22  C   UNL     1      42.797 -17.670   1.352  1.00  0.00     0.070 C 
HETATM   23  C   UNL     1      44.282 -17.329   1.407  1.00  0.00     0.019 C 
HETATM   24  C   UNL     1      42.387 -18.587   2.495  1.00  0.00     0.019 C 
ENDBRANCH  19  22
ENDBRANCH   4  18
BRANCH   5  25
HETATM   25  C   UNL     1      38.860 -14.128   1.109  1.00  0.00     0.169 C 
BRANCH  25  26
HETATM   26  C   UNL     1      39.623 -13.659  -0.107  1.00  0.00    -0.040 A 
HETATM   27  C   UNL     1      40.499 -12.567  -0.124  1.00  0.00     0.011 A 
HETATM   28  C   UNL     1      41.111 -12.165  -1.317  1.00  0.00     0.037 A 
HETATM   29  C   UNL     1      40.863 -12.838  -2.514  1.00  0.00     0.068 A 
HETATM   30  C   UNL     1      40.003 -13.933  -2.509  1.00  0.00     0.037 A 
HETATM   31  C   UNL     1      39.394 -14.338  -1.317  1.00  0.00     0.011 A 
BRANCH  29  32
HETATM   32  O   UNL     1      41.511 -12.329  -3.605  1.00  0.00    -0.356 OA
HETATM   33  C   UNL     1      41.205 -10.987  -3.968  1.00  0.00     0.210 C 
ENDBRANCH  29  32
ENDBRANCH  25  26
ENDBRANCH   5  25
TORSDOF 6
ENDMDL
MODEL 10
REMARK VINA RESULT:      -7.1      2.667      7.555
REMARK  6 active torsions:
REMARK  status: ('A' for Active; 'I' for Inactive)
REMARK    1  A    between atoms: C_3  and  C_4 
REMARK    2  A    between atoms: C_14  and  N_15 
REMARK       I    between atoms: N_15  and  C_16 
REMARK    3  A    between atoms: C_16  and  C_17 
REMARK    4  A    between atoms: N_21  and  C_22 
REMARK    5  A    between atoms: C_22  and  C_23 
REMARK    6  A    between atoms: C_26  and  O_27 
ROOT
HETATM    1  C   UNL     1      38.603 -14.520   1.509  1.00  0.00     0.051 C 
HETATM    2  C   UNL     1      39.576 -13.699   2.286  1.00  0.00    -0.022 A 
HETATM    3  C   UNL     1      40.828 -14.113   2.822  1.00  0.00     0.062 A 
HETATM    4  C   UNL     1      41.368 -13.066   3.557  1.00  0.00     0.125 A 
HETATM    5  N   UNL     1      40.519 -11.984   3.417  1.00  0.00    -0.332 N 
HETATM    6  C   UNL     1      39.415 -12.368   2.652  1.00  0.00     0.017 A 
HETATM    7  C   UNL     1      38.269 -11.446   2.371  1.00  0.00     0.069 C 
ENDROOT
BRANCH   3   8
HETATM    8  C   UNL     1      41.528 -15.430   2.670  1.00  0.00     0.143 A 
HETATM    9  N   UNL     1      41.537 -16.354   3.619  1.00  0.00    -0.228 NA
HETATM   10  C   UNL     1      42.387 -17.338   3.161  1.00  0.00     0.086 A 
HETATM   11  C   UNL     1      42.860 -17.032   1.891  1.00  0.00     0.062 A 
HETATM   12  C   UNL     1      42.817 -18.519   3.783  1.00  0.00     0.034 A 
HETATM   13  N   UNL     1      42.279 -15.828   1.594  1.00  0.00    -0.338 N 
HETATM   14  C   UNL     1      43.749 -17.844   1.183  1.00  0.00     0.032 A 
HETATM   15  H   UNL     1      42.444 -15.297   0.755  1.00  0.00     0.167 HD
HETATM   16  C   UNL     1      44.172 -19.014   1.821  1.00  0.00     0.002 A 
HETATM   17  C   UNL     1      43.717 -19.348   3.099  1.00  0.00     0.002 A 
ENDBRANCH   3   8
BRANCH   4  18
HETATM   18  N   UNL     1      42.513 -13.281   4.322  1.00  0.00    -0.312 N 
HETATM   19  C   UNL     1      42.632 -13.913   5.588  1.00  0.00     0.226 C 
HETATM   20  O   UNL     1      41.695 -13.932   6.369  1.00  0.00    -0.273 OA
HETATM   21  H   UNL     1      43.345 -12.823   3.939  1.00  0.00     0.170 HD
BRANCH  19  22
HETATM   22  C   UNL     1      43.980 -14.536   5.894  1.00  0.00     0.070 C 
HETATM   23  C   UNL     1      44.695 -13.677   6.931  1.00  0.00     0.019 C 
HETATM   24  C   UNL     1      43.877 -15.988   6.340  1.00  0.00     0.019 C 
ENDBRANCH  19  22
ENDBRANCH   4  18
BRANCH   5  25
HETATM   25  C   UNL     1      40.644 -10.650   4.002  1.00  0.00     0.169 C 
BRANCH  25  26
HETATM   26  C   UNL     1      40.642 -10.591   5.511  1.00  0.00    -0.040 A 
HETATM   27  C   UNL     1      41.689 -10.078   6.288  1.00  0.00     0.011 A 
HETATM   28  C   UNL     1      41.625 -10.126   7.686  1.00  0.00     0.037 A 
HETATM   29  C   UNL     1      40.525 -10.685   8.336  1.00  0.00     0.068 A 
HETATM   30  C   UNL     1      39.473 -11.187   7.576  1.00  0.00     0.037 A 
HETATM   31  C   UNL     1      39.532 -11.137   6.180  1.00  0.00     0.011 A 
BRANCH  29  32
HETATM   32  O   UNL     1      40.603 -10.684   9.701  1.00  0.00    -0.356 OA
HETATM   33  C   UNL     1      41.487  -9.740  10.296  1.00  0.00     0.210 C 
ENDBRANCH  29  32
ENDBRANCH  25  26
ENDBRANCH   5  25
TORSDOF 6
ENDMDL
