MODEL 1
REMARK VINA RESULT:      -9.2      0.000      0.000
REMARK  7 active torsions:
REMARK  status: ('A' for Active; 'I' for Inactive)
REMARK    1  A    between atoms: C_7  and  C_8 
REMARK    2  A    between atoms: C_8  and  N_9 
REMARK    3  A    between atoms: C_13  and  C_14 
REMARK    4  A    between atoms: C_14  and  C_15 
REMARK    5  A    between atoms: C_15  and  C_16 
REMARK    6  A    between atoms: N_26  and  C_27 
REMARK    7  A    between atoms: C_27  and  C_28 
ROOT
HETATM    1  C   UNL     1      42.572 -17.048   2.876  1.00  0.00     0.123 C 
HETATM    2  N   UNL     1      42.706 -15.609   3.041  1.00  0.00    -0.324 N 
HETATM    3  C   UNL     1      42.708 -15.208   4.358  1.00  0.00     0.326 C 
HETATM    4  O   UNL     1      42.905 -14.061   4.711  1.00  0.00    -0.247 OA
HETATM    5  N   UNL     1      42.408 -16.287   5.126  1.00  0.00    -0.268 N 
HETATM    6  C   UNL     1      42.221 -17.386   4.342  1.00  0.00     0.257 C 
HETATM    7  O   UNL     1      41.833 -18.482   4.726  1.00  0.00    -0.270 OA
HETATM    8  H   UNL     1      42.981 -14.952   2.318  1.00  0.00     0.165 HD
ENDROOT
BRANCH   1   9
HETATM    9  C   UNL     1      41.440 -17.361   1.841  1.00  0.00     0.027 C 
HETATM   10  C   UNL     1      41.784 -17.031   0.374  1.00  0.00     0.035 C 
HETATM   11  C   UNL     1      41.630 -15.564   0.002  1.00  0.00     0.235 C 
HETATM   12  N   UNL     1      40.238 -15.077   0.309  1.00  0.00    -0.067 N 
HETATM   13  H   UNL     1      39.610 -15.533  -0.362  1.00  0.00     0.280 HD
HETATM   14  C   UNL     1      39.742 -15.383   1.696  1.00  0.00     0.235 C 
HETATM   15  C   UNL     1      40.032 -16.812   2.125  1.00  0.00     0.035 C 
BRANCH  12  16
HETATM   16  C   UNL     1      40.095 -13.579   0.059  1.00  0.00     0.277 C 
BRANCH  16  17
HETATM   17  C   UNL     1      40.420 -13.160  -1.324  1.00  0.00     0.011 A 
HETATM   18  C   UNL     1      41.475 -12.388  -1.793  1.00  0.00     0.035 A 
HETATM   19  C   UNL     1      42.630 -11.764  -1.098  1.00  0.00     0.070 C 
HETATM   20  N   UNL     1      41.292 -12.302  -3.156  1.00  0.00    -0.278 N 
HETATM   21  C   UNL     1      42.130 -11.638  -4.130  1.00  0.00     0.179 C 
HETATM   22  N   UNL     1      40.196 -12.950  -3.581  1.00  0.00    -0.185 NA
HETATM   23  C   UNL     1      39.688 -13.497  -2.483  1.00  0.00     0.149 A 
ENDBRANCH  16  17
ENDBRANCH  12  16
ENDBRANCH   1   9
BRANCH   1  24
HETATM   24  C   UNL     1      43.959 -17.712   2.608  1.00  0.00     0.082 C 
BRANCH  24  25
HETATM   25  C   UNL     1      44.038 -19.223   2.737  1.00  0.00    -0.034 A 
HETATM   26  C   UNL     1      44.630 -19.890   3.827  1.00  0.00     0.040 A 
HETATM   27 CL   UNL     1      45.366 -19.052   5.144  1.00  0.00    -0.084 Cl
HETATM   28  C   UNL     1      44.683 -21.288   3.869  1.00  0.00     0.024 A 
HETATM   29  C   UNL     1      44.162 -22.047   2.825  1.00  0.00     0.002 A 
HETATM   30  C   UNL     1      43.603 -21.410   1.724  1.00  0.00     0.001 A 
HETATM   31  C   UNL     1      43.554 -20.015   1.677  1.00  0.00     0.009 A 
ENDBRANCH  24  25
ENDBRANCH   1  24
BRANCH   5  32
HETATM   32  C   UNL     1      42.240 -16.248   6.562  1.00  0.00     0.141 C 
BRANCH  32  33
HETATM   33  C   UNL     1      43.458 -16.801   7.236  1.00  0.00     0.004 A 
HETATM   34  C   UNL     1      43.468 -17.050   8.723  1.00  0.00     0.007 A 
HETATM   35  C   UNL     1      43.460 -18.212   7.766  1.00  0.00     0.007 A 
ENDBRANCH  32  33
ENDBRANCH   5  32
TORSDOF 7
ENDMDL
MODEL 2
REMARK VINA RESULT:      -8.9      1.781      2.168
REMARK  7 active torsions:
REMARK  status: ('A' for Active; 'I' for Inactive)
REMARK    1  A    between atoms: C_7  and  C_8 
REMARK    2  A    between atoms: C_8  and  N_9 
REMARK    3  A    between atoms: C_13  and  C_14 
REMARK    4  A    between atoms: C_14  and  C_15 
REMARK    5  A    between atoms: C_15  and  C_16 
REMARK    6  A    between atoms: N_26  and  C_27 
REMARK    7  A    between atoms: C_27  and  C_28 
ROOT
HETATM    1  C   UNL     1      42.868 -16.650   2.678  1.00  0.00     0.123 C 
HETATM    2  N   UNL     1      43.080 -15.244   2.369  1.00  0.00    -0.324 N 
HETATM    3  C   UNL     1      43.177 -14.447   3.487  1.00  0.00     0.326 C 
HETATM    4  O   UNL     1      43.448 -13.262   3.447  1.00  0.00    -0.247 OA
HETATM    5  N   UNL     1      42.871 -15.205   4.571  1.00  0.00    -0.268 N 
HETATM    6  C   UNL     1      42.586 -16.482   4.188  1.00  0.00     0.257 C 
HETATM    7  O   UNL     1      42.170 -17.373   4.918  1.00  0.00    -0.270 OA
HETATM    8  H   UNL     1      43.344 -14.869   1.463  1.00  0.00     0.165 HD
ENDROOT
BRANCH   1   9
HETATM    9  C   UNL     1      41.665 -17.202   1.844  1.00  0.00     0.027 C 
HETATM   10  C   UNL     1      41.758 -16.963   0.323  1.00  0.00     0.035 C 
HETATM   11  C   UNL     1      41.346 -15.569  -0.126  1.00  0.00     0.235 C 
HETATM   12  N   UNL     1      39.953 -15.245   0.345  1.00  0.00    -0.067 N 
HETATM   13  H   UNL     1      39.312 -15.839  -0.194  1.00  0.00     0.280 HD
HETATM   14  C   UNL     1      39.696 -15.487   1.807  1.00  0.00     0.235 C 
HETATM   15  C   UNL     1      40.243 -16.821   2.290  1.00  0.00     0.035 C 
BRANCH  12  16
HETATM   16  C   UNL     1      39.563 -13.808   0.012  1.00  0.00     0.277 C 
BRANCH  16  17
HETATM   17  C   UNL     1      38.845 -13.655  -1.273  1.00  0.00     0.011 A 
HETATM   18  C   UNL     1      37.819 -12.785  -1.619  1.00  0.00     0.035 A 
HETATM   19  C   UNL     1      37.130 -11.714  -0.854  1.00  0.00     0.070 C 
HETATM   20  N   UNL     1      37.518 -13.072  -2.933  1.00  0.00    -0.278 N 
HETATM   21  C   UNL     1      36.544 -12.430  -3.787  1.00  0.00     0.179 C 
HETATM   22  N   UNL     1      38.268 -14.064  -3.439  1.00  0.00    -0.185 NA
HETATM   23  C   UNL     1      39.092 -14.393  -2.451  1.00  0.00     0.149 A 
ENDBRANCH  16  17
ENDBRANCH  12  16
ENDBRANCH   1   9
BRANCH   1  24
HETATM   24  C   UNL     1      44.204 -17.451   2.583  1.00  0.00     0.082 C 
BRANCH  24  25
HETATM   25  C   UNL     1      44.122 -18.957   2.767  1.00  0.00    -0.034 A 
HETATM   26  C   UNL     1      44.509 -19.627   3.942  1.00  0.00     0.040 A 
HETATM   27 CL   UNL     1      45.156 -18.805   5.315  1.00  0.00    -0.084 Cl
HETATM   28  C   UNL     1      44.423 -21.022   4.034  1.00  0.00     0.024 A 
HETATM   29  C   UNL     1      43.963 -21.774   2.956  1.00  0.00     0.002 A 
HETATM   30  C   UNL     1      43.606 -21.135   1.775  1.00  0.00     0.001 A 
HETATM   31  C   UNL     1      43.697 -19.745   1.679  1.00  0.00     0.009 A 
ENDBRANCH  24  25
ENDBRANCH   1  24
BRANCH   5  32
HETATM   32  C   UNL     1      42.788 -14.702   5.925  1.00  0.00     0.141 C 
BRANCH  32  33
HETATM   33  C   UNL     1      44.094 -14.908   6.629  1.00  0.00     0.004 A 
HETATM   34  C   UNL     1      45.249 -13.965   6.400  1.00  0.00     0.007 A 
HETATM   35  C   UNL     1      44.528 -13.964   7.722  1.00  0.00     0.007 A 
ENDBRANCH  32  33
ENDBRANCH   5  32
TORSDOF 7
ENDMDL
MODEL 3
REMARK VINA RESULT:      -8.7      3.404      6.770
REMARK  7 active torsions:
REMARK  status: ('A' for Active; 'I' for Inactive)
REMARK    1  A    between atoms: C_7  and  C_8 
REMARK    2  A    between atoms: C_8  and  N_9 
REMARK    3  A    between atoms: C_13  and  C_14 
REMARK    4  A    between atoms: C_14  and  C_15 
REMARK    5  A    between atoms: C_15  and  C_16 
REMARK    6  A    between atoms: N_26  and  C_27 
REMARK    7  A    between atoms: C_27  and  C_28 
ROOT
HETATM    1  C   UNL     1      42.615 -16.484   3.778  1.00  0.00     0.123 C 
HETATM    2  N   UNL     1      41.453 -17.261   3.377  1.00  0.00    -0.324 N 
HETATM    3  C   UNL     1      40.772 -16.715   2.313  1.00  0.00     0.326 C 
HETATM    4  O   UNL     1      39.831 -17.259   1.766  1.00  0.00    -0.247 OA
HETATM    5  N   UNL     1      41.305 -15.493   2.055  1.00  0.00    -0.268 N 
HETATM    6  C   UNL     1      42.326 -15.232   2.919  1.00  0.00     0.257 C 
HETATM    7  O   UNL     1      42.932 -14.172   3.014  1.00  0.00    -0.270 OA
HETATM    8  H   UNL     1      41.243 -18.210   3.671  1.00  0.00     0.165 HD
ENDROOT
BRANCH   1   9
HETATM    9  C   UNL     1      42.584 -16.240   5.324  1.00  0.00     0.027 C 
HETATM   10  C   UNL     1      41.218 -15.801   5.890  1.00  0.00     0.035 C 
HETATM   11  C   UNL     1      40.906 -14.322   5.716  1.00  0.00     0.235 C 
HETATM   12  N   UNL     1      41.992 -13.471   6.318  1.00  0.00    -0.067 N 
HETATM   13  H   UNL     1      41.926 -13.582   7.336  1.00  0.00     0.280 HD
HETATM   14  C   UNL     1      43.393 -13.825   5.899  1.00  0.00     0.235 C 
HETATM   15  C   UNL     1      43.658 -15.322   5.931  1.00  0.00     0.035 C 
BRANCH  12  16
HETATM   16  C   UNL     1      41.763 -11.987   6.048  1.00  0.00     0.277 C 
BRANCH  16  17
HETATM   17  C   UNL     1      40.917 -11.309   7.058  1.00  0.00     0.011 A 
HETATM   18  C   UNL     1      41.267 -10.753   8.281  1.00  0.00     0.035 A 
HETATM   19  C   UNL     1      42.578 -10.617   8.967  1.00  0.00     0.070 C 
HETATM   20  N   UNL     1      40.095 -10.265   8.814  1.00  0.00    -0.278 N 
HETATM   21  C   UNL     1      39.906  -9.558  10.062  1.00  0.00     0.179 C 
HETATM   22  N   UNL     1      39.029 -10.480   8.026  1.00  0.00    -0.185 NA
HETATM   23  C   UNL     1      39.528 -11.078   6.951  1.00  0.00     0.149 A 
ENDBRANCH  16  17
ENDBRANCH  12  16
ENDBRANCH   1   9
BRANCH   1  24
HETATM   24  C   UNL     1      43.928 -17.100   3.200  1.00  0.00     0.082 C 
BRANCH  24  25
HETATM   25  C   UNL     1      44.018 -18.616   3.157  1.00  0.00    -0.034 A 
HETATM   26  C   UNL     1      44.521 -19.404   4.209  1.00  0.00     0.040 A 
HETATM   27 CL   UNL     1      45.125 -18.726   5.676  1.00  0.00    -0.084 Cl
HETATM   28  C   UNL     1      44.592 -20.798   4.090  1.00  0.00     0.024 A 
HETATM   29  C   UNL     1      44.177 -21.430   2.921  1.00  0.00     0.002 A 
HETATM   30  C   UNL     1      43.708 -20.668   1.858  1.00  0.00     0.001 A 
HETATM   31  C   UNL     1      43.641 -19.278   1.971  1.00  0.00     0.009 A 
ENDBRANCH  24  25
ENDBRANCH   1  24
BRANCH   5  32
HETATM   32  C   UNL     1      40.804 -14.576   1.054  1.00  0.00     0.141 C 
BRANCH  32  33
HETATM   33  C   UNL     1      41.594 -14.717  -0.211  1.00  0.00     0.004 A 
HETATM   34  C   UNL     1      40.998 -15.397  -1.418  1.00  0.00     0.007 A 
HETATM   35  C   UNL     1      41.229 -13.910  -1.431  1.00  0.00     0.007 A 
ENDBRANCH  32  33
ENDBRANCH   5  32
TORSDOF 7
ENDMDL
MODEL 4
REMARK VINA RESULT:      -8.6      1.635      2.517
REMARK  7 active torsions:
REMARK  status: ('A' for Active; 'I' for Inactive)
REMARK    1  A    between atoms: C_7  and  C_8 
REMARK    2  A    between atoms: C_8  and  N_9 
REMARK    3  A    between atoms: C_13  and  C_14 
REMARK    4  A    between atoms: C_14  and  C_15 
REMARK    5  A    between atoms: C_15  and  C_16 
REMARK    6  A    between atoms: N_26  and  C_27 
REMARK    7  A    between atoms: C_27  and  C_28 
ROOT
HETATM    1  C   UNL     1      42.569 -17.060   2.901  1.00  0.00     0.123 C 
HETATM    2  N   UNL     1      42.710 -15.624   3.089  1.00  0.00    -0.324 N 
HETATM    3  C   UNL     1      42.714 -15.244   4.412  1.00  0.00     0.326 C 
HETATM    4  O   UNL     1      42.917 -14.104   4.783  1.00  0.00    -0.247 OA
HETATM    5  N   UNL     1      42.411 -16.334   5.163  1.00  0.00    -0.268 N 
HETATM    6  C   UNL     1      42.217 -17.419   4.361  1.00  0.00     0.257 C 
HETATM    7  O   UNL     1      41.825 -18.520   4.728  1.00  0.00    -0.270 OA
HETATM    8  H   UNL     1      42.988 -14.957   2.376  1.00  0.00     0.165 HD
ENDROOT
BRANCH   1   9
HETATM    9  C   UNL     1      41.435 -17.351   1.861  1.00  0.00     0.027 C 
HETATM   10  C   UNL     1      41.809 -17.078   0.390  1.00  0.00     0.035 C 
HETATM   11  C   UNL     1      41.726 -15.617  -0.024  1.00  0.00     0.235 C 
HETATM   12  N   UNL     1      40.355 -15.059   0.252  1.00  0.00    -0.067 N 
HETATM   13  H   UNL     1      39.713 -15.505  -0.413  1.00  0.00     0.280 HD
HETATM   14  C   UNL     1      39.831 -15.302   1.641  1.00  0.00     0.235 C 
HETATM   15  C   UNL     1      40.051 -16.731   2.113  1.00  0.00     0.035 C 
BRANCH  12  16
HETATM   16  C   UNL     1      40.282 -13.564  -0.041  1.00  0.00     0.277 C 
BRANCH  16  17
HETATM   17  C   UNL     1      39.414 -12.804   0.887  1.00  0.00     0.011 A 
HETATM   18  C   UNL     1      39.736 -12.145   2.067  1.00  0.00     0.035 A 
HETATM   19  C   UNL     1      41.031 -11.950   2.768  1.00  0.00     0.070 C 
HETATM   20  N   UNL     1      38.552 -11.614   2.529  1.00  0.00    -0.278 N 
HETATM   21  C   UNL     1      38.336 -10.804   3.707  1.00  0.00     0.179 C 
HETATM   22  N   UNL     1      37.505 -11.896   1.737  1.00  0.00    -0.185 NA
HETATM   23  C   UNL     1      38.028 -12.583   0.728  1.00  0.00     0.149 A 
ENDBRANCH  16  17
ENDBRANCH  12  16
ENDBRANCH   1   9
BRANCH   1  24
HETATM   24  C   UNL     1      43.953 -17.726   2.621  1.00  0.00     0.082 C 
BRANCH  24  25
HETATM   25  C   UNL     1      44.031 -19.237   2.748  1.00  0.00    -0.034 A 
HETATM   26  C   UNL     1      44.627 -19.906   3.833  1.00  0.00     0.040 A 
HETATM   27 CL   UNL     1      45.372 -19.071   5.147  1.00  0.00    -0.084 Cl
HETATM   28  C   UNL     1      44.679 -21.305   3.873  1.00  0.00     0.024 A 
HETATM   29  C   UNL     1      44.151 -22.062   2.831  1.00  0.00     0.002 A 
HETATM   30  C   UNL     1      43.586 -21.422   1.735  1.00  0.00     0.001 A 
HETATM   31  C   UNL     1      43.538 -20.027   1.689  1.00  0.00     0.009 A 
ENDBRANCH  24  25
ENDBRANCH   1  24
BRANCH   5  32
HETATM   32  C   UNL     1      42.243 -16.317   6.599  1.00  0.00     0.141 C 
BRANCH  32  33
HETATM   33  C   UNL     1      43.477 -16.846   7.265  1.00  0.00     0.004 A 
HETATM   34  C   UNL     1      43.504 -17.088   8.753  1.00  0.00     0.007 A 
HETATM   35  C   UNL     1      43.508 -18.255   7.803  1.00  0.00     0.007 A 
ENDBRANCH  32  33
ENDBRANCH   5  32
TORSDOF 7
ENDMDL
MODEL 5
REMARK VINA RESULT:      -8.5      2.474      3.856
REMARK  7 active torsions:
REMARK  status: ('A' for Active; 'I' for Inactive)
REMARK    1  A    between atoms: C_7  and  C_8 
REMARK    2  A    between atoms: C_8  and  N_9 
REMARK    3  A    between atoms: C_13  and  C_14 
REMARK    4  A    between atoms: C_14  and  C_15 
REMARK    5  A    between atoms: C_15  and  C_16 
REMARK    6  A    between atoms: N_26  and  C_27 
REMARK    7  A    between atoms: C_27  and  C_28 
ROOT
HETATM    1  C   UNL     1      40.513 -14.455   2.785  1.00  0.00     0.123 C 
HETATM    2  N   UNL     1      41.838 -14.004   2.391  1.00  0.00    -0.324 N 
HETATM    3  C   UNL     1      42.748 -14.013   3.425  1.00  0.00     0.326 C 
HETATM    4  O   UNL     1      43.930 -13.764   3.282  1.00  0.00    -0.247 OA
HETATM    5  N   UNL     1      42.077 -14.288   4.572  1.00  0.00    -0.268 N 
HETATM    6  C   UNL     1      40.752 -14.470   4.312  1.00  0.00     0.257 C 
HETATM    7  O   UNL     1      39.871 -14.623   5.149  1.00  0.00    -0.270 OA
HETATM    8  H   UNL     1      42.166 -13.887   1.438  1.00  0.00     0.165 HD
ENDROOT
BRANCH   1   9
HETATM    9  C   UNL     1      39.435 -13.429   2.299  1.00  0.00     0.027 C 
HETATM   10  C   UNL     1      38.299 -14.028   1.444  1.00  0.00     0.035 C 
HETATM   11  C   UNL     1      38.657 -14.248  -0.018  1.00  0.00     0.235 C 
HETATM   12  N   UNL     1      39.136 -12.969  -0.652  1.00  0.00    -0.067 N 
HETATM   13  H   UNL     1      38.321 -12.350  -0.724  1.00  0.00     0.280 HD
HETATM   14  C   UNL     1      40.211 -12.240   0.107  1.00  0.00     0.235 C 
HETATM   15  C   UNL     1      39.923 -12.151   1.598  1.00  0.00     0.035 C 
BRANCH  12  16
HETATM   16  C   UNL     1      39.615 -13.192  -2.083  1.00  0.00     0.277 C 
BRANCH  16  17
HETATM   17  C   UNL     1      38.596 -13.782  -2.980  1.00  0.00     0.011 A 
HETATM   18  C   UNL     1      37.382 -13.262  -3.410  1.00  0.00     0.035 A 
HETATM   19  C   UNL     1      36.720 -11.956  -3.155  1.00  0.00     0.070 C 
HETATM   20  N   UNL     1      36.832 -14.229  -4.222  1.00  0.00    -0.278 N 
HETATM   21  C   UNL     1      35.585 -14.178  -4.954  1.00  0.00     0.179 C 
HETATM   22  N   UNL     1      37.600 -15.324  -4.329  1.00  0.00    -0.185 NA
HETATM   23  C   UNL     1      38.680 -15.044  -3.610  1.00  0.00     0.149 A 
ENDBRANCH  16  17
ENDBRANCH  12  16
ENDBRANCH   1   9
BRANCH   1  24
HETATM   24  C   UNL     1      40.284 -15.945   2.378  1.00  0.00     0.082 C 
BRANCH  24  25
HETATM   25  C   UNL     1      41.522 -16.798   2.157  1.00  0.00    -0.034 A 
HETATM   26  C   UNL     1      42.206 -16.889   0.930  1.00  0.00     0.040 A 
HETATM   27 CL   UNL     1      41.692 -16.051  -0.488  1.00  0.00    -0.084 Cl
HETATM   28  C   UNL     1      43.330 -17.713   0.795  1.00  0.00     0.024 A 
HETATM   29  C   UNL     1      43.786 -18.468   1.872  1.00  0.00     0.002 A 
HETATM   30  C   UNL     1      43.107 -18.419   3.083  1.00  0.00     0.001 A 
HETATM   31  C   UNL     1      41.982 -17.603   3.219  1.00  0.00     0.009 A 
ENDBRANCH  24  25
ENDBRANCH   1  24
BRANCH   5  32
HETATM   32  C   UNL     1      42.679 -14.308   5.888  1.00  0.00     0.141 C 
BRANCH  32  33
HETATM   33  C   UNL     1      43.305 -15.644   6.145  1.00  0.00     0.004 A 
HETATM   34  C   UNL     1      43.769 -16.023   7.528  1.00  0.00     0.007 A 
HETATM   35  C   UNL     1      42.562 -16.695   6.930  1.00  0.00     0.007 A 
ENDBRANCH  32  33
ENDBRANCH   5  32
TORSDOF 7
ENDMDL
MODEL 6
REMARK VINA RESULT:      -8.5      2.935      7.338
REMARK  7 active torsions:
REMARK  status: ('A' for Active; 'I' for Inactive)
REMARK    1  A    between atoms: C_7  and  C_8 
REMARK    2  A    between atoms: C_8  and  N_9 
REMARK    3  A    between atoms: C_13  and  C_14 
REMARK    4  A    between atoms: C_14  and  C_15 
REMARK    5  A    between atoms: C_15  and  C_16 
REMARK    6  A    between atoms: N_26  and  C_27 
REMARK    7  A    between atoms: C_27  and  C_28 
ROOT
HETATM    1  C   UNL     1      40.734 -14.762   2.163  1.00  0.00     0.123 C 
HETATM    2  N   UNL     1      39.740 -14.684   3.222  1.00  0.00    -0.324 N 
HETATM    3  C   UNL     1      40.269 -14.335   4.443  1.00  0.00     0.326 C 
HETATM    4  O   UNL     1      39.594 -14.124   5.433  1.00  0.00    -0.247 OA
HETATM    5  N   UNL     1      41.622 -14.331   4.329  1.00  0.00    -0.268 N 
HETATM    6  C   UNL     1      41.989 -14.659   3.058  1.00  0.00     0.257 C 
HETATM    7  O   UNL     1      43.134 -14.848   2.669  1.00  0.00    -0.270 OA
HETATM    8  H   UNL     1      38.733 -14.669   3.090  1.00  0.00     0.165 HD
ENDROOT
BRANCH   1   9
HETATM    9  C   UNL     1      40.585 -16.117   1.393  1.00  0.00     0.027 C 
HETATM   10  C   UNL     1      40.508 -17.372   2.286  1.00  0.00     0.035 C 
HETATM   11  C   UNL     1      41.852 -17.877   2.787  1.00  0.00     0.235 C 
HETATM   12  N   UNL     1      42.788 -18.141   1.637  1.00  0.00    -0.067 N 
HETATM   13  H   UNL     1      42.424 -18.963   1.141  1.00  0.00     0.280 HD
HETATM   14  C   UNL     1      42.919 -17.018   0.645  1.00  0.00     0.235 C 
HETATM   15  C   UNL     1      41.579 -16.413   0.257  1.00  0.00     0.035 C 
BRANCH  12  16
HETATM   16  C   UNL     1      44.182 -18.532   2.119  1.00  0.00     0.277 C 
BRANCH  16  17
HETATM   17  C   UNL     1      44.293 -19.934   2.584  1.00  0.00     0.011 A 
HETATM   18  C   UNL     1      44.610 -20.429   3.842  1.00  0.00     0.035 A 
HETATM   19  C   UNL     1      44.904 -19.747   5.129  1.00  0.00     0.070 C 
HETATM   20  N   UNL     1      44.580 -21.801   3.717  1.00  0.00    -0.278 N 
HETATM   21  C   UNL     1      44.803 -22.797   4.742  1.00  0.00     0.179 C 
HETATM   22  N   UNL     1      44.279 -22.209   2.475  1.00  0.00    -0.185 NA
HETATM   23  C   UNL     1      44.071 -21.086   1.798  1.00  0.00     0.149 A 
ENDBRANCH  16  17
ENDBRANCH  12  16
ENDBRANCH   1   9
BRANCH   1  24
HETATM   24  C   UNL     1      40.727 -13.466   1.292  1.00  0.00     0.082 C 
BRANCH  24  25
HETATM   25  C   UNL     1      39.936 -13.508  -0.004  1.00  0.00    -0.034 A 
HETATM   26  C   UNL     1      40.511 -13.378  -1.282  1.00  0.00     0.040 A 
HETATM   27 CL   UNL     1      42.202 -13.125  -1.522  1.00  0.00    -0.084 Cl
HETATM   28  C   UNL     1      39.716 -13.407  -2.433  1.00  0.00     0.024 A 
HETATM   29  C   UNL     1      38.335 -13.554  -2.335  1.00  0.00     0.002 A 
HETATM   30  C   UNL     1      37.742 -13.652  -1.082  1.00  0.00     0.001 A 
HETATM   31  C   UNL     1      38.532 -13.617   0.069  1.00  0.00     0.009 A 
ENDBRANCH  24  25
ENDBRANCH   1  24
BRANCH   5  32
HETATM   32  C   UNL     1      42.535 -14.088   5.424  1.00  0.00     0.141 C 
BRANCH  32  33
HETATM   33  C   UNL     1      42.721 -15.342   6.224  1.00  0.00     0.004 A 
HETATM   34  C   UNL     1      43.685 -16.408   5.770  1.00  0.00     0.007 A 
HETATM   35  C   UNL     1      44.001 -15.577   6.985  1.00  0.00     0.007 A 
ENDBRANCH  32  33
ENDBRANCH   5  32
TORSDOF 7
ENDMDL
MODEL 7
REMARK VINA RESULT:      -8.3      3.356      7.634
REMARK  7 active torsions:
REMARK  status: ('A' for Active; 'I' for Inactive)
REMARK    1  A    between atoms: C_7  and  C_8 
REMARK    2  A    between atoms: C_8  and  N_9 
REMARK    3  A    between atoms: C_13  and  C_14 
REMARK    4  A    between atoms: C_14  and  C_15 
REMARK    5  A    between atoms: C_15  and  C_16 
REMARK    6  A    between atoms: N_26  and  C_27 
REMARK    7  A    between atoms: C_27  and  C_28 
ROOT
HETATM    1  C   UNL     1      40.649 -14.733   2.442  1.00  0.00     0.123 C 
HETATM    2  N   UNL     1      39.725 -14.561   3.553  1.00  0.00    -0.324 N 
HETATM    3  C   UNL     1      40.335 -14.133   4.710  1.00  0.00     0.326 C 
HETATM    4  O   UNL     1      39.726 -13.839   5.721  1.00  0.00    -0.247 OA
HETATM    5  N   UNL     1      41.678 -14.159   4.512  1.00  0.00    -0.268 N 
HETATM    6  C   UNL     1      41.959 -14.585   3.248  1.00  0.00     0.257 C 
HETATM    7  O   UNL     1      43.076 -14.820   2.803  1.00  0.00    -0.270 OA
HETATM    8  H   UNL     1      38.712 -14.540   3.484  1.00  0.00     0.165 HD
ENDROOT
BRANCH   1   9
HETATM    9  C   UNL     1      40.437 -16.138   1.786  1.00  0.00     0.027 C 
HETATM   10  C   UNL     1      40.543 -17.335   2.753  1.00  0.00     0.035 C 
HETATM   11  C   UNL     1      41.966 -17.769   3.070  1.00  0.00     0.235 C 
HETATM   12  N   UNL     1      42.725 -18.080   1.807  1.00  0.00    -0.067 N 
HETATM   13  H   UNL     1      42.322 -18.942   1.422  1.00  0.00     0.280 HD
HETATM   14  C   UNL     1      42.662 -17.019   0.742  1.00  0.00     0.235 C 
HETATM   15  C   UNL     1      41.257 -16.478   0.530  1.00  0.00     0.035 C 
BRANCH  12  16
HETATM   16  C   UNL     1      44.190 -18.399   2.091  1.00  0.00     0.277 C 
BRANCH  16  17
HETATM   17  C   UNL     1      44.394 -19.494   3.067  1.00  0.00     0.011 A 
HETATM   18  C   UNL     1      44.348 -20.870   2.881  1.00  0.00     0.035 A 
HETATM   19  C   UNL     1      44.118 -21.697   1.668  1.00  0.00     0.070 C 
HETATM   20  N   UNL     1      44.603 -21.419   4.118  1.00  0.00    -0.278 N 
HETATM   21  C   UNL     1      44.704 -22.818   4.472  1.00  0.00     0.179 C 
HETATM   22  N   UNL     1      44.797 -20.496   5.073  1.00  0.00    -0.185 NA
HETATM   23  C   UNL     1      44.706 -19.335   4.435  1.00  0.00     0.149 A 
ENDBRANCH  16  17
ENDBRANCH  12  16
ENDBRANCH   1   9
BRANCH   1  24
HETATM   24  C   UNL     1      40.602 -13.504   1.480  1.00  0.00     0.082 C 
BRANCH  24  25
HETATM   25  C   UNL     1      39.282 -12.760   1.374  1.00  0.00    -0.034 A 
HETATM   26  C   UNL     1      38.990 -11.573   2.072  1.00  0.00     0.040 A 
HETATM   27 CL   UNL     1      40.104 -10.835   3.163  1.00  0.00    -0.084 Cl
HETATM   28  C   UNL     1      37.743 -10.951   1.939  1.00  0.00     0.024 A 
HETATM   29  C   UNL     1      36.761 -11.504   1.121  1.00  0.00     0.002 A 
HETATM   30  C   UNL     1      37.016 -12.693   0.448  1.00  0.00     0.001 A 
HETATM   31  C   UNL     1      38.257 -13.318   0.584  1.00  0.00     0.009 A 
ENDBRANCH  24  25
ENDBRANCH   1  24
BRANCH   5  32
HETATM   32  C   UNL     1      42.661 -13.852   5.527  1.00  0.00     0.141 C 
BRANCH  32  33
HETATM   33  C   UNL     1      42.891 -15.050   6.397  1.00  0.00     0.004 A 
HETATM   34  C   UNL     1      43.840 -16.141   5.968  1.00  0.00     0.007 A 
HETATM   35  C   UNL     1      44.208 -15.232   7.110  1.00  0.00     0.007 A 
ENDBRANCH  32  33
ENDBRANCH   5  32
TORSDOF 7
ENDMDL
MODEL 8
REMARK VINA RESULT:      -8.2      2.233      3.457
REMARK  7 active torsions:
REMARK  status: ('A' for Active; 'I' for Inactive)
REMARK    1  A    between atoms: C_7  and  C_8 
REMARK    2  A    between atoms: C_8  and  N_9 
REMARK    3  A    between atoms: C_13  and  C_14 
REMARK    4  A    between atoms: C_14  and  C_15 
REMARK    5  A    between atoms: C_15  and  C_16 
REMARK    6  A    between atoms: N_26  and  C_27 
REMARK    7  A    between atoms: C_27  and  C_28 
ROOT
HETATM    1  C   UNL     1      41.395 -15.910   3.878  1.00  0.00     0.123 C 
HETATM    2  N   UNL     1      42.696 -15.457   3.410  1.00  0.00    -0.324 N 
HETATM    3  C   UNL     1      42.972 -14.150   3.743  1.00  0.00     0.326 C 
HETATM    4  O   UNL     1      44.043 -13.614   3.529  1.00  0.00    -0.247 OA
HETATM    5  N   UNL     1      41.849 -13.607   4.279  1.00  0.00    -0.268 N 
HETATM    6  C   UNL     1      40.848 -14.532   4.313  1.00  0.00     0.257 C 
HETATM    7  O   UNL     1      39.687 -14.319   4.636  1.00  0.00    -0.270 OA
HETATM    8  H   UNL     1      43.441 -16.052   3.060  1.00  0.00     0.165 HD
ENDROOT
BRANCH   1   9
HETATM    9  C   UNL     1      40.613 -16.585   2.702  1.00  0.00     0.027 C 
HETATM   10  C   UNL     1      41.494 -17.154   1.570  1.00  0.00     0.035 C 
HETATM   11  C   UNL     1      41.981 -16.120   0.567  1.00  0.00     0.235 C 
HETATM   12  N   UNL     1      40.823 -15.368  -0.033  1.00  0.00    -0.067 N 
HETATM   13  H   UNL     1      40.322 -16.029  -0.637  1.00  0.00     0.280 HD
HETATM   14  C   UNL     1      39.842 -14.802   0.956  1.00  0.00     0.235 C 
HETATM   15  C   UNL     1      39.469 -15.792   2.049  1.00  0.00     0.035 C 
BRANCH  12  16
HETATM   16  C   UNL     1      41.293 -14.243  -0.951  1.00  0.00     0.277 C 
BRANCH  16  17
HETATM   17  C   UNL     1      40.196 -13.502  -1.615  1.00  0.00     0.011 A 
HETATM   18  C   UNL     1      39.344 -13.903  -2.636  1.00  0.00     0.035 A 
HETATM   19  C   UNL     1      39.216 -15.188  -3.370  1.00  0.00     0.070 C 
HETATM   20  N   UNL     1      38.521 -12.824  -2.875  1.00  0.00    -0.278 N 
HETATM   21  C   UNL     1      37.430 -12.725  -3.819  1.00  0.00     0.179 C 
HETATM   22  N   UNL     1      38.796 -11.770  -2.092  1.00  0.00    -0.185 NA
HETATM   23  C   UNL     1      39.783 -12.187  -1.307  1.00  0.00     0.149 A 
ENDBRANCH  16  17
ENDBRANCH  12  16
ENDBRANCH   1   9
BRANCH   1  24
HETATM   24  C   UNL     1      41.532 -16.745   5.190  1.00  0.00     0.082 C 
BRANCH  24  25
HETATM   25  C   UNL     1      42.810 -17.547   5.368  1.00  0.00    -0.034 A 
HETATM   26  C   UNL     1      43.875 -17.154   6.200  1.00  0.00     0.040 A 
HETATM   27 CL   UNL     1      43.860 -15.683   7.102  1.00  0.00    -0.084 Cl
HETATM   28  C   UNL     1      45.033 -17.936   6.300  1.00  0.00     0.024 A 
HETATM   29  C   UNL     1      45.157 -19.113   5.567  1.00  0.00     0.002 A 
HETATM   30  C   UNL     1      44.131 -19.503   4.715  1.00  0.00     0.001 A 
HETATM   31  C   UNL     1      42.978 -18.722   4.608  1.00  0.00     0.009 A 
ENDBRANCH  24  25
ENDBRANCH   1  24
BRANCH   5  32
HETATM   32  C   UNL     1      41.721 -12.224   4.682  1.00  0.00     0.141 C 
BRANCH  32  33
HETATM   33  C   UNL     1      41.654 -12.130   6.176  1.00  0.00     0.004 A 
HETATM   34  C   UNL     1      41.668 -10.788   6.864  1.00  0.00     0.007 A 
HETATM   35  C   UNL     1      40.409 -11.614   6.852  1.00  0.00     0.007 A 
ENDBRANCH  32  33
ENDBRANCH   5  32
TORSDOF 7
ENDMDL
MODEL 9
REMARK VINA RESULT:      -8.2      2.074      2.767
REMARK  7 active torsions:
REMARK  status: ('A' for Active; 'I' for Inactive)
REMARK    1  A    between atoms: C_7  and  C_8 
REMARK    2  A    between atoms: C_8  and  N_9 
REMARK    3  A    between atoms: C_13  and  C_14 
REMARK    4  A    between atoms: C_14  and  C_15 
REMARK    5  A    between atoms: C_15  and  C_16 
REMARK    6  A    between atoms: N_26  and  C_27 
REMARK    7  A    between atoms: C_27  and  C_28 
ROOT
HETATM    1  C   UNL     1      42.177 -15.581   2.703  1.00  0.00     0.123 C 
HETATM    2  N   UNL     1      42.202 -14.169   2.356  1.00  0.00    -0.324 N 
HETATM    3  C   UNL     1      42.029 -13.337   3.438  1.00  0.00     0.326 C 
HETATM    4  O   UNL     1      42.113 -12.125   3.375  1.00  0.00    -0.247 OA
HETATM    5  N   UNL     1      41.710 -14.105   4.512  1.00  0.00    -0.268 N 
HETATM    6  C   UNL     1      41.681 -15.421   4.158  1.00  0.00     0.257 C 
HETATM    7  O   UNL     1      41.320 -16.348   4.872  1.00  0.00    -0.270 OA
HETATM    8  H   UNL     1      42.518 -13.781   1.472  1.00  0.00     0.165 HD
ENDROOT
BRANCH   1   9
HETATM    9  C   UNL     1      41.193 -16.345   1.755  1.00  0.00     0.027 C 
HETATM   10  C   UNL     1      41.623 -16.404   0.275  1.00  0.00     0.035 C 
HETATM   11  C   UNL     1      41.318 -15.147  -0.525  1.00  0.00     0.235 C 
HETATM   12  N   UNL     1      39.853 -14.804  -0.446  1.00  0.00    -0.067 N 
HETATM   13  H   UNL     1      39.351 -15.522  -0.980  1.00  0.00     0.280 HD
HETATM   14  C   UNL     1      39.277 -14.767   0.943  1.00  0.00     0.235 C 
HETATM   15  C   UNL     1      39.706 -15.952   1.793  1.00  0.00     0.035 C 
BRANCH  12  16
HETATM   16  C   UNL     1      39.544 -13.480  -1.138  1.00  0.00     0.277 C 
BRANCH  16  17
HETATM   17  C   UNL     1      40.566 -12.430  -0.926  1.00  0.00     0.011 A 
HETATM   18  C   UNL     1      41.620 -12.039  -1.741  1.00  0.00     0.035 A 
HETATM   19  C   UNL     1      42.056 -12.501  -3.084  1.00  0.00     0.070 C 
HETATM   20  N   UNL     1      42.259 -11.027  -1.059  1.00  0.00    -0.278 N 
HETATM   21  C   UNL     1      43.402 -10.247  -1.480  1.00  0.00     0.179 C 
HETATM   22  N   UNL     1      41.695 -10.756   0.129  1.00  0.00    -0.185 NA
HETATM   23  C   UNL     1      40.653 -11.577   0.196  1.00  0.00     0.149 A 
ENDBRANCH  16  17
ENDBRANCH  12  16
ENDBRANCH   1   9
BRANCH   1  24
HETATM   24  C   UNL     1      43.624 -16.158   2.809  1.00  0.00     0.082 C 
BRANCH  24  25
HETATM   25  C   UNL     1      43.759 -17.664   2.954  1.00  0.00    -0.034 A 
HETATM   26  C   UNL     1      44.048 -18.314   4.168  1.00  0.00     0.040 A 
HETATM   27 CL   UNL     1      44.312 -17.460   5.644  1.00  0.00    -0.084 Cl
HETATM   28  C   UNL     1      44.177 -19.707   4.223  1.00  0.00     0.024 A 
HETATM   29  C   UNL     1      44.033 -20.476   3.071  1.00  0.00     0.002 A 
HETATM   30  C   UNL     1      43.780 -19.852   1.856  1.00  0.00     0.001 A 
HETATM   31  C   UNL     1      43.657 -18.462   1.797  1.00  0.00     0.009 A 
ENDBRANCH  24  25
ENDBRANCH   1  24
BRANCH   5  32
HETATM   32  C   UNL     1      41.375 -13.585   5.820  1.00  0.00     0.141 C 
BRANCH  32  33
HETATM   33  C   UNL     1      39.914 -13.260   5.883  1.00  0.00     0.004 A 
HETATM   34  C   UNL     1      39.348 -12.488   7.048  1.00  0.00     0.007 A 
HETATM   35  C   UNL     1      39.441 -11.841   5.692  1.00  0.00     0.007 A 
ENDBRANCH  32  33
ENDBRANCH   5  32
TORSDOF 7
ENDMDL
MODEL 10
REMARK VINA RESULT:      -8.2      2.089      2.816
REMARK  7 active torsions:
REMARK  status: ('A' for Active; 'I' for Inactive)
REMARK    1  A    between atoms: C_7  and  C_8 
REMARK    2  A    between atoms: C_8  and  N_9 
REMARK    3  A    between atoms: C_13  and  C_14 
REMARK    4  A    between atoms: C_14  and  C_15 
REMARK    5  A    between atoms: C_15  and  C_16 
REMARK    6  A    between atoms: N_26  and  C_27 
REMARK    7  A    between atoms: C_27  and  C_28 
ROOT
HETATM    1  C   UNL     1      41.000 -15.022   3.833  1.00  0.00     0.123 C 
HETATM    2  N   UNL     1      42.231 -14.658   3.149  1.00  0.00    -0.324 N 
HETATM    3  C   UNL     1      43.125 -13.988   3.952  1.00  0.00     0.326 C 
HETATM    4  O   UNL     1      44.248 -13.682   3.598  1.00  0.00    -0.247 OA
HETATM    5  N   UNL     1      42.507 -13.712   5.129  1.00  0.00    -0.268 N 
HETATM    6  C   UNL     1      41.233 -14.194   5.117  1.00  0.00     0.257 C 
HETATM    7  O   UNL     1      40.388 -14.010   5.984  1.00  0.00    -0.270 OA
HETATM    8  H   UNL     1      42.537 -15.015   2.249  1.00  0.00     0.165 HD
ENDROOT
BRANCH   1   9
HETATM    9  C   UNL     1      39.765 -14.576   2.980  1.00  0.00     0.027 C 
HETATM   10  C   UNL     1      39.521 -15.402   1.700  1.00  0.00     0.035 C 
HETATM   11  C   UNL     1      40.398 -15.013   0.519  1.00  0.00     0.235 C 
HETATM   12  N   UNL     1      40.251 -13.549   0.202  1.00  0.00    -0.067 N 
HETATM   13  H   UNL     1      39.308 -13.421  -0.183  1.00  0.00     0.280 HD
HETATM   14  C   UNL     1      40.406 -12.619   1.374  1.00  0.00     0.235 C 
HETATM   15  C   UNL     1      39.648 -13.089   2.605  1.00  0.00     0.035 C 
BRANCH  12  16
HETATM   16  C   UNL     1      41.210 -13.109  -0.900  1.00  0.00     0.277 C 
BRANCH  16  17
HETATM   17  C   UNL     1      40.548 -12.497  -2.074  1.00  0.00     0.011 A 
HETATM   18  C   UNL     1      41.054 -11.615  -3.020  1.00  0.00     0.035 A 
HETATM   19  C   UNL     1      42.405 -11.024  -3.198  1.00  0.00     0.070 C 
HETATM   20  N   UNL     1      40.012 -11.362  -3.885  1.00  0.00    -0.278 N 
HETATM   21  C   UNL     1      40.014 -10.533  -5.070  1.00  0.00     0.179 C 
HETATM   22  N   UNL     1      38.883 -12.008  -3.551  1.00  0.00    -0.185 NA
HETATM   23  C   UNL     1      39.213 -12.720  -2.480  1.00  0.00     0.149 A 
ENDBRANCH  16  17
ENDBRANCH  12  16
ENDBRANCH   1   9
BRANCH   1  24
HETATM   24  C   UNL     1      41.029 -16.517   4.281  1.00  0.00     0.082 C 
BRANCH  24  25
HETATM   25  C   UNL     1      42.104 -17.400   3.671  1.00  0.00    -0.034 A 
HETATM   26  C   UNL     1      43.313 -17.725   4.313  1.00  0.00     0.040 A 
HETATM   27 CL   UNL     1      43.729 -17.126   5.877  1.00  0.00    -0.084 Cl
HETATM   28  C   UNL     1      44.268 -18.531   3.680  1.00  0.00     0.024 A 
HETATM   29  C   UNL     1      44.042 -19.017   2.395  1.00  0.00     0.002 A 
HETATM   30  C   UNL     1      42.869 -18.682   1.730  1.00  0.00     0.001 A 
HETATM   31  C   UNL     1      41.918 -17.874   2.356  1.00  0.00     0.009 A 
ENDBRANCH  24  25
ENDBRANCH   1  24
BRANCH   5  32
HETATM   32  C   UNL     1      43.099 -12.947   6.204  1.00  0.00     0.141 C 
BRANCH  32  33
HETATM   33  C   UNL     1      44.016 -13.818   7.008  1.00  0.00     0.004 A 
HETATM   34  C   UNL     1      45.512 -13.711   6.850  1.00  0.00     0.007 A 
HETATM   35  C   UNL     1      44.854 -13.226   8.114  1.00  0.00     0.007 A 
ENDBRANCH  32  33
ENDBRANCH   5  32
TORSDOF 7
ENDMDL
