MODEL 1
REMARK VINA RESULT:      -8.1      0.000      0.000
REMARK  4 active torsions:
REMARK  status: ('A' for Active; 'I' for Inactive)
REMARK    1  A    between atoms: C_9  and  C_10 
REMARK    2  A    between atoms: C_11  and  O_12 
REMARK    3  A    between atoms: C_18  and  C_19 
REMARK       I    between atoms: C_19  and  N_20 
REMARK    4  A    between atoms: N_20  and  C_21 
ROOT
HETATM    1  C   UNL     1      44.132 -15.252   6.759  1.00  0.00     0.070 C 
HETATM    2  C   UNL     1      43.038 -14.466   6.080  1.00  0.00     0.037 C 
HETATM    3  N   UNL     1      42.883 -13.153   6.516  1.00  0.00    -0.192 N 
HETATM    4  C   UNL     1      41.779 -12.426   6.250  1.00  0.00     0.725 A 
HETATM    5  N   UNL     1      40.862 -12.898   5.349  1.00  0.00    -0.084 N 
HETATM    6  N   UNL     1      39.791 -12.080   5.267  1.00  0.00    -0.149 NA
HETATM    7  C   UNL     1      40.151 -11.117   6.123  1.00  0.00     0.275 A 
HETATM    8  N   UNL     1      41.363 -11.286   6.740  1.00  0.00    -0.054 NA
HETATM    9  C   UNL     1      41.024 -14.150   4.593  1.00  0.00     0.205 C 
HETATM   10  C   UNL     1      42.177 -14.974   5.161  1.00  0.00     0.063 C 
HETATM   11  H   UNL     1      43.475 -12.843   7.284  1.00  0.00     0.184 HD
ENDROOT
BRANCH  10  12
HETATM   12  C   UNL     1      42.179 -16.399   4.747  1.00  0.00     0.256 C 
HETATM   13  N   UNL     1      43.190 -16.710   3.862  1.00  0.00    -0.323 N 
HETATM   14  H   UNL     1      43.788 -15.949   3.565  1.00  0.00     0.169 HD
HETATM   15  O   UNL     1      41.334 -17.152   5.210  1.00  0.00    -0.267 OA
BRANCH  13  16
HETATM   16  C   UNL     1      43.530 -17.992   3.381  1.00  0.00     0.035 A 
HETATM   17  C   UNL     1      43.182 -18.466   2.113  1.00  0.00     0.031 A 
HETATM   18  C   UNL     1      43.527 -19.764   1.719  1.00  0.00     0.026 A 
HETATM   19  C   UNL     1      44.219 -20.595   2.593  1.00  0.00     0.034 A 
HETATM   20 CL   UNL     1      44.629 -22.194   2.114  1.00  0.00    -0.084 Cl
HETATM   21  C   UNL     1      44.579 -20.135   3.856  1.00  0.00     0.026 A 
HETATM   22  C   UNL     1      44.241 -18.834   4.245  1.00  0.00     0.031 A 
ENDBRANCH  13  16
ENDBRANCH  10  12
BRANCH   9  23
HETATM   23  C   UNL     1      41.228 -13.844   3.105  1.00  0.00     0.005 A 
HETATM   24  C   UNL     1      40.543 -14.585   2.122  1.00  0.00     0.076 A 
HETATM   25  C   UNL     1      40.726 -14.283   0.768  1.00  0.00     0.037 A 
HETATM   26  C   UNL     1      41.602 -13.266   0.379  1.00  0.00     0.003 A 
HETATM   27  C   UNL     1      42.306 -12.549   1.338  1.00  0.00     0.001 A 
HETATM   28  C   UNL     1      42.127 -12.838   2.691  1.00  0.00     0.012 A 
BRANCH  24  29
HETATM   29  O   UNL     1      39.710 -15.568   2.583  1.00  0.00    -0.355 OA
HETATM   30  C   UNL     1      39.894 -16.880   2.068  1.00  0.00     0.210 C 
ENDBRANCH  24  29
ENDBRANCH   9  23
TORSDOF 4
ENDMDL
MODEL 2
REMARK VINA RESULT:      -7.9      3.304      5.149
REMARK  4 active torsions:
REMARK  status: ('A' for Active; 'I' for Inactive)
REMARK    1  A    between atoms: C_9  and  C_10 
REMARK    2  A    between atoms: C_11  and  O_12 
REMARK    3  A    between atoms: C_18  and  C_19 
REMARK       I    between atoms: C_19  and  N_20 
REMARK    4  A    between atoms: N_20  and  C_21 
ROOT
HETATM    1  C   UNL     1      40.954 -15.865  -2.210  1.00  0.00     0.070 C 
HETATM    2  C   UNL     1      41.282 -14.605  -1.447  1.00  0.00     0.037 C 
HETATM    3  N   UNL     1      41.368 -13.445  -2.212  1.00  0.00    -0.192 N 
HETATM    4  C   UNL     1      41.946 -12.316  -1.754  1.00  0.00     0.725 A 
HETATM    5  N   UNL     1      42.276 -12.218  -0.429  1.00  0.00    -0.084 N 
HETATM    6  N   UNL     1      42.911 -11.055  -0.169  1.00  0.00    -0.149 NA
HETATM    7  C   UNL     1      42.896 -10.489  -1.381  1.00  0.00     0.275 A 
HETATM    8  N   UNL     1      42.309 -11.224  -2.378  1.00  0.00    -0.054 NA
HETATM    9  C   UNL     1      41.991 -13.262   0.568  1.00  0.00     0.205 C 
HETATM   10  C   UNL     1      41.563 -14.556  -0.120  1.00  0.00     0.063 C 
HETATM   11  H   UNL     1      41.258 -13.541  -3.219  1.00  0.00     0.184 HD
ENDROOT
BRANCH  10  12
HETATM   12  C   UNL     1      41.636 -15.764   0.740  1.00  0.00     0.256 C 
HETATM   13  N   UNL     1      42.926 -16.196   0.966  1.00  0.00    -0.323 N 
HETATM   14  H   UNL     1      43.668 -15.683   0.506  1.00  0.00     0.169 HD
HETATM   15  O   UNL     1      40.599 -16.249   1.171  1.00  0.00    -0.267 OA
BRANCH  13  16
HETATM   16  C   UNL     1      43.332 -17.234   1.831  1.00  0.00     0.035 A 
HETATM   17  C   UNL     1      43.595 -18.541   1.411  1.00  0.00     0.031 A 
HETATM   18  C   UNL     1      43.962 -19.526   2.334  1.00  0.00     0.026 A 
HETATM   19  C   UNL     1      44.064 -19.209   3.684  1.00  0.00     0.034 A 
HETATM   20 CL   UNL     1      44.500 -20.423   4.821  1.00  0.00    -0.084 Cl
HETATM   21  C   UNL     1      43.812 -17.911   4.118  1.00  0.00     0.026 A 
HETATM   22  C   UNL     1      43.454 -16.925   3.191  1.00  0.00     0.031 A 
ENDBRANCH  13  16
ENDBRANCH  10  12
BRANCH   9  23
HETATM   23  C   UNL     1      40.929 -12.770   1.557  1.00  0.00     0.005 A 
HETATM   24  C   UNL     1      41.242 -12.603   2.919  1.00  0.00     0.076 A 
HETATM   25  C   UNL     1      40.266 -12.137   3.808  1.00  0.00     0.037 A 
HETATM   26  C   UNL     1      38.973 -11.857   3.360  1.00  0.00     0.003 A 
HETATM   27  C   UNL     1      38.643 -12.047   2.023  1.00  0.00     0.001 A 
HETATM   28  C   UNL     1      39.610 -12.505   1.128  1.00  0.00     0.012 A 
BRANCH  24  29
HETATM   29  O   UNL     1      42.527 -12.906   3.280  1.00  0.00    -0.355 OA
HETATM   30  C   UNL     1      42.747 -13.353   4.613  1.00  0.00     0.210 C 
ENDBRANCH  24  29
ENDBRANCH   9  23
TORSDOF 4
ENDMDL
MODEL 3
REMARK VINA RESULT:      -7.5      1.614      1.976
REMARK  4 active torsions:
REMARK  status: ('A' for Active; 'I' for Inactive)
REMARK    1  A    between atoms: C_9  and  C_10 
REMARK    2  A    between atoms: C_11  and  O_12 
REMARK    3  A    between atoms: C_18  and  C_19 
REMARK       I    between atoms: C_19  and  N_20 
REMARK    4  A    between atoms: N_20  and  C_21 
ROOT
HETATM    1  C   UNL     1      43.529 -13.825   5.285  1.00  0.00     0.070 C 
HETATM    2  C   UNL     1      42.416 -13.303   4.410  1.00  0.00     0.037 C 
HETATM    3  N   UNL     1      42.189 -11.931   4.484  1.00  0.00    -0.192 N 
HETATM    4  C   UNL     1      41.059 -11.358   4.022  1.00  0.00     0.725 A 
HETATM    5  N   UNL     1      40.190 -12.097   3.264  1.00  0.00    -0.084 N 
HETATM    6  N   UNL     1      39.084 -11.386   2.956  1.00  0.00    -0.149 NA
HETATM    7  C   UNL     1      39.375 -10.215   3.534  1.00  0.00     0.275 A 
HETATM    8  N   UNL     1      40.577 -10.153   4.190  1.00  0.00    -0.054 NA
HETATM    9  C   UNL     1      40.431 -13.492   2.865  1.00  0.00     0.205 C 
HETATM   10  C   UNL     1      41.606 -14.077   3.644  1.00  0.00     0.063 C 
HETATM   11  H   UNL     1      42.744 -11.400   5.151  1.00  0.00     0.184 HD
ENDROOT
BRANCH  10  12
HETATM   12  C   UNL     1      41.686 -15.559   3.619  1.00  0.00     0.256 C 
HETATM   13  N   UNL     1      42.785 -16.035   2.934  1.00  0.00    -0.323 N 
HETATM   14  H   UNL     1      43.387 -15.347   2.501  1.00  0.00     0.169 HD
HETATM   15  O   UNL     1      40.822 -16.210   4.190  1.00  0.00    -0.267 OA
BRANCH  13  16
HETATM   16  C   UNL     1      43.204 -17.378   2.835  1.00  0.00     0.035 A 
HETATM   17  C   UNL     1      43.013 -18.173   1.702  1.00  0.00     0.031 A 
HETATM   18  C   UNL     1      43.427 -19.510   1.690  1.00  0.00     0.026 A 
HETATM   19  C   UNL     1      44.032 -20.059   2.815  1.00  0.00     0.034 A 
HETATM   20 CL   UNL     1      44.526 -21.706   2.807  1.00  0.00    -0.084 Cl
HETATM   21  C   UNL     1      44.235 -19.279   3.950  1.00  0.00     0.026 A 
HETATM   22  C   UNL     1      43.828 -17.940   3.956  1.00  0.00     0.031 A 
ENDBRANCH  13  16
ENDBRANCH  10  12
BRANCH   9  23
HETATM   23  C   UNL     1      40.659 -13.575   1.352  1.00  0.00     0.005 A 
HETATM   24  C   UNL     1      39.701 -14.181   0.516  1.00  0.00     0.076 A 
HETATM   25  C   UNL     1      39.916 -14.234  -0.867  1.00  0.00     0.037 A 
HETATM   26  C   UNL     1      41.085 -13.713  -1.424  1.00  0.00     0.003 A 
HETATM   27  C   UNL     1      42.052 -13.141  -0.606  1.00  0.00     0.001 A 
HETATM   28  C   UNL     1      41.845 -13.076   0.771  1.00  0.00     0.012 A 
BRANCH  24  29
HETATM   29  O   UNL     1      38.587 -14.674   1.139  1.00  0.00    -0.355 OA
HETATM   30  C   UNL     1      37.331 -14.113   0.780  1.00  0.00     0.210 C 
ENDBRANCH  24  29
ENDBRANCH   9  23
TORSDOF 4
ENDMDL
MODEL 4
REMARK VINA RESULT:      -7.5      2.743      4.046
REMARK  4 active torsions:
REMARK  status: ('A' for Active; 'I' for Inactive)
REMARK    1  A    between atoms: C_9  and  C_10 
REMARK    2  A    between atoms: C_11  and  O_12 
REMARK    3  A    between atoms: C_18  and  C_19 
REMARK       I    between atoms: C_19  and  N_20 
REMARK    4  A    between atoms: N_20  and  C_21 
ROOT
HETATM    1  C   UNL     1      40.640 -12.973   4.632  1.00  0.00     0.070 C 
HETATM    2  C   UNL     1      40.211 -12.990   3.186  1.00  0.00     0.037 C 
HETATM    3  N   UNL     1      39.095 -12.214   2.882  1.00  0.00    -0.192 N 
HETATM    4  C   UNL     1      38.404 -12.358   1.733  1.00  0.00     0.725 A 
HETATM    5  N   UNL     1      38.919 -13.134   0.729  1.00  0.00    -0.084 N 
HETATM    6  N   UNL     1      38.061 -13.224  -0.309  1.00  0.00    -0.149 NA
HETATM    7  C   UNL     1      37.064 -12.446   0.129  1.00  0.00     0.275 A 
HETATM    8  N   UNL     1      37.237 -11.891   1.370  1.00  0.00    -0.054 NA
HETATM    9  C   UNL     1      40.231 -13.799   0.796  1.00  0.00     0.205 C 
HETATM   10  C   UNL     1      40.783 -13.751   2.218  1.00  0.00     0.063 C 
HETATM   11  H   UNL     1      38.628 -11.745   3.654  1.00  0.00     0.184 HD
ENDROOT
BRANCH  10  12
HETATM   12  C   UNL     1      41.882 -14.713   2.485  1.00  0.00     0.256 C 
HETATM   13  N   UNL     1      41.442 -16.007   2.669  1.00  0.00    -0.323 N 
HETATM   14  H   UNL     1      40.441 -16.158   2.641  1.00  0.00     0.169 HD
HETATM   15  O   UNL     1      43.035 -14.306   2.507  1.00  0.00    -0.267 OA
BRANCH  13  16
HETATM   16  C   UNL     1      42.240 -17.160   2.819  1.00  0.00     0.035 A 
HETATM   17  C   UNL     1      42.613 -17.695   4.056  1.00  0.00     0.031 A 
HETATM   18  C   UNL     1      43.436 -18.824   4.125  1.00  0.00     0.026 A 
HETATM   19  C   UNL     1      43.895 -19.422   2.956  1.00  0.00     0.034 A 
HETATM   20 CL   UNL     1      44.920 -20.800   3.041  1.00  0.00    -0.084 Cl
HETATM   21  C   UNL     1      43.528 -18.905   1.716  1.00  0.00     0.026 A 
HETATM   22  C   UNL     1      42.697 -17.781   1.650  1.00  0.00     0.031 A 
ENDBRANCH  13  16
ENDBRANCH  10  12
BRANCH   9  23
HETATM   23  C   UNL     1      41.196 -13.160  -0.208  1.00  0.00     0.005 A 
HETATM   24  C   UNL     1      41.559 -13.841  -1.386  1.00  0.00     0.076 A 
HETATM   25  C   UNL     1      42.429 -13.238  -2.301  1.00  0.00     0.037 A 
HETATM   26  C   UNL     1      42.962 -11.973  -2.046  1.00  0.00     0.003 A 
HETATM   27  C   UNL     1      42.637 -11.304  -0.873  1.00  0.00     0.001 A 
HETATM   28  C   UNL     1      41.766 -11.893   0.043  1.00  0.00     0.012 A 
BRANCH  24  29
HETATM   29  O   UNL     1      41.000 -15.079  -1.558  1.00  0.00    -0.355 OA
HETATM   30  C   UNL     1      40.743 -15.503  -2.891  1.00  0.00     0.210 C 
ENDBRANCH  24  29
ENDBRANCH   9  23
TORSDOF 4
ENDMDL
MODEL 5
REMARK VINA RESULT:      -7.2      3.240      5.084
REMARK  4 active torsions:
REMARK  status: ('A' for Active; 'I' for Inactive)
REMARK    1  A    between atoms: C_9  and  C_10 
REMARK    2  A    between atoms: C_11  and  O_12 
REMARK    3  A    between atoms: C_18  and  C_19 
REMARK       I    between atoms: C_19  and  N_20 
REMARK    4  A    between atoms: N_20  and  C_21 
ROOT
HETATM    1  C   UNL     1      41.359 -16.650   0.009  1.00  0.00     0.070 C 
HETATM    2  C   UNL     1      41.503 -15.168   0.246  1.00  0.00     0.037 C 
HETATM    3  N   UNL     1      41.651 -14.389  -0.899  1.00  0.00    -0.192 N 
HETATM    4  C   UNL     1      42.096 -13.116  -0.857  1.00  0.00     0.725 A 
HETATM    5  N   UNL     1      42.210 -12.482   0.351  1.00  0.00    -0.084 N 
HETATM    6  N   UNL     1      42.740 -11.248   0.207  1.00  0.00    -0.149 NA
HETATM    7  C   UNL     1      42.887 -11.197  -1.122  1.00  0.00     0.275 A 
HETATM    8  N   UNL     1      42.498 -12.316  -1.812  1.00  0.00    -0.054 NA
HETATM    9  C   UNL     1      41.823 -13.086   1.636  1.00  0.00     0.205 C 
HETATM   10  C   UNL     1      41.571 -14.582   1.469  1.00  0.00     0.063 C 
HETATM   11  H   UNL     1      41.704 -14.875  -1.791  1.00  0.00     0.184 HD
ENDROOT
BRANCH  10  12
HETATM   12  C   UNL     1      41.567 -15.352   2.738  1.00  0.00     0.256 C 
HETATM   13  N   UNL     1      42.831 -15.692   3.174  1.00  0.00    -0.323 N 
HETATM   14  H   UNL     1      43.607 -15.422   2.583  1.00  0.00     0.169 HD
HETATM   15  O   UNL     1      40.498 -15.600   3.278  1.00  0.00    -0.267 OA
BRANCH  13  16
HETATM   16  C   UNL     1      43.167 -16.312   4.396  1.00  0.00     0.035 A 
HETATM   17  C   UNL     1      43.446 -15.614   5.574  1.00  0.00     0.031 A 
HETATM   18  C   UNL     1      43.805 -16.299   6.740  1.00  0.00     0.026 A 
HETATM   19  C   UNL     1      43.890 -17.687   6.733  1.00  0.00     0.034 A 
HETATM   20 CL   UNL     1      44.346 -18.527   8.162  1.00  0.00    -0.084 Cl
HETATM   21  C   UNL     1      43.609 -18.398   5.569  1.00  0.00     0.026 A 
HETATM   22  C   UNL     1      43.242 -17.711   4.406  1.00  0.00     0.031 A 
ENDBRANCH  13  16
ENDBRANCH  10  12
BRANCH   9  23
HETATM   23  C   UNL     1      40.598 -12.367   2.209  1.00  0.00     0.005 A 
HETATM   24  C   UNL     1      40.616 -11.857   3.521  1.00  0.00     0.076 A 
HETATM   25  C   UNL     1      39.495 -11.187   4.025  1.00  0.00     0.037 A 
HETATM   26  C   UNL     1      38.346 -11.040   3.246  1.00  0.00     0.003 A 
HETATM   27  C   UNL     1      38.305 -11.566   1.960  1.00  0.00     0.001 A 
HETATM   28  C   UNL     1      39.418 -12.230   1.446  1.00  0.00     0.012 A 
BRANCH  24  29
HETATM   29  O   UNL     1      41.776 -12.048   4.222  1.00  0.00    -0.355 OA
HETATM   30  C   UNL     1      41.663 -12.383   5.600  1.00  0.00     0.210 C 
ENDBRANCH  24  29
ENDBRANCH   9  23
TORSDOF 4
ENDMDL
MODEL 6
REMARK VINA RESULT:      -7.1      3.389      6.001
REMARK  4 active torsions:
REMARK  status: ('A' for Active; 'I' for Inactive)
REMARK    1  A    between atoms: C_9  and  C_10 
REMARK    2  A    between atoms: C_11  and  O_12 
REMARK    3  A    between atoms: C_18  and  C_19 
REMARK       I    between atoms: C_19  and  N_20 
REMARK    4  A    between atoms: N_20  and  C_21 
ROOT
HETATM    1  C   UNL     1      43.867 -18.735   1.742  1.00  0.00     0.070 C 
HETATM    2  C   UNL     1      43.572 -18.336   3.166  1.00  0.00     0.037 C 
HETATM    3  N   UNL     1      44.320 -18.993   4.140  1.00  0.00    -0.192 N 
HETATM    4  C   UNL     1      43.974 -18.990   5.444  1.00  0.00     0.725 A 
HETATM    5  N   UNL     1      42.985 -18.148   5.877  1.00  0.00    -0.084 N 
HETATM    6  N   UNL     1      42.723 -18.335   7.188  1.00  0.00    -0.149 NA
HETATM    7  C   UNL     1      43.620 -19.282   7.485  1.00  0.00     0.275 A 
HETATM    8  N   UNL     1      44.411 -19.706   6.449  1.00  0.00    -0.054 NA
HETATM    9  C   UNL     1      42.287 -17.186   5.009  1.00  0.00     0.205 C 
HETATM   10  C   UNL     1      42.602 -17.463   3.541  1.00  0.00     0.063 C 
HETATM   11  H   UNL     1      44.960 -19.719   3.827  1.00  0.00     0.184 HD
ENDROOT
BRANCH  10  12
HETATM   12  C   UNL     1      41.665 -16.829   2.579  1.00  0.00     0.256 C 
HETATM   13  N   UNL     1      42.238 -15.805   1.853  1.00  0.00    -0.323 N 
HETATM   14  H   UNL     1      43.199 -15.574   2.070  1.00  0.00     0.169 HD
HETATM   15  O   UNL     1      40.520 -17.251   2.500  1.00  0.00    -0.267 OA
BRANCH  13  16
HETATM   16  C   UNL     1      41.652 -15.093   0.787  1.00  0.00     0.035 A 
HETATM   17  C   UNL     1      41.306 -15.669  -0.439  1.00  0.00     0.031 A 
HETATM   18  C   UNL     1      40.758 -14.889  -1.464  1.00  0.00     0.026 A 
HETATM   19  C   UNL     1      40.556 -13.527  -1.268  1.00  0.00     0.034 A 
HETATM   20 CL   UNL     1      39.897 -12.566  -2.532  1.00  0.00    -0.084 Cl
HETATM   21  C   UNL     1      40.889 -12.939  -0.051  1.00  0.00     0.026 A 
HETATM   22  C   UNL     1      41.429 -13.723   0.975  1.00  0.00     0.031 A 
ENDBRANCH  13  16
ENDBRANCH  10  12
BRANCH   9  23
HETATM   23  C   UNL     1      42.659 -15.753   5.405  1.00  0.00     0.005 A 
HETATM   24  C   UNL     1      41.680 -14.741   5.433  1.00  0.00     0.076 A 
HETATM   25  C   UNL     1      42.031 -13.441   5.813  1.00  0.00     0.037 A 
HETATM   26  C   UNL     1      43.352 -13.130   6.144  1.00  0.00     0.003 A 
HETATM   27  C   UNL     1      44.333 -14.113   6.091  1.00  0.00     0.001 A 
HETATM   28  C   UNL     1      43.993 -15.413   5.719  1.00  0.00     0.012 A 
BRANCH  24  29
HETATM   29  O   UNL     1      40.412 -15.125   5.088  1.00  0.00    -0.355 OA
HETATM   30  C   UNL     1      39.647 -14.225   4.295  1.00  0.00     0.210 C 
ENDBRANCH  24  29
ENDBRANCH   9  23
TORSDOF 4
ENDMDL
MODEL 7
REMARK VINA RESULT:      -7.0      3.817      7.353
REMARK  4 active torsions:
REMARK  status: ('A' for Active; 'I' for Inactive)
REMARK    1  A    between atoms: C_9  and  C_10 
REMARK    2  A    between atoms: C_11  and  O_12 
REMARK    3  A    between atoms: C_18  and  C_19 
REMARK       I    between atoms: C_19  and  N_20 
REMARK    4  A    between atoms: N_20  and  C_21 
ROOT
HETATM    1  C   UNL     1      41.049 -15.493  -0.871  1.00  0.00     0.070 C 
HETATM    2  C   UNL     1      41.554 -16.043   0.439  1.00  0.00     0.037 C 
HETATM    3  N   UNL     1      42.619 -16.936   0.344  1.00  0.00    -0.192 N 
HETATM    4  C   UNL     1      42.979 -17.744   1.361  1.00  0.00     0.725 A 
HETATM    5  N   UNL     1      42.434 -17.550   2.602  1.00  0.00    -0.084 N 
HETATM    6  N   UNL     1      42.850 -18.495   3.472  1.00  0.00    -0.149 NA
HETATM    7  C   UNL     1      43.674 -19.204   2.691  1.00  0.00     0.275 A 
HETATM    8  N   UNL     1      43.786 -18.774   1.394  1.00  0.00    -0.054 NA
HETATM    9  C   UNL     1      41.497 -16.463   2.926  1.00  0.00     0.205 C 
HETATM   10  C   UNL     1      40.999 -15.787   1.651  1.00  0.00     0.063 C 
HETATM   11  H   UNL     1      42.936 -17.187  -0.589  1.00  0.00     0.184 HD
ENDROOT
BRANCH  10  12
HETATM   12  C   UNL     1      39.776 -14.965   1.827  1.00  0.00     0.256 C 
HETATM   13  N   UNL     1      40.033 -13.610   1.888  1.00  0.00    -0.323 N 
HETATM   14  H   UNL     1      41.004 -13.327   1.845  1.00  0.00     0.169 HD
HETATM   15  O   UNL     1      38.689 -15.522   1.888  1.00  0.00    -0.267 OA
BRANCH  13  16
HETATM   16  C   UNL     1      39.082 -12.569   1.929  1.00  0.00     0.035 A 
HETATM   17  C   UNL     1      38.208 -12.270   0.880  1.00  0.00     0.031 A 
HETATM   18  C   UNL     1      37.314 -11.198   0.982  1.00  0.00     0.026 A 
HETATM   19  C   UNL     1      37.292 -10.418   2.133  1.00  0.00     0.034 A 
HETATM   20 CL   UNL     1      36.204  -9.092   2.251  1.00  0.00    -0.084 Cl
HETATM   21  C   UNL     1      38.152 -10.707   3.189  1.00  0.00     0.026 A 
HETATM   22  C   UNL     1      39.039 -11.785   3.088  1.00  0.00     0.031 A 
ENDBRANCH  13  16
ENDBRANCH  10  12
BRANCH   9  23
HETATM   23  C   UNL     1      42.161 -15.460   3.875  1.00  0.00     0.005 A 
HETATM   24  C   UNL     1      41.620 -15.217   5.153  1.00  0.00     0.076 A 
HETATM   25  C   UNL     1      42.248 -14.310   6.015  1.00  0.00     0.037 A 
HETATM   26  C   UNL     1      43.396 -13.624   5.611  1.00  0.00     0.003 A 
HETATM   27  C   UNL     1      43.921 -13.833   4.341  1.00  0.00     0.001 A 
HETATM   28  C   UNL     1      43.307 -14.738   3.477  1.00  0.00     0.012 A 
BRANCH  24  29
HETATM   29  O   UNL     1      40.491 -15.922   5.470  1.00  0.00    -0.355 OA
HETATM   30  C   UNL     1      40.604 -16.929   6.469  1.00  0.00     0.210 C 
ENDBRANCH  24  29
ENDBRANCH   9  23
TORSDOF 4
ENDMDL
MODEL 8
REMARK VINA RESULT:      -6.9      3.532      6.519
REMARK  4 active torsions:
REMARK  status: ('A' for Active; 'I' for Inactive)
REMARK    1  A    between atoms: C_9  and  C_10 
REMARK    2  A    between atoms: C_11  and  O_12 
REMARK    3  A    between atoms: C_18  and  C_19 
REMARK       I    between atoms: C_19  and  N_20 
REMARK    4  A    between atoms: N_20  and  C_21 
ROOT
HETATM    1  C   UNL     1      44.016 -17.441   1.582  1.00  0.00     0.070 C 
HETATM    2  C   UNL     1      43.706 -17.329   3.054  1.00  0.00     0.037 C 
HETATM    3  N   UNL     1      44.240 -18.333   3.858  1.00  0.00    -0.192 N 
HETATM    4  C   UNL     1      43.812 -18.558   5.117  1.00  0.00     0.725 A 
HETATM    5  N   UNL     1      42.979 -17.652   5.717  1.00  0.00    -0.084 N 
HETATM    6  N   UNL     1      42.595 -18.077   6.939  1.00  0.00    -0.149 NA
HETATM    7  C   UNL     1      43.265 -19.232   7.021  1.00  0.00     0.275 A 
HETATM    8  N   UNL     1      44.027 -19.560   5.930  1.00  0.00    -0.054 NA
HETATM    9  C   UNL     1      42.547 -16.392   5.091  1.00  0.00     0.205 C 
HETATM   10  C   UNL     1      42.903 -16.384   3.606  1.00  0.00     0.063 C 
HETATM   11  H   UNL     1      44.745 -19.084   3.393  1.00  0.00     0.184 HD
ENDROOT
BRANCH  10  12
HETATM   12  C   UNL     1      42.179 -15.365   2.805  1.00  0.00     0.256 C 
HETATM   13  N   UNL     1      40.807 -15.455   2.919  1.00  0.00    -0.323 N 
HETATM   14  H   UNL     1      40.444 -16.207   3.492  1.00  0.00     0.169 HD
HETATM   15  O   UNL     1      42.823 -14.558   2.149  1.00  0.00    -0.267 OA
BRANCH  13  16
HETATM   16  C   UNL     1      39.853 -14.565   2.384  1.00  0.00     0.035 A 
HETATM   17  C   UNL     1      39.863 -13.185   2.605  1.00  0.00     0.031 A 
HETATM   18  C   UNL     1      38.862 -12.369   2.067  1.00  0.00     0.026 A 
HETATM   19  C   UNL     1      37.842 -12.931   1.306  1.00  0.00     0.034 A 
HETATM   20 CL   UNL     1      36.603 -11.931   0.658  1.00  0.00    -0.084 Cl
HETATM   21  C   UNL     1      37.821 -14.303   1.071  1.00  0.00     0.026 A 
HETATM   22  C   UNL     1      38.828 -15.116   1.603  1.00  0.00     0.031 A 
ENDBRANCH  13  16
ENDBRANCH  10  12
BRANCH   9  23
HETATM   23  C   UNL     1      43.165 -15.199   5.827  1.00  0.00     0.005 A 
HETATM   24  C   UNL     1      42.398 -14.048   6.094  1.00  0.00     0.076 A 
HETATM   25  C   UNL     1      42.971 -12.972   6.782  1.00  0.00     0.037 A 
HETATM   26  C   UNL     1      44.307 -13.019   7.187  1.00  0.00     0.003 A 
HETATM   27  C   UNL     1      45.082 -14.136   6.901  1.00  0.00     0.001 A 
HETATM   28  C   UNL     1      44.520 -15.216   6.222  1.00  0.00     0.012 A 
BRANCH  24  29
HETATM   29  O   UNL     1      41.101 -14.078   5.659  1.00  0.00    -0.355 OA
HETATM   30  C   UNL     1      40.219 -13.077   6.153  1.00  0.00     0.210 C 
ENDBRANCH  24  29
ENDBRANCH   9  23
TORSDOF 4
ENDMDL
MODEL 9
REMARK VINA RESULT:      -6.7      3.436      5.870
REMARK  4 active torsions:
REMARK  status: ('A' for Active; 'I' for Inactive)
REMARK    1  A    between atoms: C_9  and  C_10 
REMARK    2  A    between atoms: C_11  and  O_12 
REMARK    3  A    between atoms: C_18  and  C_19 
REMARK       I    between atoms: C_19  and  N_20 
REMARK    4  A    between atoms: N_20  and  C_21 
ROOT
HETATM    1  C   UNL     1      43.939 -17.500   1.917  1.00  0.00     0.070 C 
HETATM    2  C   UNL     1      43.312 -17.170   3.249  1.00  0.00     0.037 C 
HETATM    3  N   UNL     1      44.097 -17.444   4.366  1.00  0.00    -0.192 N 
HETATM    4  C   UNL     1      43.587 -17.504   5.613  1.00  0.00     0.725 A 
HETATM    5  N   UNL     1      42.305 -17.080   5.838  1.00  0.00    -0.084 N 
HETATM    6  N   UNL     1      41.940 -17.285   7.122  1.00  0.00    -0.149 NA
HETATM    7  C   UNL     1      43.069 -17.804   7.618  1.00  0.00     0.275 A 
HETATM    8  N   UNL     1      44.104 -17.948   6.731  1.00  0.00    -0.054 NA
HETATM    9  C   UNL     1      41.438 -16.501   4.800  1.00  0.00     0.205 C 
HETATM   10  C   UNL     1      42.045 -16.713   3.415  1.00  0.00     0.063 C 
HETATM   11  H   UNL     1      44.999 -17.887   4.206  1.00  0.00     0.184 HD
ENDROOT
BRANCH  10  12
HETATM   12  C   UNL     1      41.093 -16.533   2.291  1.00  0.00     0.256 C 
HETATM   13  N   UNL     1      41.276 -15.350   1.605  1.00  0.00    -0.323 N 
HETATM   14  H   UNL     1      41.995 -14.727   1.951  1.00  0.00     0.169 HD
HETATM   15  O   UNL     1      40.270 -17.409   2.063  1.00  0.00    -0.267 OA
BRANCH  13  16
HETATM   16  C   UNL     1      40.618 -14.944   0.425  1.00  0.00     0.035 A 
HETATM   17  C   UNL     1      41.082 -15.227  -0.863  1.00  0.00     0.031 A 
HETATM   18  C   UNL     1      40.391 -14.762  -1.987  1.00  0.00     0.026 A 
HETATM   19  C   UNL     1      39.233 -14.008  -1.829  1.00  0.00     0.034 A 
HETATM   20 CL   UNL     1      38.393 -13.423  -3.210  1.00  0.00    -0.084 Cl
HETATM   21  C   UNL     1      38.754 -13.723  -0.553  1.00  0.00     0.026 A 
HETATM   22  C   UNL     1      39.442 -14.197   0.570  1.00  0.00     0.031 A 
ENDBRANCH  13  16
ENDBRANCH  10  12
BRANCH   9  23
HETATM   23  C   UNL     1      41.192 -15.016   5.087  1.00  0.00     0.005 A 
HETATM   24  C   UNL     1      42.272 -14.145   5.327  1.00  0.00     0.076 A 
HETATM   25  C   UNL     1      42.034 -12.788   5.571  1.00  0.00     0.037 A 
HETATM   26  C   UNL     1      40.729 -12.291   5.604  1.00  0.00     0.003 A 
HETATM   27  C   UNL     1      39.653 -13.146   5.400  1.00  0.00     0.001 A 
HETATM   28  C   UNL     1      39.880 -14.499   5.149  1.00  0.00     0.012 A 
BRANCH  24  29
HETATM   29  O   UNL     1      43.518 -14.710   5.285  1.00  0.00    -0.355 OA
HETATM   30  C   UNL     1      44.522 -14.151   6.124  1.00  0.00     0.210 C 
ENDBRANCH  24  29
ENDBRANCH   9  23
TORSDOF 4
ENDMDL
MODEL 10
REMARK VINA RESULT:      -6.7      3.471      5.294
REMARK  4 active torsions:
REMARK  status: ('A' for Active; 'I' for Inactive)
REMARK    1  A    between atoms: C_9  and  C_10 
REMARK    2  A    between atoms: C_11  and  O_12 
REMARK    3  A    between atoms: C_18  and  C_19 
REMARK       I    between atoms: C_19  and  N_20 
REMARK    4  A    between atoms: N_20  and  C_21 
ROOT
HETATM    1  C   UNL     1      40.948 -15.646  -2.287  1.00  0.00     0.070 C 
HETATM    2  C   UNL     1      41.300 -14.381  -1.545  1.00  0.00     0.037 C 
HETATM    3  N   UNL     1      41.440 -13.242  -2.333  1.00  0.00    -0.192 N 
HETATM    4  C   UNL     1      42.046 -12.122  -1.888  1.00  0.00     0.725 A 
HETATM    5  N   UNL     1      42.351 -12.004  -0.558  1.00  0.00    -0.084 N 
HETATM    6  N   UNL     1      43.018 -10.857  -0.309  1.00  0.00    -0.149 NA
HETATM    7  C   UNL     1      43.047 -10.319  -1.534  1.00  0.00     0.275 A 
HETATM    8  N   UNL     1      42.457 -11.057  -2.527  1.00  0.00    -0.054 NA
HETATM    9  C   UNL     1      42.011 -13.016   0.455  1.00  0.00     0.205 C 
HETATM   10  C   UNL     1      41.556 -14.311  -0.213  1.00  0.00     0.063 C 
HETATM   11  H   UNL     1      41.349 -13.356  -3.340  1.00  0.00     0.184 HD
ENDROOT
BRANCH  10  12
HETATM   12  C   UNL     1      41.571 -15.501   0.674  1.00  0.00     0.256 C 
HETATM   13  N   UNL     1      42.838 -15.999   0.897  1.00  0.00    -0.323 N 
HETATM   14  H   UNL     1      43.601 -15.538   0.418  1.00  0.00     0.169 HD
HETATM   15  O   UNL     1      40.514 -15.918   1.126  1.00  0.00    -0.267 OA
BRANCH  13  16
HETATM   16  C   UNL     1      43.196 -17.038   1.782  1.00  0.00     0.035 A 
HETATM   17  C   UNL     1      43.320 -16.876   3.165  1.00  0.00     0.031 A 
HETATM   18  C   UNL     1      43.712 -17.947   3.975  1.00  0.00     0.026 A 
HETATM   19  C   UNL     1      43.985 -19.186   3.405  1.00  0.00     0.034 A 
HETATM   20 CL   UNL     1      44.482 -20.498   4.399  1.00  0.00    -0.084 Cl
HETATM   21  C   UNL     1      43.859 -19.366   2.031  1.00  0.00     0.026 A 
HETATM   22  C   UNL     1      43.459 -18.295   1.223  1.00  0.00     0.031 A 
ENDBRANCH  13  16
ENDBRANCH  10  12
BRANCH   9  23
HETATM   23  C   UNL     1      40.945 -12.468   1.410  1.00  0.00     0.005 A 
HETATM   24  C   UNL     1      39.654 -12.157   0.939  1.00  0.00     0.076 A 
HETATM   25  C   UNL     1      38.686 -11.673   1.826  1.00  0.00     0.037 A 
HETATM   26  C   UNL     1      38.994 -11.472   3.174  1.00  0.00     0.003 A 
HETATM   27  C   UNL     1      40.273 -11.746   3.643  1.00  0.00     0.001 A 
HETATM   28  C   UNL     1      41.243 -12.234   2.770  1.00  0.00     0.012 A 
BRANCH  24  29
HETATM   29  O   UNL     1      39.434 -12.374  -0.394  1.00  0.00    -0.355 OA
HETATM   30  C   UNL     1      38.418 -11.605  -1.026  1.00  0.00     0.210 C 
ENDBRANCH  24  29
ENDBRANCH   9  23
TORSDOF 4
ENDMDL
