MODEL 1
REMARK VINA RESULT:      -9.0      0.000      0.000
REMARK  6 active torsions:
REMARK  status: ('A' for Active; 'I' for Inactive)
REMARK    1  A    between atoms: C_2  and  C_3 
REMARK    2  A    between atoms: C_3  and  C_4 
REMARK    3  A    between atoms: C_3  and  C_11 
REMARK    4  A    between atoms: C_11  and  C_12 
REMARK       I    between atoms: C_12  and  N_13 
REMARK    5  A    between atoms: N_13  and  C_14 
REMARK    6  A    between atoms: C_21  and  C_22 
REMARK       I    between atoms: C_22  and  N_23 
ROOT
HETATM    1  C   UNL     1      41.152 -16.492   1.003  1.00  0.00     0.035 A 
HETATM    2  C   UNL     1      41.390 -15.948  -0.267  1.00  0.00     0.046 A 
HETATM    3  C   UNL     1      40.947 -14.637  -0.557  1.00  0.00     0.030 A 
HETATM    4  C   UNL     1      40.268 -13.927   0.425  1.00  0.00     0.063 A 
HETATM    5  N   UNL     1      39.968 -12.720  -0.141  1.00  0.00    -0.277 N 
HETATM    6  H   UNL     1      39.469 -11.948   0.287  1.00  0.00     0.189 HD
HETATM    7  N   UNL     1      40.408 -12.570  -1.400  1.00  0.00    -0.168 NA
HETATM    8  C   UNL     1      41.020 -13.747  -1.671  1.00  0.00     0.156 A 
HETATM    9  C   UNL     1      40.008 -14.440   1.696  1.00  0.00     0.034 A 
HETATM   10  C   UNL     1      40.472 -15.732   1.966  1.00  0.00     0.032 A 
ENDROOT
BRANCH   1  11
HETATM   11  N   UNL     1      41.602 -17.768   1.408  1.00  0.00    -0.327 N 
HETATM   12  C   UNL     1      42.900 -18.240   1.415  1.00  0.00     0.222 C 
HETATM   13  O   UNL     1      43.879 -17.652   0.964  1.00  0.00    -0.273 OA
HETATM   14  H   UNL     1      40.873 -18.420   1.652  1.00  0.00     0.169 HD
BRANCH  12  15
HETATM   15  C   UNL     1      43.096 -19.560   2.159  1.00  0.00     0.112 C 
BRANCH  15  16
HETATM   16  C   UNL     1      44.267 -19.637   3.156  1.00  0.00     0.027 C 
BRANCH  16  17
HETATM   17  C   UNL     1      44.787 -21.084   3.331  1.00  0.00     0.005 C 
HETATM   18  C   UNL     1      44.410 -22.073   2.236  1.00  0.00     0.006 C 
ENDBRANCH  16  17
BRANCH  16  19
HETATM   19  C   UNL     1      44.013 -18.966   4.497  1.00  0.00    -0.053 A 
HETATM   20  C   UNL     1      42.759 -18.461   4.862  1.00  0.00     0.008 A 
HETATM   21  C   UNL     1      42.561 -17.877   6.118  1.00  0.00     0.007 A 
HETATM   22  C   UNL     1      43.610 -17.789   7.036  1.00  0.00    -0.062 A 
HETATM   23  C   UNL     1      43.393 -17.135   8.369  1.00  0.00     0.048 C 
HETATM   24  C   UNL     1      44.868 -18.274   6.674  1.00  0.00     0.007 A 
HETATM   25  C   UNL     1      45.065 -18.865   5.422  1.00  0.00     0.008 A 
ENDBRANCH  16  19
ENDBRANCH  15  16
ENDBRANCH  12  15
ENDBRANCH   1  11
BRANCH   8  26
HETATM   26  C   UNL     1      41.663 -13.983  -2.971  1.00  0.00     0.270 C 
HETATM   27  N   UNL     1      42.898 -13.408  -3.095  1.00  0.00    -0.365 N 
HETATM   28  H   UNL     1      43.273 -12.892  -2.309  1.00  0.00     0.159 HD
HETATM   29  H   UNL     1      43.424 -13.535  -3.945  1.00  0.00     0.159 HD
HETATM   30  O   UNL     1      41.176 -14.641  -3.885  1.00  0.00    -0.266 OA
ENDBRANCH   8  26
TORSDOF 6
ENDMDL
MODEL 2
REMARK VINA RESULT:      -8.6      5.882      8.904
REMARK  6 active torsions:
REMARK  status: ('A' for Active; 'I' for Inactive)
REMARK    1  A    between atoms: C_2  and  C_3 
REMARK    2  A    between atoms: C_3  and  C_4 
REMARK    3  A    between atoms: C_3  and  C_11 
REMARK    4  A    between atoms: C_11  and  C_12 
REMARK       I    between atoms: C_12  and  N_13 
REMARK    5  A    between atoms: N_13  and  C_14 
REMARK    6  A    between atoms: C_21  and  C_22 
REMARK       I    between atoms: C_22  and  N_23 
ROOT
HETATM    1  C   UNL     1      44.727 -14.037   7.387  1.00  0.00     0.035 A 
HETATM    2  C   UNL     1      44.123 -13.487   8.527  1.00  0.00     0.046 A 
HETATM    3  C   UNL     1      44.741 -12.399   9.185  1.00  0.00     0.030 A 
HETATM    4  C   UNL     1      45.947 -11.915   8.692  1.00  0.00     0.063 A 
HETATM    5  N   UNL     1      46.293 -10.889   9.524  1.00  0.00    -0.277 N 
HETATM    6  H   UNL     1      47.121 -10.305   9.469  1.00  0.00     0.189 HD
HETATM    7  N   UNL     1      45.411 -10.645  10.506  1.00  0.00    -0.168 NA
HETATM    8  C   UNL     1      44.443 -11.570  10.308  1.00  0.00     0.156 A 
HETATM    9  C   UNL     1      46.579 -12.443   7.566  1.00  0.00     0.034 A 
HETATM   10  C   UNL     1      45.939 -13.507   6.921  1.00  0.00     0.032 A 
ENDROOT
BRANCH   1  11
HETATM   11  N   UNL     1      44.163 -15.086   6.628  1.00  0.00    -0.327 N 
HETATM   12  C   UNL     1      43.630 -16.272   7.096  1.00  0.00     0.222 C 
HETATM   13  O   UNL     1      43.656 -16.659   8.261  1.00  0.00    -0.273 OA
HETATM   14  H   UNL     1      44.224 -14.971   5.628  1.00  0.00     0.169 HD
BRANCH  12  15
HETATM   15  C   UNL     1      42.856 -17.079   6.055  1.00  0.00     0.112 C 
BRANCH  15  16
HETATM   16  C   UNL     1      43.303 -16.944   4.588  1.00  0.00     0.027 C 
BRANCH  16  17
HETATM   17  C   UNL     1      42.313 -16.096   3.754  1.00  0.00     0.005 C 
HETATM   18  C   UNL     1      41.070 -15.601   4.482  1.00  0.00     0.006 C 
ENDBRANCH  16  17
BRANCH  16  19
HETATM   19  C   UNL     1      43.636 -18.257   3.896  1.00  0.00    -0.053 A 
HETATM   20  C   UNL     1      44.435 -19.241   4.491  1.00  0.00     0.008 A 
HETATM   21  C   UNL     1      44.694 -20.448   3.832  1.00  0.00     0.007 A 
HETATM   22  C   UNL     1      44.158 -20.697   2.566  1.00  0.00    -0.062 A 
HETATM   23  C   UNL     1      44.466 -21.982   1.856  1.00  0.00     0.048 C 
HETATM   24  C   UNL     1      43.376 -19.713   1.957  1.00  0.00     0.007 A 
HETATM   25  C   UNL     1      43.110 -18.511   2.619  1.00  0.00     0.008 A 
ENDBRANCH  16  19
ENDBRANCH  15  16
ENDBRANCH  12  15
ENDBRANCH   1  11
BRANCH   8  26
HETATM   26  C   UNL     1      43.262 -11.627  11.181  1.00  0.00     0.270 C 
HETATM   27  N   UNL     1      42.079 -11.391  10.535  1.00  0.00    -0.365 N 
HETATM   28  H   UNL     1      42.098 -11.213   9.539  1.00  0.00     0.159 HD
HETATM   29  H   UNL     1      41.214 -11.431  11.050  1.00  0.00     0.159 HD
HETATM   30  O   UNL     1      43.290 -11.874  12.382  1.00  0.00    -0.266 OA
ENDBRANCH   8  26
TORSDOF 6
ENDMDL
MODEL 3
REMARK VINA RESULT:      -8.6      2.007      3.696
REMARK  6 active torsions:
REMARK  status: ('A' for Active; 'I' for Inactive)
REMARK    1  A    between atoms: C_2  and  C_3 
REMARK    2  A    between atoms: C_3  and  C_4 
REMARK    3  A    between atoms: C_3  and  C_11 
REMARK    4  A    between atoms: C_11  and  C_12 
REMARK       I    between atoms: C_12  and  N_13 
REMARK    5  A    between atoms: N_13  and  C_14 
REMARK    6  A    between atoms: C_21  and  C_22 
REMARK       I    between atoms: C_22  and  N_23 
ROOT
HETATM    1  C   UNL     1      41.101 -14.284   1.336  1.00  0.00     0.035 A 
HETATM    2  C   UNL     1      41.032 -14.844   0.052  1.00  0.00     0.046 A 
HETATM    3  C   UNL     1      40.049 -14.385  -0.855  1.00  0.00     0.030 A 
HETATM    4  C   UNL     1      39.161 -13.400  -0.439  1.00  0.00     0.063 A 
HETATM    5  N   UNL     1      38.343 -13.174  -1.510  1.00  0.00    -0.277 N 
HETATM    6  H   UNL     1      37.571 -12.519  -1.565  1.00  0.00     0.189 HD
HETATM    7  N   UNL     1      38.630 -13.910  -2.596  1.00  0.00    -0.168 NA
HETATM    8  C   UNL     1      39.685 -14.662  -2.207  1.00  0.00     0.156 A 
HETATM    9  C   UNL     1      39.196 -12.828   0.832  1.00  0.00     0.034 A 
HETATM   10  C   UNL     1      40.189 -13.285   1.706  1.00  0.00     0.032 A 
ENDROOT
BRANCH   1  11
HETATM   11  N   UNL     1      42.078 -14.634   2.294  1.00  0.00    -0.327 N 
HETATM   12  C   UNL     1      41.928 -15.465   3.387  1.00  0.00     0.222 C 
HETATM   13  O   UNL     1      40.871 -15.961   3.770  1.00  0.00    -0.273 OA
HETATM   14  H   UNL     1      42.963 -14.161   2.192  1.00  0.00     0.169 HD
BRANCH  12  15
HETATM   15  C   UNL     1      43.233 -15.858   4.075  1.00  0.00     0.112 C 
BRANCH  15  16
HETATM   16  C   UNL     1      43.237 -17.176   4.872  1.00  0.00     0.027 C 
BRANCH  16  17
HETATM   17  C   UNL     1      44.141 -17.094   6.126  1.00  0.00     0.005 C 
HETATM   18  C   UNL     1      44.147 -15.763   6.867  1.00  0.00     0.006 C 
ENDBRANCH  16  17
BRANCH  16  19
HETATM   19  C   UNL     1      43.531 -18.421   4.050  1.00  0.00    -0.053 A 
HETATM   20  C   UNL     1      43.014 -18.616   2.764  1.00  0.00     0.008 A 
HETATM   21  C   UNL     1      43.332 -19.763   2.030  1.00  0.00     0.007 A 
HETATM   22  C   UNL     1      44.177 -20.739   2.565  1.00  0.00    -0.062 A 
HETATM   23  C   UNL     1      44.488 -21.980   1.780  1.00  0.00     0.048 C 
HETATM   24  C   UNL     1      44.683 -20.562   3.854  1.00  0.00     0.007 A 
HETATM   25  C   UNL     1      44.372 -19.412   4.585  1.00  0.00     0.008 A 
ENDBRANCH  16  19
ENDBRANCH  15  16
ENDBRANCH  12  15
ENDBRANCH   1  11
BRANCH   8  26
HETATM   26  C   UNL     1      40.322 -15.608  -3.135  1.00  0.00     0.270 C 
HETATM   27  N   UNL     1      39.508 -16.634  -3.531  1.00  0.00    -0.365 N 
HETATM   28  H   UNL     1      38.558 -16.661  -3.181  1.00  0.00     0.159 HD
HETATM   29  H   UNL     1      39.853 -17.319  -4.184  1.00  0.00     0.159 HD
HETATM   30  O   UNL     1      41.472 -15.514  -3.552  1.00  0.00    -0.266 OA
ENDBRANCH   8  26
TORSDOF 6
ENDMDL
MODEL 4
REMARK VINA RESULT:      -8.5      2.032      3.713
REMARK  6 active torsions:
REMARK  status: ('A' for Active; 'I' for Inactive)
REMARK    1  A    between atoms: C_2  and  C_3 
REMARK    2  A    between atoms: C_3  and  C_4 
REMARK    3  A    between atoms: C_3  and  C_11 
REMARK    4  A    between atoms: C_11  and  C_12 
REMARK       I    between atoms: C_12  and  N_13 
REMARK    5  A    between atoms: N_13  and  C_14 
REMARK    6  A    between atoms: C_21  and  C_22 
REMARK       I    between atoms: C_22  and  N_23 
ROOT
HETATM    1  C   UNL     1      39.640 -14.527   1.161  1.00  0.00     0.035 A 
HETATM    2  C   UNL     1      40.289 -14.539  -0.083  1.00  0.00     0.046 A 
HETATM    3  C   UNL     1      39.605 -14.074  -1.229  1.00  0.00     0.030 A 
HETATM    4  C   UNL     1      38.294 -13.633  -1.094  1.00  0.00     0.063 A 
HETATM    5  N   UNL     1      37.906 -13.260  -2.350  1.00  0.00    -0.277 N 
HETATM    6  H   UNL     1      37.003 -12.892  -2.629  1.00  0.00     0.189 HD
HETATM    7  N   UNL     1      38.853 -13.399  -3.291  1.00  0.00    -0.168 NA
HETATM    8  C   UNL     1      39.912 -13.898  -2.612  1.00  0.00     0.156 A 
HETATM    9  C   UNL     1      37.616 -13.615   0.125  1.00  0.00     0.034 A 
HETATM   10  C   UNL     1      38.320 -14.062   1.248  1.00  0.00     0.032 A 
ENDROOT
BRANCH   1  11
HETATM   11  N   UNL     1      40.255 -14.917   2.371  1.00  0.00    -0.327 N 
HETATM   12  C   UNL     1      40.547 -16.200   2.792  1.00  0.00     0.222 C 
HETATM   13  O   UNL     1      40.219 -17.235   2.217  1.00  0.00    -0.273 OA
HETATM   14  H   UNL     1      40.433 -14.167   3.020  1.00  0.00     0.169 HD
BRANCH  12  15
HETATM   15  C   UNL     1      41.452 -16.279   4.019  1.00  0.00     0.112 C 
BRANCH  15  16
HETATM   16  C   UNL     1      42.958 -16.485   3.769  1.00  0.00     0.027 C 
BRANCH  16  17
HETATM   17  C   UNL     1      43.534 -15.433   2.792  1.00  0.00     0.005 C 
HETATM   18  C   UNL     1      43.626 -14.005   3.316  1.00  0.00     0.006 C 
ENDBRANCH  16  17
BRANCH  16  19
HETATM   19  C   UNL     1      43.354 -17.898   3.367  1.00  0.00    -0.053 A 
HETATM   20  C   UNL     1      43.263 -18.361   2.049  1.00  0.00     0.008 A 
HETATM   21  C   UNL     1      43.665 -19.658   1.717  1.00  0.00     0.007 A 
HETATM   22  C   UNL     1      44.169 -20.521   2.695  1.00  0.00    -0.062 A 
HETATM   23  C   UNL     1      44.570 -21.920   2.333  1.00  0.00     0.048 C 
HETATM   24  C   UNL     1      44.245 -20.074   4.015  1.00  0.00     0.007 A 
HETATM   25  C   UNL     1      43.852 -18.774   4.346  1.00  0.00     0.008 A 
ENDBRANCH  16  19
ENDBRANCH  15  16
ENDBRANCH  12  15
ENDBRANCH   1  11
BRANCH   8  26
HETATM   26  C   UNL     1      41.183 -14.180  -3.295  1.00  0.00     0.270 C 
HETATM   27  N   UNL     1      41.903 -13.062  -3.616  1.00  0.00    -0.365 N 
HETATM   28  H   UNL     1      41.531 -12.156  -3.358  1.00  0.00     0.159 HD
HETATM   29  H   UNL     1      42.799 -13.159  -4.067  1.00  0.00     0.159 HD
HETATM   30  O   UNL     1      41.602 -15.302  -3.560  1.00  0.00    -0.266 OA
ENDBRANCH   8  26
TORSDOF 6
ENDMDL
MODEL 5
REMARK VINA RESULT:      -8.3      2.736      8.785
REMARK  6 active torsions:
REMARK  status: ('A' for Active; 'I' for Inactive)
REMARK    1  A    between atoms: C_2  and  C_3 
REMARK    2  A    between atoms: C_3  and  C_4 
REMARK    3  A    between atoms: C_3  and  C_11 
REMARK    4  A    between atoms: C_11  and  C_12 
REMARK       I    between atoms: C_12  and  N_13 
REMARK    5  A    between atoms: N_13  and  C_14 
REMARK    6  A    between atoms: C_21  and  C_22 
REMARK       I    between atoms: C_22  and  N_23 
ROOT
HETATM    1  C   UNL     1      43.382 -17.713   2.262  1.00  0.00     0.035 A 
HETATM    2  C   UNL     1      43.731 -19.072   2.277  1.00  0.00     0.046 A 
HETATM    3  C   UNL     1      44.143 -19.671   3.489  1.00  0.00     0.030 A 
HETATM    4  C   UNL     1      44.209 -18.888   4.635  1.00  0.00     0.063 A 
HETATM    5  N   UNL     1      44.636 -19.728   5.624  1.00  0.00    -0.277 N 
HETATM    6  H   UNL     1      44.803 -19.496   6.597  1.00  0.00     0.189 HD
HETATM    7  N   UNL     1      44.837 -20.995   5.231  1.00  0.00    -0.168 NA
HETATM    8  C   UNL     1      44.532 -20.977   3.913  1.00  0.00     0.156 A 
HETATM    9  C   UNL     1      43.877 -17.533   4.654  1.00  0.00     0.034 A 
HETATM   10  C   UNL     1      43.454 -16.967   3.446  1.00  0.00     0.032 A 
ENDROOT
BRANCH   1  11
HETATM   11  N   UNL     1      42.907 -17.038   1.117  1.00  0.00    -0.327 N 
HETATM   12  C   UNL     1      41.595 -16.893   0.708  1.00  0.00     0.222 C 
HETATM   13  O   UNL     1      40.619 -17.428   1.228  1.00  0.00    -0.273 OA
HETATM   14  H   UNL     1      43.623 -16.683   0.502  1.00  0.00     0.169 HD
BRANCH  12  15
HETATM   15  C   UNL     1      41.385 -15.883  -0.419  1.00  0.00     0.112 C 
BRANCH  15  16
HETATM   16  C   UNL     1      41.589 -14.396  -0.076  1.00  0.00     0.027 C 
BRANCH  16  17
HETATM   17  C   UNL     1      40.477 -13.856   0.856  1.00  0.00     0.005 C 
HETATM   18  C   UNL     1      39.043 -14.074   0.391  1.00  0.00     0.006 C 
ENDBRANCH  16  17
BRANCH  16  19
HETATM   19  C   UNL     1      41.806 -13.486  -1.275  1.00  0.00    -0.053 A 
HETATM   20  C   UNL     1      42.493 -12.269  -1.183  1.00  0.00     0.008 A 
HETATM   21  C   UNL     1      42.697 -11.475  -2.316  1.00  0.00     0.007 A 
HETATM   22  C   UNL     1      42.220 -11.880  -3.566  1.00  0.00    -0.062 A 
HETATM   23  C   UNL     1      42.419 -11.007  -4.769  1.00  0.00     0.048 C 
HETATM   24  C   UNL     1      41.518 -13.083  -3.663  1.00  0.00     0.007 A 
HETATM   25  C   UNL     1      41.321 -13.882  -2.532  1.00  0.00     0.008 A 
ENDBRANCH  16  19
ENDBRANCH  15  16
ENDBRANCH  12  15
ENDBRANCH   1  11
BRANCH   8  26
HETATM   26  C   UNL     1      44.608 -22.201   3.103  1.00  0.00     0.270 C 
HETATM   27  N   UNL     1      44.822 -23.340   3.830  1.00  0.00    -0.365 N 
HETATM   28  H   UNL     1      44.897 -23.264   4.837  1.00  0.00     0.159 HD
HETATM   29  H   UNL     1      44.867 -24.230   3.362  1.00  0.00     0.159 HD
HETATM   30  O   UNL     1      44.483 -22.243   1.883  1.00  0.00    -0.266 OA
ENDBRANCH   8  26
TORSDOF 6
ENDMDL
MODEL 6
REMARK VINA RESULT:      -8.1      1.661      1.959
REMARK  6 active torsions:
REMARK  status: ('A' for Active; 'I' for Inactive)
REMARK    1  A    between atoms: C_2  and  C_3 
REMARK    2  A    between atoms: C_3  and  C_4 
REMARK    3  A    between atoms: C_3  and  C_11 
REMARK    4  A    between atoms: C_11  and  C_12 
REMARK       I    between atoms: C_12  and  N_13 
REMARK    5  A    between atoms: N_13  and  C_14 
REMARK    6  A    between atoms: C_21  and  C_22 
REMARK       I    between atoms: C_22  and  N_23 
ROOT
HETATM    1  C   UNL     1      41.571 -15.205   0.441  1.00  0.00     0.035 A 
HETATM    2  C   UNL     1      40.992 -15.314  -0.832  1.00  0.00     0.046 A 
HETATM    3  C   UNL     1      39.939 -14.443  -1.194  1.00  0.00     0.030 A 
HETATM    4  C   UNL     1      39.491 -13.511  -0.266  1.00  0.00     0.063 A 
HETATM    5  N   UNL     1      38.483 -12.832  -0.890  1.00  0.00    -0.277 N 
HETATM    6  H   UNL     1      37.922 -12.079  -0.508  1.00  0.00     0.189 HD
HETATM    7  N   UNL     1      38.244 -13.225  -2.151  1.00  0.00    -0.168 NA
HETATM    8  C   UNL     1      39.139 -14.219  -2.355  1.00  0.00     0.156 A 
HETATM    9  C   UNL     1      40.039 -13.380   1.010  1.00  0.00     0.034 A 
HETATM   10  C   UNL     1      41.093 -14.240   1.339  1.00  0.00     0.032 A 
ENDROOT
BRANCH   1  11
HETATM   11  N   UNL     1      42.663 -15.988   0.876  1.00  0.00    -0.327 N 
HETATM   12  C   UNL     1      42.653 -17.323   1.232  1.00  0.00     0.222 C 
HETATM   13  O   UNL     1      41.654 -18.031   1.329  1.00  0.00    -0.273 OA
HETATM   14  H   UNL     1      43.527 -15.484   1.001  1.00  0.00     0.169 HD
BRANCH  12  15
HETATM   15  C   UNL     1      44.035 -17.951   1.398  1.00  0.00     0.112 C 
BRANCH  15  16
HETATM   16  C   UNL     1      44.160 -19.121   2.391  1.00  0.00     0.027 C 
BRANCH  16  17
HETATM   17  C   UNL     1      43.271 -20.322   1.990  1.00  0.00     0.005 C 
HETATM   18  C   UNL     1      43.986 -21.650   1.780  1.00  0.00     0.006 C 
ENDBRANCH  16  17
BRANCH  16  19
HETATM   19  C   UNL     1      43.968 -18.745   3.852  1.00  0.00    -0.053 A 
HETATM   20  C   UNL     1      44.167 -19.655   4.897  1.00  0.00     0.008 A 
HETATM   21  C   UNL     1      44.008 -19.261   6.230  1.00  0.00     0.007 A 
HETATM   22  C   UNL     1      43.649 -17.948   6.546  1.00  0.00    -0.062 A 
HETATM   23  C   UNL     1      43.453 -17.543   7.977  1.00  0.00     0.048 C 
HETATM   24  C   UNL     1      43.431 -17.038   5.509  1.00  0.00     0.007 A 
HETATM   25  C   UNL     1      43.598 -17.429   4.178  1.00  0.00     0.008 A 
ENDBRANCH  16  19
ENDBRANCH  15  16
ENDBRANCH  12  15
ENDBRANCH   1  11
BRANCH   8  26
HETATM   26  C   UNL     1      39.216 -14.914  -3.648  1.00  0.00     0.270 C 
HETATM   27  N   UNL     1      38.013 -15.034  -4.289  1.00  0.00    -0.365 N 
HETATM   28  H   UNL     1      37.189 -14.640  -3.850  1.00  0.00     0.159 HD
HETATM   29  H   UNL     1      37.971 -15.478  -5.192  1.00  0.00     0.159 HD
HETATM   30  O   UNL     1      40.247 -15.350  -4.149  1.00  0.00    -0.266 OA
ENDBRANCH   8  26
TORSDOF 6
ENDMDL
MODEL 7
REMARK VINA RESULT:      -8.1      2.032      3.166
REMARK  6 active torsions:
REMARK  status: ('A' for Active; 'I' for Inactive)
REMARK    1  A    between atoms: C_2  and  C_3 
REMARK    2  A    between atoms: C_3  and  C_4 
REMARK    3  A    between atoms: C_3  and  C_11 
REMARK    4  A    between atoms: C_11  and  C_12 
REMARK       I    between atoms: C_12  and  N_13 
REMARK    5  A    between atoms: N_13  and  C_14 
REMARK    6  A    between atoms: C_21  and  C_22 
REMARK       I    between atoms: C_22  and  N_23 
ROOT
HETATM    1  C   UNL     1      41.646 -15.955   1.016  1.00  0.00     0.035 A 
HETATM    2  C   UNL     1      41.548 -15.024   2.061  1.00  0.00     0.046 A 
HETATM    3  C   UNL     1      41.098 -13.713   1.785  1.00  0.00     0.030 A 
HETATM    4  C   UNL     1      40.782 -13.375   0.475  1.00  0.00     0.063 A 
HETATM    5  N   UNL     1      40.393 -12.066   0.522  1.00  0.00    -0.277 N 
HETATM    6  H   UNL     1      40.095 -11.486  -0.255  1.00  0.00     0.189 HD
HETATM    7  N   UNL     1      40.407 -11.524   1.749  1.00  0.00    -0.168 NA
HETATM    8  C   UNL     1      40.838 -12.532   2.543  1.00  0.00     0.156 A 
HETATM    9  C   UNL     1      40.876 -14.272  -0.589  1.00  0.00     0.034 A 
HETATM   10  C   UNL     1      41.305 -15.570  -0.288  1.00  0.00     0.032 A 
ENDROOT
BRANCH   1  11
HETATM   11  N   UNL     1      42.031 -17.301   1.198  1.00  0.00    -0.327 N 
HETATM   12  C   UNL     1      43.310 -17.798   1.362  1.00  0.00     0.222 C 
HETATM   13  O   UNL     1      44.348 -17.147   1.271  1.00  0.00    -0.273 OA
HETATM   14  H   UNL     1      41.281 -17.972   1.130  1.00  0.00     0.169 HD
BRANCH  12  15
HETATM   15  C   UNL     1      43.376 -19.258   1.804  1.00  0.00     0.112 C 
BRANCH  15  16
HETATM   16  C   UNL     1      44.363 -19.605   2.935  1.00  0.00     0.027 C 
BRANCH  16  17
HETATM   17  C   UNL     1      44.581 -21.131   3.069  1.00  0.00     0.005 C 
HETATM   18  C   UNL     1      44.085 -21.987   1.910  1.00  0.00     0.006 C 
ENDBRANCH  16  17
BRANCH  16  19
HETATM   19  C   UNL     1      44.050 -18.964   4.278  1.00  0.00    -0.053 A 
HETATM   20  C   UNL     1      42.788 -18.442   4.589  1.00  0.00     0.008 A 
HETATM   21  C   UNL     1      42.534 -17.887   5.847  1.00  0.00     0.007 A 
HETATM   22  C   UNL     1      43.534 -17.843   6.823  1.00  0.00    -0.062 A 
HETATM   23  C   UNL     1      43.258 -17.219   8.159  1.00  0.00     0.048 C 
HETATM   24  C   UNL     1      44.800 -18.345   6.515  1.00  0.00     0.007 A 
HETATM   25  C   UNL     1      45.053 -18.907   5.260  1.00  0.00     0.008 A 
ENDBRANCH  16  19
ENDBRANCH  15  16
ENDBRANCH  12  15
ENDBRANCH   1  11
BRANCH   8  26
HETATM   26  C   UNL     1      40.976 -12.345   3.994  1.00  0.00     0.270 C 
HETATM   27  N   UNL     1      40.147 -13.137   4.740  1.00  0.00    -0.365 N 
HETATM   28  H   UNL     1      39.530 -13.780   4.259  1.00  0.00     0.159 HD
HETATM   29  H   UNL     1      40.187 -13.093   5.746  1.00  0.00     0.159 HD
HETATM   30  O   UNL     1      41.761 -11.568   4.529  1.00  0.00    -0.266 OA
ENDBRANCH   8  26
TORSDOF 6
ENDMDL
MODEL 8
REMARK VINA RESULT:      -8.0      2.548      4.128
REMARK  6 active torsions:
REMARK  status: ('A' for Active; 'I' for Inactive)
REMARK    1  A    between atoms: C_2  and  C_3 
REMARK    2  A    between atoms: C_3  and  C_4 
REMARK    3  A    between atoms: C_3  and  C_11 
REMARK    4  A    between atoms: C_11  and  C_12 
REMARK       I    between atoms: C_12  and  N_13 
REMARK    5  A    between atoms: N_13  and  C_14 
REMARK    6  A    between atoms: C_21  and  C_22 
REMARK       I    between atoms: C_22  and  N_23 
ROOT
HETATM    1  C   UNL     1      40.965 -15.291  -1.248  1.00  0.00     0.035 A 
HETATM    2  C   UNL     1      40.012 -14.314  -0.926  1.00  0.00     0.046 A 
HETATM    3  C   UNL     1      39.070 -13.914  -1.901  1.00  0.00     0.030 A 
HETATM    4  C   UNL     1      39.127 -14.489  -3.164  1.00  0.00     0.063 A 
HETATM    5  N   UNL     1      38.114 -13.908  -3.874  1.00  0.00    -0.277 N 
HETATM    6  H   UNL     1      37.862 -14.084  -4.840  1.00  0.00     0.189 HD
HETATM    7  N   UNL     1      37.387 -13.018  -3.180  1.00  0.00    -0.168 NA
HETATM    8  C   UNL     1      37.963 -13.013  -1.956  1.00  0.00     0.156 A 
HETATM    9  C   UNL     1      40.067 -15.456  -3.521  1.00  0.00     0.034 A 
HETATM   10  C   UNL     1      40.977 -15.850  -2.533  1.00  0.00     0.032 A 
ENDROOT
BRANCH   1  11
HETATM   11  N   UNL     1      41.911 -15.798  -0.330  1.00  0.00    -0.327 N 
HETATM   12  C   UNL     1      41.708 -16.752   0.649  1.00  0.00     0.222 C 
HETATM   13  O   UNL     1      40.626 -17.247   0.953  1.00  0.00    -0.273 OA
HETATM   14  H   UNL     1      42.816 -15.353  -0.360  1.00  0.00     0.169 HD
BRANCH  12  15
HETATM   15  C   UNL     1      42.985 -17.282   1.298  1.00  0.00     0.112 C 
BRANCH  15  16
HETATM   16  C   UNL     1      42.982 -17.432   2.831  1.00  0.00     0.027 C 
BRANCH  16  17
HETATM   17  C   UNL     1      43.601 -16.201   3.536  1.00  0.00     0.005 C 
HETATM   18  C   UNL     1      42.630 -15.290   4.277  1.00  0.00     0.006 C 
ENDBRANCH  16  17
BRANCH  16  19
HETATM   19  C   UNL     1      43.577 -18.732   3.350  1.00  0.00    -0.053 A 
HETATM   20  C   UNL     1      43.901 -19.802   2.507  1.00  0.00     0.008 A 
HETATM   21  C   UNL     1      44.473 -20.970   3.020  1.00  0.00     0.007 A 
HETATM   22  C   UNL     1      44.738 -21.092   4.387  1.00  0.00    -0.062 A 
HETATM   23  C   UNL     1      45.325 -22.361   4.932  1.00  0.00     0.048 C 
HETATM   24  C   UNL     1      44.401 -20.037   5.238  1.00  0.00     0.007 A 
HETATM   25  C   UNL     1      43.837 -18.866   4.724  1.00  0.00     0.008 A 
ENDBRANCH  16  19
ENDBRANCH  15  16
ENDBRANCH  12  15
ENDBRANCH   1  11
BRANCH   8  26
HETATM   26  C   UNL     1      37.438 -12.165  -0.877  1.00  0.00     0.270 C 
HETATM   27  N   UNL     1      37.126 -10.892  -1.269  1.00  0.00    -0.365 N 
HETATM   28  H   UNL     1      37.261 -10.638  -2.240  1.00  0.00     0.159 HD
HETATM   29  H   UNL     1      36.739 -10.245  -0.601  1.00  0.00     0.159 HD
HETATM   30  O   UNL     1      37.267 -12.531   0.282  1.00  0.00    -0.266 OA
ENDBRANCH   8  26
TORSDOF 6
ENDMDL
MODEL 9
REMARK VINA RESULT:      -8.0      5.056      7.046
REMARK  6 active torsions:
REMARK  status: ('A' for Active; 'I' for Inactive)
REMARK    1  A    between atoms: C_2  and  C_3 
REMARK    2  A    between atoms: C_3  and  C_4 
REMARK    3  A    between atoms: C_3  and  C_11 
REMARK    4  A    between atoms: C_11  and  C_12 
REMARK       I    between atoms: C_12  and  N_13 
REMARK    5  A    between atoms: N_13  and  C_14 
REMARK    6  A    between atoms: C_21  and  C_22 
REMARK       I    between atoms: C_22  and  N_23 
ROOT
HETATM    1  C   UNL     1      41.762 -12.758   5.207  1.00  0.00     0.035 A 
HETATM    2  C   UNL     1      41.228 -12.309   6.424  1.00  0.00     0.046 A 
HETATM    3  C   UNL     1      40.360 -11.194   6.433  1.00  0.00     0.030 A 
HETATM    4  C   UNL     1      40.072 -10.558   5.231  1.00  0.00     0.063 A 
HETATM    5  N   UNL     1      39.229  -9.534   5.555  1.00  0.00    -0.277 N 
HETATM    6  H   UNL     1      38.817  -8.854   4.924  1.00  0.00     0.189 HD
HETATM    7  N   UNL     1      38.923  -9.455   6.859  1.00  0.00    -0.168 NA
HETATM    8  C   UNL     1      39.612 -10.477   7.416  1.00  0.00     0.156 A 
HETATM    9  C   UNL     1      40.592 -10.973   4.005  1.00  0.00     0.034 A 
HETATM   10  C   UNL     1      41.434 -12.090   4.019  1.00  0.00     0.032 A 
ENDROOT
BRANCH   1  11
HETATM   11  N   UNL     1      42.593 -13.893   5.086  1.00  0.00    -0.327 N 
HETATM   12  C   UNL     1      42.217 -15.181   4.756  1.00  0.00     0.222 C 
HETATM   13  O   UNL     1      41.063 -15.576   4.614  1.00  0.00    -0.273 OA
HETATM   14  H   UNL     1      43.558 -13.745   5.338  1.00  0.00     0.169 HD
BRANCH  12  15
HETATM   15  C   UNL     1      43.376 -16.125   4.441  1.00  0.00     0.112 C 
BRANCH  15  16
HETATM   16  C   UNL     1      43.351 -17.513   5.107  1.00  0.00     0.027 C 
BRANCH  16  17
HETATM   17  C   UNL     1      44.284 -17.584   6.340  1.00  0.00     0.005 C 
HETATM   18  C   UNL     1      43.606 -17.531   7.703  1.00  0.00     0.006 C 
ENDBRANCH  16  17
BRANCH  16  19
HETATM   19  C   UNL     1      43.582 -18.682   4.162  1.00  0.00    -0.053 A 
HETATM   20  C   UNL     1      42.953 -18.779   2.915  1.00  0.00     0.008 A 
HETATM   21  C   UNL     1      43.215 -19.856   2.062  1.00  0.00     0.007 A 
HETATM   22  C   UNL     1      44.114 -20.858   2.437  1.00  0.00    -0.062 A 
HETATM   23  C   UNL     1      44.366 -22.025   1.527  1.00  0.00     0.048 C 
HETATM   24  C   UNL     1      44.732 -20.779   3.686  1.00  0.00     0.007 A 
HETATM   25  C   UNL     1      44.477 -19.698   4.535  1.00  0.00     0.008 A 
ENDBRANCH  16  19
ENDBRANCH  15  16
ENDBRANCH  12  15
ENDBRANCH   1  11
BRANCH   8  26
HETATM   26  C   UNL     1      39.529 -10.749   8.858  1.00  0.00     0.270 C 
HETATM   27  N   UNL     1      39.097 -12.011   9.164  1.00  0.00    -0.365 N 
HETATM   28  H   UNL     1      38.887 -12.648   8.405  1.00  0.00     0.159 HD
HETATM   29  H   UNL     1      39.029 -12.295  10.128  1.00  0.00     0.159 HD
HETATM   30  O   UNL     1      39.822  -9.949   9.740  1.00  0.00    -0.266 OA
ENDBRANCH   8  26
TORSDOF 6
ENDMDL
MODEL 10
REMARK VINA RESULT:      -8.0      2.892      7.426
REMARK  6 active torsions:
REMARK  status: ('A' for Active; 'I' for Inactive)
REMARK    1  A    between atoms: C_2  and  C_3 
REMARK    2  A    between atoms: C_3  and  C_4 
REMARK    3  A    between atoms: C_3  and  C_11 
REMARK    4  A    between atoms: C_11  and  C_12 
REMARK       I    between atoms: C_12  and  N_13 
REMARK    5  A    between atoms: N_13  and  C_14 
REMARK    6  A    between atoms: C_21  and  C_22 
REMARK       I    between atoms: C_22  and  N_23 
ROOT
HETATM    1  C   UNL     1      43.377 -17.692   2.349  1.00  0.00     0.035 A 
HETATM    2  C   UNL     1      43.728 -19.050   2.347  1.00  0.00     0.046 A 
HETATM    3  C   UNL     1      44.133 -19.665   3.554  1.00  0.00     0.030 A 
HETATM    4  C   UNL     1      44.189 -18.898   4.711  1.00  0.00     0.063 A 
HETATM    5  N   UNL     1      44.610 -19.751   5.692  1.00  0.00    -0.277 N 
HETATM    6  H   UNL     1      44.770 -19.532   6.669  1.00  0.00     0.189 HD
HETATM    7  N   UNL     1      44.816 -21.013   5.283  1.00  0.00    -0.168 NA
HETATM    8  C   UNL     1      44.521 -20.977   3.962  1.00  0.00     0.156 A 
HETATM    9  C   UNL     1      43.854 -17.545   4.747  1.00  0.00     0.034 A 
HETATM   10  C   UNL     1      43.439 -16.962   3.544  1.00  0.00     0.032 A 
ENDROOT
BRANCH   1  11
HETATM   11  N   UNL     1      42.909 -17.001   1.210  1.00  0.00    -0.327 N 
HETATM   12  C   UNL     1      41.626 -16.995   0.696  1.00  0.00     0.222 C 
HETATM   13  O   UNL     1      40.692 -17.687   1.093  1.00  0.00    -0.273 OA
HETATM   14  H   UNL     1      43.618 -16.515   0.684  1.00  0.00     0.169 HD
BRANCH  12  15
HETATM   15  C   UNL     1      41.374 -15.942  -0.381  1.00  0.00     0.112 C 
BRANCH  15  16
HETATM   16  C   UNL     1      40.712 -14.625   0.067  1.00  0.00     0.027 C 
BRANCH  16  17
HETATM   17  C   UNL     1      40.989 -13.469  -0.924  1.00  0.00     0.005 C 
HETATM   18  C   UNL     1      39.968 -12.340  -0.945  1.00  0.00     0.006 C 
ENDBRANCH  16  17
BRANCH  16  19
HETATM   19  C   UNL     1      41.006 -14.215   1.502  1.00  0.00    -0.053 A 
HETATM   20  C   UNL     1      40.122 -14.473   2.556  1.00  0.00     0.008 A 
HETATM   21  C   UNL     1      40.443 -14.105   3.866  1.00  0.00     0.007 A 
HETATM   22  C   UNL     1      41.657 -13.474   4.152  1.00  0.00    -0.062 A 
HETATM   23  C   UNL     1      41.979 -13.057   5.556  1.00  0.00     0.048 C 
HETATM   24  C   UNL     1      42.537 -13.196   3.104  1.00  0.00     0.007 A 
HETATM   25  C   UNL     1      42.220 -13.571   1.795  1.00  0.00     0.008 A 
ENDBRANCH  16  19
ENDBRANCH  15  16
ENDBRANCH  12  15
ENDBRANCH   1  11
BRANCH   8  26
HETATM   26  C   UNL     1      44.605 -22.189   3.136  1.00  0.00     0.270 C 
HETATM   27  N   UNL     1      44.840 -23.334   3.847  1.00  0.00    -0.365 N 
HETATM   28  H   UNL     1      44.924 -23.270   4.854  1.00  0.00     0.159 HD
HETATM   29  H   UNL     1      44.892 -24.218   3.366  1.00  0.00     0.159 HD
HETATM   30  O   UNL     1      44.468 -22.217   1.917  1.00  0.00    -0.266 OA
ENDBRANCH   8  26
TORSDOF 6
ENDMDL
