MODEL 1
REMARK VINA RESULT:      -8.5      0.000      0.000
REMARK  7 active torsions:
REMARK  status: ('A' for Active; 'I' for Inactive)
REMARK    1  A    between atoms: C_4  and  C_5 
REMARK    2  A    between atoms: C_5  and  N_6 
REMARK       I    between atoms: N_6  and  C_7 
REMARK    3  A    between atoms: N_6  and  C_22 
REMARK    4  A    between atoms: C_7  and  C_8 
REMARK    5  A    between atoms: C_13  and  C_14 
REMARK    6  A    between atoms: C_15  and  O_16 
REMARK    7  A    between atoms: C_22  and  C_23 
ROOT
HETATM    1  N   UNL     1      42.831 -17.320   3.659  1.00  0.00    -0.343 N 
HETATM    2  C   UNL     1      42.531 -16.020   3.244  1.00  0.00     0.235 C 
HETATM    3  O   UNL     1      43.341 -15.373   2.574  1.00  0.00    -0.272 OA
ENDROOT
BRANCH   2   4
HETATM    4  C   UNL     1      41.188 -15.426   3.609  1.00  0.00     0.195 C 
HETATM    5  C   UNL     1      41.208 -14.051   4.200  1.00  0.00     0.247 C 
HETATM    6  O   UNL     1      42.037 -13.567   4.952  1.00  0.00    -0.271 OA
HETATM    7  N   UNL     1      40.013 -13.451   3.844  1.00  0.00    -0.290 N 
HETATM    8  N   UNL     1      39.240 -14.217   2.963  1.00  0.00    -0.228 NA
HETATM    9  H   UNL     1      39.774 -12.515   4.155  1.00  0.00     0.183 HD
HETATM   10  C   UNL     1      40.171 -15.268   2.458  1.00  0.00     0.134 C 
HETATM   11  H   UNL     1      38.941 -13.630   2.176  1.00  0.00     0.147 HD
BRANCH  10  12
HETATM   12  C   UNL     1      40.610 -14.904   1.044  1.00  0.00    -0.004 A 
HETATM   13  C   UNL     1      40.911 -15.883   0.078  1.00  0.00     0.073 A 
HETATM   14  C   UNL     1      41.249 -15.536  -1.233  1.00  0.00     0.037 A 
HETATM   15  C   UNL     1      41.273 -14.202  -1.624  1.00  0.00     0.003 A 
HETATM   16  C   UNL     1      40.952 -13.215  -0.702  1.00  0.00     0.001 A 
HETATM   17  C   UNL     1      40.614 -13.563   0.610  1.00  0.00     0.012 A 
BRANCH  13  18
HETATM   18  O   UNL     1      40.873 -17.231   0.307  1.00  0.00    -0.360 OA
HETATM   19  H   UNL     1      40.062 -17.628  -0.045  1.00  0.00     0.217 HD
ENDBRANCH  13  18
ENDBRANCH  10  12
ENDBRANCH   2   4
BRANCH   1  20
HETATM   20  C   UNL     1      44.144 -17.867   3.300  1.00  0.00     0.164 C 
BRANCH  20  21
HETATM   21  C   UNL     1      44.094 -19.343   2.967  1.00  0.00    -0.040 A 
HETATM   22  C   UNL     1      44.821 -20.271   3.730  1.00  0.00     0.009 A 
HETATM   23  C   UNL     1      44.787 -21.630   3.414  1.00  0.00     0.001 A 
HETATM   24  C   UNL     1      44.025 -22.078   2.336  1.00  0.00     0.000 A 
HETATM   25  C   UNL     1      43.292 -21.169   1.577  1.00  0.00     0.001 A 
HETATM   26  C   UNL     1      43.323 -19.809   1.893  1.00  0.00     0.009 A 
ENDBRANCH  20  21
ENDBRANCH   1  20
BRANCH   1  27
HETATM   27  C   UNL     1      42.071 -18.074   4.659  1.00  0.00     0.164 C 
BRANCH  27  28
HETATM   28  C   UNL     1      42.697 -18.087   6.033  1.00  0.00    -0.040 A 
HETATM   29  C   UNL     1      43.301 -19.241   6.552  1.00  0.00     0.009 A 
HETATM   30  C   UNL     1      43.913 -19.220   7.807  1.00  0.00     0.001 A 
HETATM   31  C   UNL     1      43.936 -18.044   8.554  1.00  0.00     0.000 A 
HETATM   32  C   UNL     1      43.352 -16.886   8.045  1.00  0.00     0.001 A 
HETATM   33  C   UNL     1      42.742 -16.905   6.790  1.00  0.00     0.009 A 
ENDBRANCH  27  28
ENDBRANCH   1  27
TORSDOF 7
ENDMDL
MODEL 2
REMARK VINA RESULT:      -8.5      1.649      5.061
REMARK  7 active torsions:
REMARK  status: ('A' for Active; 'I' for Inactive)
REMARK    1  A    between atoms: C_4  and  C_5 
REMARK    2  A    between atoms: C_5  and  N_6 
REMARK       I    between atoms: N_6  and  C_7 
REMARK    3  A    between atoms: N_6  and  C_22 
REMARK    4  A    between atoms: C_7  and  C_8 
REMARK    5  A    between atoms: C_13  and  C_14 
REMARK    6  A    between atoms: C_15  and  O_16 
REMARK    7  A    between atoms: C_22  and  C_23 
ROOT
HETATM    1  N   UNL     1      42.597 -17.093   3.741  1.00  0.00    -0.343 N 
HETATM    2  C   UNL     1      41.837 -15.974   3.390  1.00  0.00     0.235 C 
HETATM    3  O   UNL     1      40.716 -15.801   3.876  1.00  0.00    -0.272 OA
ENDROOT
BRANCH   2   4
HETATM    4  C   UNL     1      42.419 -14.965   2.424  1.00  0.00     0.195 C 
HETATM    5  C   UNL     1      41.626 -14.701   1.182  1.00  0.00     0.247 C 
HETATM    6  O   UNL     1      40.963 -15.489   0.531  1.00  0.00    -0.271 OA
HETATM    7  N   UNL     1      41.897 -13.395   0.812  1.00  0.00    -0.290 N 
HETATM    8  N   UNL     1      42.682 -12.699   1.740  1.00  0.00    -0.228 NA
HETATM    9  H   UNL     1      41.498 -12.985  -0.027  1.00  0.00     0.183 HD
HETATM   10  C   UNL     1      42.647 -13.541   2.972  1.00  0.00     0.134 C 
HETATM   11  H   UNL     1      42.244 -11.793   1.943  1.00  0.00     0.147 HD
BRANCH  10  12
HETATM   12  C   UNL     1      41.694 -12.906   3.979  1.00  0.00    -0.004 A 
HETATM   13  C   UNL     1      41.974 -12.876   5.358  1.00  0.00     0.073 A 
HETATM   14  C   UNL     1      41.122 -12.235   6.262  1.00  0.00     0.037 A 
HETATM   15  C   UNL     1      39.979 -11.584   5.812  1.00  0.00     0.003 A 
HETATM   16  C   UNL     1      39.692 -11.571   4.454  1.00  0.00     0.001 A 
HETATM   17  C   UNL     1      40.544 -12.213   3.549  1.00  0.00     0.012 A 
BRANCH  13  18
HETATM   18  O   UNL     1      43.087 -13.426   5.933  1.00  0.00    -0.360 OA
HETATM   19  H   UNL     1      43.148 -13.202   6.873  1.00  0.00     0.217 HD
ENDBRANCH  13  18
ENDBRANCH  10  12
ENDBRANCH   2   4
BRANCH   1  20
HETATM   20  C   UNL     1      42.003 -18.058   4.671  1.00  0.00     0.164 C 
BRANCH  20  21
HETATM   21  C   UNL     1      42.682 -18.062   6.025  1.00  0.00    -0.040 A 
HETATM   22  C   UNL     1      42.687 -16.906   6.823  1.00  0.00     0.009 A 
HETATM   23  C   UNL     1      43.326 -16.904   8.064  1.00  0.00     0.001 A 
HETATM   24  C   UNL     1      43.962 -18.056   8.524  1.00  0.00     0.000 A 
HETATM   25  C   UNL     1      43.955 -19.212   7.747  1.00  0.00     0.001 A 
HETATM   26  C   UNL     1      43.315 -19.216   6.505  1.00  0.00     0.009 A 
ENDBRANCH  20  21
ENDBRANCH   1  20
BRANCH   1  27
HETATM   27  C   UNL     1      43.809 -17.530   3.043  1.00  0.00     0.164 C 
BRANCH  27  28
HETATM   28  C   UNL     1      43.901 -19.023   2.838  1.00  0.00    -0.040 A 
HETATM   29  C   UNL     1      43.116 -19.682   1.880  1.00  0.00     0.009 A 
HETATM   30  C   UNL     1      43.248 -21.056   1.676  1.00  0.00     0.001 A 
HETATM   31  C   UNL     1      44.173 -21.788   2.419  1.00  0.00     0.000 A 
HETATM   32  C   UNL     1      44.969 -21.145   3.363  1.00  0.00     0.001 A 
HETATM   33  C   UNL     1      44.840 -19.770   3.567  1.00  0.00     0.009 A 
ENDBRANCH  27  28
ENDBRANCH   1  27
TORSDOF 7
ENDMDL
MODEL 3
REMARK VINA RESULT:      -8.2      2.118      6.435
REMARK  7 active torsions:
REMARK  status: ('A' for Active; 'I' for Inactive)
REMARK    1  A    between atoms: C_4  and  C_5 
REMARK    2  A    between atoms: C_5  and  N_6 
REMARK       I    between atoms: N_6  and  C_7 
REMARK    3  A    between atoms: N_6  and  C_22 
REMARK    4  A    between atoms: C_7  and  C_8 
REMARK    5  A    between atoms: C_13  and  C_14 
REMARK    6  A    between atoms: C_15  and  O_16 
REMARK    7  A    between atoms: C_22  and  C_23 
ROOT
HETATM    1  N   UNL     1      41.718 -16.395   3.879  1.00  0.00    -0.343 N 
HETATM    2  C   UNL     1      42.097 -17.432   4.735  1.00  0.00     0.235 C 
HETATM    3  O   UNL     1      41.420 -18.461   4.811  1.00  0.00    -0.272 OA
ENDROOT
BRANCH   2   4
HETATM    4  C   UNL     1      43.365 -17.285   5.548  1.00  0.00     0.195 C 
HETATM    5  C   UNL     1      43.288 -17.715   6.979  1.00  0.00     0.247 C 
HETATM    6  O   UNL     1      42.348 -17.611   7.748  1.00  0.00    -0.271 OA
HETATM    7  N   UNL     1      44.558 -18.140   7.332  1.00  0.00    -0.290 N 
HETATM    8  N   UNL     1      45.457 -18.174   6.258  1.00  0.00    -0.228 NA
HETATM    9  H   UNL     1      44.772 -18.455   8.272  1.00  0.00     0.183 HD
HETATM   10  C   UNL     1      44.599 -18.060   5.042  1.00  0.00     0.134 C 
HETATM   11  H   UNL     1      45.936 -19.081   6.245  1.00  0.00     0.147 HD
BRANCH  10  12
HETATM   12  C   UNL     1      44.475 -19.434   4.394  1.00  0.00    -0.004 A 
HETATM   13  C   UNL     1      44.255 -19.594   3.012  1.00  0.00     0.073 A 
HETATM   14  C   UNL     1      44.207 -20.860   2.422  1.00  0.00     0.037 A 
HETATM   15  C   UNL     1      44.400 -22.003   3.190  1.00  0.00     0.003 A 
HETATM   16  C   UNL     1      44.648 -21.876   4.550  1.00  0.00     0.001 A 
HETATM   17  C   UNL     1      44.696 -20.609   5.141  1.00  0.00     0.012 A 
BRANCH  13  18
HETATM   18  O   UNL     1      44.103 -18.559   2.130  1.00  0.00    -0.360 OA
HETATM   19  H   UNL     1      43.366 -18.718   1.522  1.00  0.00     0.217 HD
ENDBRANCH  13  18
ENDBRANCH  10  12
ENDBRANCH   2   4
BRANCH   1  20
HETATM   20  C   UNL     1      40.480 -16.560   3.110  1.00  0.00     0.164 C 
BRANCH  20  21
HETATM   21  C   UNL     1      40.585 -16.011   1.703  1.00  0.00    -0.040 A 
HETATM   22  C   UNL     1      41.452 -16.601   0.770  1.00  0.00     0.009 A 
HETATM   23  C   UNL     1      41.561 -16.086  -0.523  1.00  0.00     0.001 A 
HETATM   24  C   UNL     1      40.802 -14.979  -0.899  1.00  0.00     0.000 A 
HETATM   25  C   UNL     1      39.931 -14.389   0.014  1.00  0.00     0.001 A 
HETATM   26  C   UNL     1      39.820 -14.905   1.308  1.00  0.00     0.009 A 
ENDBRANCH  20  21
ENDBRANCH   1  20
BRANCH   1  27
HETATM   27  C   UNL     1      42.289 -15.046   3.898  1.00  0.00     0.164 C 
BRANCH  27  28
HETATM   28  C   UNL     1      41.367 -13.989   4.458  1.00  0.00    -0.040 A 
HETATM   29  C   UNL     1      40.677 -14.183   5.663  1.00  0.00     0.009 A 
HETATM   30  C   UNL     1      39.864 -13.176   6.185  1.00  0.00     0.001 A 
HETATM   31  C   UNL     1      39.737 -11.961   5.514  1.00  0.00     0.000 A 
HETATM   32  C   UNL     1      40.427 -11.749   4.324  1.00  0.00     0.001 A 
HETATM   33  C   UNL     1      41.243 -12.754   3.801  1.00  0.00     0.009 A 
ENDBRANCH  27  28
ENDBRANCH   1  27
TORSDOF 7
ENDMDL
MODEL 4
REMARK VINA RESULT:      -8.1      2.353      6.849
REMARK  7 active torsions:
REMARK  status: ('A' for Active; 'I' for Inactive)
REMARK    1  A    between atoms: C_4  and  C_5 
REMARK    2  A    between atoms: C_5  and  N_6 
REMARK       I    between atoms: N_6  and  C_7 
REMARK    3  A    between atoms: N_6  and  C_22 
REMARK    4  A    between atoms: C_7  and  C_8 
REMARK    5  A    between atoms: C_13  and  C_14 
REMARK    6  A    between atoms: C_15  and  O_16 
REMARK    7  A    between atoms: C_22  and  C_23 
ROOT
HETATM    1  N   UNL     1      42.822 -16.378   3.059  1.00  0.00    -0.343 N 
HETATM    2  C   UNL     1      42.474 -17.172   4.154  1.00  0.00     0.235 C 
HETATM    3  O   UNL     1      41.769 -18.174   4.003  1.00  0.00    -0.272 OA
ENDROOT
BRANCH   2   4
HETATM    4  C   UNL     1      42.994 -16.799   5.525  1.00  0.00     0.195 C 
HETATM    5  C   UNL     1      42.032 -16.946   6.663  1.00  0.00     0.247 C 
HETATM    6  O   UNL     1      40.830 -16.746   6.663  1.00  0.00    -0.271 OA
HETATM    7  N   UNL     1      42.791 -17.223   7.787  1.00  0.00    -0.290 N 
HETATM    8  N   UNL     1      44.151 -17.415   7.514  1.00  0.00    -0.228 NA
HETATM    9  H   UNL     1      42.366 -17.337   8.702  1.00  0.00     0.183 HD
HETATM   10  C   UNL     1      44.219 -17.589   6.034  1.00  0.00     0.134 C 
HETATM   11  H   UNL     1      44.469 -18.280   7.966  1.00  0.00     0.147 HD
BRANCH  10  12
HETATM   12  C   UNL     1      44.409 -19.068   5.716  1.00  0.00    -0.004 A 
HETATM   13  C   UNL     1      44.051 -20.081   6.626  1.00  0.00     0.073 A 
HETATM   14  C   UNL     1      44.171 -21.434   6.295  1.00  0.00     0.037 A 
HETATM   15  C   UNL     1      44.630 -21.815   5.039  1.00  0.00     0.003 A 
HETATM   16  C   UNL     1      44.963 -20.838   4.111  1.00  0.00     0.001 A 
HETATM   17  C   UNL     1      44.843 -19.484   4.441  1.00  0.00     0.012 A 
BRANCH  13  18
HETATM   18  O   UNL     1      43.536 -19.853   7.872  1.00  0.00    -0.360 OA
HETATM   19  H   UNL     1      42.917 -19.108   7.869  1.00  0.00     0.217 HD
ENDBRANCH  13  18
ENDBRANCH  10  12
ENDBRANCH   2   4
BRANCH   1  20
HETATM   20  C   UNL     1      42.295 -16.757   1.744  1.00  0.00     0.164 C 
BRANCH  20  21
HETATM   21  C   UNL     1      41.111 -15.914   1.321  1.00  0.00    -0.040 A 
HETATM   22  C   UNL     1      41.161 -15.155   0.140  1.00  0.00     0.009 A 
HETATM   23  C   UNL     1      40.075 -14.365  -0.242  1.00  0.00     0.001 A 
HETATM   24  C   UNL     1      38.927 -14.327   0.547  1.00  0.00     0.000 A 
HETATM   25  C   UNL     1      38.861 -15.082   1.716  1.00  0.00     0.001 A 
HETATM   26  C   UNL     1      39.946 -15.874   2.099  1.00  0.00     0.009 A 
ENDBRANCH  20  21
ENDBRANCH   1  20
BRANCH   1  27
HETATM   27  C   UNL     1      43.425 -15.045   3.152  1.00  0.00     0.164 C 
BRANCH  27  28
HETATM   28  C   UNL     1      42.430 -13.926   3.339  1.00  0.00    -0.040 A 
HETATM   29  C   UNL     1      42.298 -12.897   2.395  1.00  0.00     0.009 A 
HETATM   30  C   UNL     1      41.341 -11.895   2.566  1.00  0.00     0.001 A 
HETATM   31  C   UNL     1      40.498 -11.914   3.676  1.00  0.00     0.000 A 
HETATM   32  C   UNL     1      40.609 -12.938   4.614  1.00  0.00     0.001 A 
HETATM   33  C   UNL     1      41.563 -13.941   4.444  1.00  0.00     0.009 A 
ENDBRANCH  27  28
ENDBRANCH   1  27
TORSDOF 7
ENDMDL
MODEL 5
REMARK VINA RESULT:      -8.0      3.178      6.034
REMARK  7 active torsions:
REMARK  status: ('A' for Active; 'I' for Inactive)
REMARK    1  A    between atoms: C_4  and  C_5 
REMARK    2  A    between atoms: C_5  and  N_6 
REMARK       I    between atoms: N_6  and  C_7 
REMARK    3  A    between atoms: N_6  and  C_22 
REMARK    4  A    between atoms: C_7  and  C_8 
REMARK    5  A    between atoms: C_13  and  C_14 
REMARK    6  A    between atoms: C_15  and  O_16 
REMARK    7  A    between atoms: C_22  and  C_23 
ROOT
HETATM    1  N   UNL     1      40.153 -14.466   1.054  1.00  0.00    -0.343 N 
HETATM    2  C   UNL     1      40.105 -13.757  -0.148  1.00  0.00     0.235 C 
HETATM    3  O   UNL     1      39.996 -12.528  -0.147  1.00  0.00    -0.272 OA
ENDROOT
BRANCH   2   4
HETATM    4  C   UNL     1      40.213 -14.517  -1.453  1.00  0.00     0.195 C 
HETATM    5  C   UNL     1      39.057 -14.387  -2.394  1.00  0.00     0.247 C 
HETATM    6  O   UNL     1      37.872 -14.296  -2.123  1.00  0.00    -0.271 OA
HETATM    7  N   UNL     1      39.570 -14.535  -3.672  1.00  0.00    -0.290 N 
HETATM    8  N   UNL     1      40.968 -14.614  -3.710  1.00  0.00    -0.228 NA
HETATM    9  H   UNL     1      38.972 -14.517  -4.491  1.00  0.00     0.183 HD
HETATM   10  C   UNL     1      41.410 -14.159  -2.359  1.00  0.00     0.134 C 
HETATM   11  H   UNL     1      41.326 -13.961  -4.415  1.00  0.00     0.147 HD
BRANCH  10  12
HETATM   12  C   UNL     1      41.939 -12.733  -2.465  1.00  0.00    -0.004 A 
HETATM   13  C   UNL     1      41.399 -11.800  -3.371  1.00  0.00     0.073 A 
HETATM   14  C   UNL     1      41.851 -10.478  -3.412  1.00  0.00     0.037 A 
HETATM   15  C   UNL     1      42.838 -10.042  -2.535  1.00  0.00     0.003 A 
HETATM   16  C   UNL     1      43.368 -10.932  -1.610  1.00  0.00     0.001 A 
HETATM   17  C   UNL     1      42.916 -12.255  -1.569  1.00  0.00     0.012 A 
BRANCH  13  18
HETATM   18  O   UNL     1      40.390 -12.073  -4.252  1.00  0.00    -0.360 OA
HETATM   19  H   UNL     1      39.684 -11.412  -4.199  1.00  0.00     0.217 HD
ENDBRANCH  13  18
ENDBRANCH  10  12
ENDBRANCH   2   4
BRANCH   1  20
HETATM   20  C   UNL     1      40.035 -13.705   2.302  1.00  0.00     0.164 C 
BRANCH  20  21
HETATM   21  C   UNL     1      41.240 -13.869   3.205  1.00  0.00    -0.040 A 
HETATM   22  C   UNL     1      42.532 -13.598   2.727  1.00  0.00     0.009 A 
HETATM   23  C   UNL     1      43.644 -13.764   3.554  1.00  0.00     0.001 A 
HETATM   24  C   UNL     1      43.478 -14.198   4.868  1.00  0.00     0.000 A 
HETATM   25  C   UNL     1      42.201 -14.462   5.358  1.00  0.00     0.001 A 
HETATM   26  C   UNL     1      41.087 -14.295   4.532  1.00  0.00     0.009 A 
ENDBRANCH  20  21
ENDBRANCH   1  20
BRANCH   1  27
HETATM   27  C   UNL     1      40.020 -15.921   1.171  1.00  0.00     0.164 C 
BRANCH  27  28
HETATM   28  C   UNL     1      41.295 -16.630   1.561  1.00  0.00    -0.040 A 
HETATM   29  C   UNL     1      42.444 -16.567   0.760  1.00  0.00     0.009 A 
HETATM   30  C   UNL     1      43.625 -17.194   1.161  1.00  0.00     0.001 A 
HETATM   31  C   UNL     1      43.675 -17.883   2.371  1.00  0.00     0.000 A 
HETATM   32  C   UNL     1      42.546 -17.941   3.184  1.00  0.00     0.001 A 
HETATM   33  C   UNL     1      41.365 -17.313   2.786  1.00  0.00     0.009 A 
ENDBRANCH  27  28
ENDBRANCH   1  27
TORSDOF 7
ENDMDL
MODEL 6
REMARK VINA RESULT:      -8.0      2.756      6.361
REMARK  7 active torsions:
REMARK  status: ('A' for Active; 'I' for Inactive)
REMARK    1  A    between atoms: C_4  and  C_5 
REMARK    2  A    between atoms: C_5  and  N_6 
REMARK       I    between atoms: N_6  and  C_7 
REMARK    3  A    between atoms: N_6  and  C_22 
REMARK    4  A    between atoms: C_7  and  C_8 
REMARK    5  A    between atoms: C_13  and  C_14 
REMARK    6  A    between atoms: C_15  and  O_16 
REMARK    7  A    between atoms: C_22  and  C_23 
ROOT
HETATM    1  N   UNL     1      41.171 -13.492   3.689  1.00  0.00    -0.343 N 
HETATM    2  C   UNL     1      41.872 -13.624   2.488  1.00  0.00     0.235 C 
HETATM    3  O   UNL     1      43.064 -13.314   2.420  1.00  0.00    -0.272 OA
ENDROOT
BRANCH   2   4
HETATM    4  C   UNL     1      41.153 -14.177   1.276  1.00  0.00     0.195 C 
HETATM    5  C   UNL     1      41.788 -13.909  -0.052  1.00  0.00     0.247 C 
HETATM    6  O   UNL     1      42.393 -12.913  -0.410  1.00  0.00    -0.271 OA
HETATM    7  N   UNL     1      41.439 -14.965  -0.877  1.00  0.00    -0.290 N 
HETATM    8  N   UNL     1      40.749 -15.989  -0.216  1.00  0.00    -0.228 NA
HETATM    9  H   UNL     1      41.726 -14.998  -1.850  1.00  0.00     0.183 HD
HETATM   10  C   UNL     1      40.950 -15.706   1.235  1.00  0.00     0.134 C 
HETATM   11  H   UNL     1      41.181 -16.891  -0.444  1.00  0.00     0.147 HD
BRANCH  10  12
HETATM   12  C   UNL     1      41.996 -16.670   1.787  1.00  0.00    -0.004 A 
HETATM   13  C   UNL     1      41.790 -17.398   2.974  1.00  0.00     0.073 A 
HETATM   14  C   UNL     1      42.730 -18.325   3.433  1.00  0.00     0.037 A 
HETATM   15  C   UNL     1      43.891 -18.569   2.709  1.00  0.00     0.003 A 
HETATM   16  C   UNL     1      44.108 -17.888   1.519  1.00  0.00     0.001 A 
HETATM   17  C   UNL     1      43.167 -16.960   1.059  1.00  0.00     0.012 A 
BRANCH  13  18
HETATM   18  O   UNL     1      40.673 -17.300   3.757  1.00  0.00    -0.360 OA
HETATM   19  H   UNL     1      39.907 -17.717   3.335  1.00  0.00     0.217 HD
ENDBRANCH  13  18
ENDBRANCH  10  12
ENDBRANCH   2   4
BRANCH   1  20
HETATM   20  C   UNL     1      41.890 -12.945   4.844  1.00  0.00     0.164 C 
BRANCH  20  21
HETATM   21  C   UNL     1      42.611 -14.009   5.644  1.00  0.00    -0.040 A 
HETATM   22  C   UNL     1      43.914 -13.784   6.118  1.00  0.00     0.009 A 
HETATM   23  C   UNL     1      44.585 -14.771   6.842  1.00  0.00     0.001 A 
HETATM   24  C   UNL     1      43.962 -15.990   7.105  1.00  0.00     0.000 A 
HETATM   25  C   UNL     1      42.667 -16.222   6.648  1.00  0.00     0.001 A 
HETATM   26  C   UNL     1      41.993 -15.235   5.925  1.00  0.00     0.009 A 
ENDBRANCH  20  21
ENDBRANCH   1  20
BRANCH   1  27
HETATM   27  C   UNL     1      39.714 -13.581   3.820  1.00  0.00     0.164 C 
BRANCH  27  28
HETATM   28  C   UNL     1      38.986 -12.288   3.538  1.00  0.00    -0.040 A 
HETATM   29  C   UNL     1      38.884 -11.279   4.506  1.00  0.00     0.009 A 
HETATM   30  C   UNL     1      38.245 -10.073   4.211  1.00  0.00     0.001 A 
HETATM   31  C   UNL     1      37.709  -9.859   2.942  1.00  0.00     0.000 A 
HETATM   32  C   UNL     1      37.816 -10.846   1.967  1.00  0.00     0.001 A 
HETATM   33  C   UNL     1      38.456 -12.051   2.260  1.00  0.00     0.009 A 
ENDBRANCH  27  28
ENDBRANCH   1  27
TORSDOF 7
ENDMDL
MODEL 7
REMARK VINA RESULT:      -8.0      2.239      5.247
REMARK  7 active torsions:
REMARK  status: ('A' for Active; 'I' for Inactive)
REMARK    1  A    between atoms: C_4  and  C_5 
REMARK    2  A    between atoms: C_5  and  N_6 
REMARK       I    between atoms: N_6  and  C_7 
REMARK    3  A    between atoms: N_6  and  C_22 
REMARK    4  A    between atoms: C_7  and  C_8 
REMARK    5  A    between atoms: C_13  and  C_14 
REMARK    6  A    between atoms: C_15  and  O_16 
REMARK    7  A    between atoms: C_22  and  C_23 
ROOT
HETATM    1  N   UNL     1      42.299 -14.568   5.282  1.00  0.00    -0.343 N 
HETATM    2  C   UNL     1      42.635 -14.444   3.931  1.00  0.00     0.235 C 
HETATM    3  O   UNL     1      43.815 -14.350   3.585  1.00  0.00    -0.272 OA
ENDROOT
BRANCH   2   4
HETATM    4  C   UNL     1      41.530 -14.450   2.897  1.00  0.00     0.195 C 
HETATM    5  C   UNL     1      41.840 -13.791   1.590  1.00  0.00     0.247 C 
HETATM    6  O   UNL     1      42.522 -12.800   1.389  1.00  0.00    -0.271 OA
HETATM    7  N   UNL     1      41.082 -14.440   0.631  1.00  0.00    -0.290 N 
HETATM    8  N   UNL     1      40.392 -15.557   1.121  1.00  0.00    -0.228 NA
HETATM    9  H   UNL     1      41.095 -14.153  -0.343  1.00  0.00     0.183 HD
HETATM   10  C   UNL     1      41.016 -15.834   2.448  1.00  0.00     0.134 C 
HETATM   11  H   UNL     1      40.558 -16.357   0.501  1.00  0.00     0.147 HD
BRANCH  10  12
HETATM   12  C   UNL     1      41.949 -17.032   2.316  1.00  0.00    -0.004 A 
HETATM   13  C   UNL     1      42.684 -17.284   1.142  1.00  0.00     0.073 A 
HETATM   14  C   UNL     1      43.585 -18.350   1.058  1.00  0.00     0.037 A 
HETATM   15  C   UNL     1      43.795 -19.182   2.152  1.00  0.00     0.003 A 
HETATM   16  C   UNL     1      43.107 -18.941   3.334  1.00  0.00     0.001 A 
HETATM   17  C   UNL     1      42.205 -17.874   3.418  1.00  0.00     0.012 A 
BRANCH  13  18
HETATM   18  O   UNL     1      42.619 -16.517   0.011  1.00  0.00    -0.360 OA
HETATM   19  H   UNL     1      42.193 -16.995  -0.717  1.00  0.00     0.217 HD
ENDBRANCH  13  18
ENDBRANCH  10  12
ENDBRANCH   2   4
BRANCH   1  20
HETATM   20  C   UNL     1      43.389 -14.549   6.262  1.00  0.00     0.164 C 
BRANCH  20  21
HETATM   21  C   UNL     1      43.791 -15.935   6.719  1.00  0.00    -0.040 A 
HETATM   22  C   UNL     1      44.741 -16.677   5.999  1.00  0.00     0.009 A 
HETATM   23  C   UNL     1      45.101 -17.961   6.411  1.00  0.00     0.001 A 
HETATM   24  C   UNL     1      44.519 -18.518   7.549  1.00  0.00     0.000 A 
HETATM   25  C   UNL     1      43.582 -17.789   8.279  1.00  0.00     0.001 A 
HETATM   26  C   UNL     1      43.223 -16.503   7.868  1.00  0.00     0.009 A 
ENDBRANCH  20  21
ENDBRANCH   1  20
BRANCH   1  27
HETATM   27  C   UNL     1      40.944 -14.426   5.821  1.00  0.00     0.164 C 
BRANCH  27  28
HETATM   28  C   UNL     1      40.397 -13.021   5.762  1.00  0.00    -0.040 A 
HETATM   29  C   UNL     1      40.969 -11.979   6.506  1.00  0.00     0.009 A 
HETATM   30  C   UNL     1      40.475 -10.678   6.403  1.00  0.00     0.001 A 
HETATM   31  C   UNL     1      39.410 -10.399   5.550  1.00  0.00     0.000 A 
HETATM   32  C   UNL     1      38.841 -11.421   4.794  1.00  0.00     0.001 A 
HETATM   33  C   UNL     1      39.335 -12.722   4.893  1.00  0.00     0.009 A 
ENDBRANCH  27  28
ENDBRANCH   1  27
TORSDOF 7
ENDMDL
MODEL 8
REMARK VINA RESULT:      -7.9      2.261      5.458
REMARK  7 active torsions:
REMARK  status: ('A' for Active; 'I' for Inactive)
REMARK    1  A    between atoms: C_4  and  C_5 
REMARK    2  A    between atoms: C_5  and  N_6 
REMARK       I    between atoms: N_6  and  C_7 
REMARK    3  A    between atoms: N_6  and  C_22 
REMARK    4  A    between atoms: C_7  and  C_8 
REMARK    5  A    between atoms: C_13  and  C_14 
REMARK    6  A    between atoms: C_15  and  O_16 
REMARK    7  A    between atoms: C_22  and  C_23 
ROOT
HETATM    1  N   UNL     1      41.782 -15.480   2.066  1.00  0.00    -0.343 N 
HETATM    2  C   UNL     1      42.238 -14.390   2.811  1.00  0.00     0.235 C 
HETATM    3  O   UNL     1      42.840 -13.463   2.262  1.00  0.00    -0.272 OA
ENDROOT
BRANCH   2   4
HETATM    4  C   UNL     1      41.961 -14.350   4.298  1.00  0.00     0.195 C 
HETATM    5  C   UNL     1      42.985 -13.662   5.146  1.00  0.00     0.247 C 
HETATM    6  O   UNL     1      44.195 -13.646   5.000  1.00  0.00    -0.271 OA
HETATM    7  N   UNL     1      42.309 -13.147   6.239  1.00  0.00    -0.290 N 
HETATM    8  N   UNL     1      40.919 -13.291   6.161  1.00  0.00    -0.228 NA
HETATM    9  H   UNL     1      42.796 -12.656   6.983  1.00  0.00     0.183 HD
HETATM   10  C   UNL     1      40.656 -13.651   4.736  1.00  0.00     0.134 C 
HETATM   11  H   UNL     1      40.472 -12.390   6.364  1.00  0.00     0.147 HD
BRANCH  10  12
HETATM   12  C   UNL     1      40.118 -12.426   4.006  1.00  0.00    -0.004 A 
HETATM   13  C   UNL     1      40.785 -11.186   4.032  1.00  0.00     0.073 A 
HETATM   14  C   UNL     1      40.314 -10.089   3.305  1.00  0.00     0.037 A 
HETATM   15  C   UNL     1      39.176 -10.203   2.514  1.00  0.00     0.003 A 
HETATM   16  C   UNL     1      38.514 -11.421   2.445  1.00  0.00     0.001 A 
HETATM   17  C   UNL     1      38.985 -12.520   3.172  1.00  0.00     0.012 A 
BRANCH  13  18
HETATM   18  O   UNL     1      41.941 -10.945   4.722  1.00  0.00    -0.360 OA
HETATM   19  H   UNL     1      41.778 -10.405   5.509  1.00  0.00     0.217 HD
ENDBRANCH  13  18
ENDBRANCH  10  12
ENDBRANCH   2   4
BRANCH   1  20
HETATM   20  C   UNL     1      42.073 -15.497   0.629  1.00  0.00     0.164 C 
BRANCH  20  21
HETATM   21  C   UNL     1      40.919 -14.989  -0.209  1.00  0.00    -0.040 A 
HETATM   22  C   UNL     1      40.938 -15.127  -1.606  1.00  0.00     0.009 A 
HETATM   23  C   UNL     1      39.881 -14.645  -2.381  1.00  0.00     0.001 A 
HETATM   24  C   UNL     1      38.794 -14.023  -1.770  1.00  0.00     0.000 A 
HETATM   25  C   UNL     1      38.759 -13.887  -0.384  1.00  0.00     0.001 A 
HETATM   26  C   UNL     1      39.815 -14.371   0.393  1.00  0.00     0.009 A 
ENDBRANCH  20  21
ENDBRANCH   1  20
BRANCH   1  27
HETATM   27  C   UNL     1      41.294 -16.737   2.640  1.00  0.00     0.164 C 
BRANCH  27  28
HETATM   28  C   UNL     1      42.366 -17.780   2.850  1.00  0.00    -0.040 A 
HETATM   29  C   UNL     1      43.071 -17.873   4.059  1.00  0.00     0.009 A 
HETATM   30  C   UNL     1      44.027 -18.872   4.248  1.00  0.00     0.001 A 
HETATM   31  C   UNL     1      44.284 -19.796   3.236  1.00  0.00     0.000 A 
HETATM   32  C   UNL     1      43.581 -19.724   2.036  1.00  0.00     0.001 A 
HETATM   33  C   UNL     1      42.623 -18.727   1.846  1.00  0.00     0.009 A 
ENDBRANCH  27  28
ENDBRANCH   1  27
TORSDOF 7
ENDMDL
MODEL 9
REMARK VINA RESULT:      -7.8      1.784      6.254
REMARK  7 active torsions:
REMARK  status: ('A' for Active; 'I' for Inactive)
REMARK    1  A    between atoms: C_4  and  C_5 
REMARK    2  A    between atoms: C_5  and  N_6 
REMARK       I    between atoms: N_6  and  C_7 
REMARK    3  A    between atoms: N_6  and  C_22 
REMARK    4  A    between atoms: C_7  and  C_8 
REMARK    5  A    between atoms: C_13  and  C_14 
REMARK    6  A    between atoms: C_15  and  O_16 
REMARK    7  A    between atoms: C_22  and  C_23 
ROOT
HETATM    1  N   UNL     1      42.277 -17.168   2.496  1.00  0.00    -0.343 N 
HETATM    2  C   UNL     1      41.878 -16.963   3.819  1.00  0.00     0.235 C 
HETATM    3  O   UNL     1      41.244 -17.831   4.425  1.00  0.00    -0.272 OA
ENDROOT
BRANCH   2   4
HETATM    4  C   UNL     1      42.257 -15.669   4.507  1.00  0.00     0.195 C 
HETATM    5  C   UNL     1      41.205 -15.043   5.370  1.00  0.00     0.247 C 
HETATM    6  O   UNL     1      39.999 -15.022   5.191  1.00  0.00    -0.271 OA
HETATM    7  N   UNL     1      41.872 -14.351   6.365  1.00  0.00    -0.290 N 
HETATM    8  N   UNL     1      43.259 -14.548   6.355  1.00  0.00    -0.228 NA
HETATM    9  H   UNL     1      41.373 -13.811   7.065  1.00  0.00     0.183 HD
HETATM   10  C   UNL     1      43.467 -15.727   5.463  1.00  0.00     0.134 C 
HETATM   11  H   UNL     1      43.575 -14.786   7.301  1.00  0.00     0.147 HD
BRANCH  10  12
HETATM   12  C   UNL     1      43.753 -16.953   6.322  1.00  0.00    -0.004 A 
HETATM   13  C   UNL     1      43.728 -16.904   7.729  1.00  0.00     0.073 A 
HETATM   14  C   UNL     1      43.929 -18.051   8.503  1.00  0.00     0.037 A 
HETATM   15  C   UNL     1      44.138 -19.283   7.895  1.00  0.00     0.003 A 
HETATM   16  C   UNL     1      44.139 -19.368   6.509  1.00  0.00     0.001 A 
HETATM   17  C   UNL     1      43.937 -18.221   5.735  1.00  0.00     0.012 A 
BRANCH  13  18
HETATM   18  O   UNL     1      43.481 -15.774   8.459  1.00  0.00    -0.360 OA
HETATM   19  H   UNL     1      43.935 -15.797   9.314  1.00  0.00     0.217 HD
ENDBRANCH  13  18
ENDBRANCH  10  12
ENDBRANCH   2   4
BRANCH   1  20
HETATM   20  C   UNL     1      41.888 -18.426   1.852  1.00  0.00     0.164 C 
BRANCH  20  21
HETATM   21  C   UNL     1      42.908 -19.527   2.052  1.00  0.00    -0.040 A 
HETATM   22  C   UNL     1      42.648 -20.832   1.601  1.00  0.00     0.009 A 
HETATM   23  C   UNL     1      43.581 -21.850   1.800  1.00  0.00     0.001 A 
HETATM   24  C   UNL     1      44.787 -21.578   2.445  1.00  0.00     0.000 A 
HETATM   25  C   UNL     1      45.061 -20.286   2.889  1.00  0.00     0.001 A 
HETATM   26  C   UNL     1      44.129 -19.265   2.690  1.00  0.00     0.009 A 
ENDBRANCH  20  21
ENDBRANCH   1  20
BRANCH   1  27
HETATM   27  C   UNL     1      42.797 -16.123   1.610  1.00  0.00     0.164 C 
BRANCH  27  28
HETATM   28  C   UNL     1      41.741 -15.427   0.786  1.00  0.00    -0.040 A 
HETATM   29  C   UNL     1      40.872 -14.483   1.354  1.00  0.00     0.009 A 
HETATM   30  C   UNL     1      39.932 -13.819   0.565  1.00  0.00     0.001 A 
HETATM   31  C   UNL     1      39.854 -14.082  -0.801  1.00  0.00     0.000 A 
HETATM   32  C   UNL     1      40.719 -15.006  -1.381  1.00  0.00     0.001 A 
HETATM   33  C   UNL     1      41.662 -15.670  -0.595  1.00  0.00     0.009 A 
ENDBRANCH  27  28
ENDBRANCH   1  27
TORSDOF 7
ENDMDL
MODEL 10
REMARK VINA RESULT:      -7.7      2.559      7.394
REMARK  7 active torsions:
REMARK  status: ('A' for Active; 'I' for Inactive)
REMARK    1  A    between atoms: C_4  and  C_5 
REMARK    2  A    between atoms: C_5  and  N_6 
REMARK       I    between atoms: N_6  and  C_7 
REMARK    3  A    between atoms: N_6  and  C_22 
REMARK    4  A    between atoms: C_7  and  C_8 
REMARK    5  A    between atoms: C_13  and  C_14 
REMARK    6  A    between atoms: C_15  and  O_16 
REMARK    7  A    between atoms: C_22  and  C_23 
ROOT
HETATM    1  N   UNL     1      40.166 -13.367   1.370  1.00  0.00    -0.343 N 
HETATM    2  C   UNL     1      40.734 -14.120   2.400  1.00  0.00     0.235 C 
HETATM    3  O   UNL     1      40.341 -15.267   2.630  1.00  0.00    -0.272 OA
ENDROOT
BRANCH   2   4
HETATM    4  C   UNL     1      41.857 -13.516   3.216  1.00  0.00     0.195 C 
HETATM    5  C   UNL     1      41.681 -13.533   4.702  1.00  0.00     0.247 C 
HETATM    6  O   UNL     1      40.652 -13.393   5.340  1.00  0.00    -0.271 OA
HETATM    7  N   UNL     1      42.951 -13.597   5.249  1.00  0.00    -0.290 N 
HETATM    8  N   UNL     1      43.965 -13.763   4.297  1.00  0.00    -0.228 NA
HETATM    9  H   UNL     1      43.100 -13.589   6.253  1.00  0.00     0.183 HD
HETATM   10  C   UNL     1      43.251 -14.158   3.048  1.00  0.00     0.134 C 
HETATM   11  H   UNL     1      44.580 -14.531   4.587  1.00  0.00     0.147 HD
BRANCH  10  12
HETATM   12  C   UNL     1      43.423 -15.657   2.832  1.00  0.00    -0.004 A 
HETATM   13  C   UNL     1      43.297 -16.585   3.884  1.00  0.00     0.073 A 
HETATM   14  C   UNL     1      43.394 -17.961   3.658  1.00  0.00     0.037 A 
HETATM   15  C   UNL     1      43.596 -18.452   2.374  1.00  0.00     0.003 A 
HETATM   16  C   UNL     1      43.695 -17.564   1.312  1.00  0.00     0.001 A 
HETATM   17  C   UNL     1      43.598 -16.186   1.537  1.00  0.00     0.012 A 
BRANCH  13  18
HETATM   18  O   UNL     1      43.042 -16.248   5.185  1.00  0.00    -0.360 OA
HETATM   19  H   UNL     1      42.877 -15.298   5.279  1.00  0.00     0.217 HD
ENDBRANCH  13  18
ENDBRANCH  10  12
ENDBRANCH   2   4
BRANCH   1  20
HETATM   20  C   UNL     1      39.073 -13.974   0.603  1.00  0.00     0.164 C 
BRANCH  20  21
HETATM   21  C   UNL     1      39.470 -14.310  -0.819  1.00  0.00    -0.040 A 
HETATM   22  C   UNL     1      38.683 -13.881  -1.900  1.00  0.00     0.009 A 
HETATM   23  C   UNL     1      39.041 -14.204  -3.210  1.00  0.00     0.001 A 
HETATM   24  C   UNL     1      40.190 -14.954  -3.456  1.00  0.00     0.000 A 
HETATM   25  C   UNL     1      40.984 -15.378  -2.393  1.00  0.00     0.001 A 
HETATM   26  C   UNL     1      40.629 -15.054  -1.082  1.00  0.00     0.009 A 
ENDBRANCH  20  21
ENDBRANCH   1  20
BRANCH   1  27
HETATM   27  C   UNL     1      40.368 -11.929   1.177  1.00  0.00     0.164 C 
BRANCH  27  28
HETATM   28  C   UNL     1      41.074 -11.568  -0.107  1.00  0.00    -0.040 A 
HETATM   29  C   UNL     1      42.369 -12.030  -0.387  1.00  0.00     0.009 A 
HETATM   30  C   UNL     1      42.986 -11.722  -1.600  1.00  0.00     0.001 A 
HETATM   31  C   UNL     1      42.316 -10.956  -2.552  1.00  0.00     0.000 A 
HETATM   32  C   UNL     1      41.025 -10.502  -2.294  1.00  0.00     0.001 A 
HETATM   33  C   UNL     1      40.404 -10.812  -1.082  1.00  0.00     0.009 A 
ENDBRANCH  27  28
ENDBRANCH   1  27
TORSDOF 7
ENDMDL
