MODEL 1
REMARK VINA RESULT:      -9.0      0.000      0.000
REMARK  7 active torsions:
REMARK  status: ('A' for Active; 'I' for Inactive)
REMARK    1  A    between atoms: C_2  and  C_3 
REMARK    2  A    between atoms: C_4  and  N_5 
REMARK       I    between atoms: N_5  and  C_6 
REMARK    3  A    between atoms: C_6  and  C_7 
REMARK    4  A    between atoms: C_8  and  N_9 
REMARK       I    between atoms: N_9  and  C_10 
REMARK    5  A    between atoms: C_10  and  C_11 
REMARK    6  A    between atoms: C_11  and  N_12 
REMARK    7  A    between atoms: C_25  and  C_26 
ROOT
HETATM    1  C   UNL     1      42.192 -15.635   3.581  1.00  0.00     0.073 A 
HETATM    2  C   UNL     1      42.356 -14.709   4.592  1.00  0.00     0.093 A 
HETATM    3  S   UNL     1      41.890 -13.136   4.167  1.00  0.00    -0.075 SA
HETATM    4  C   UNL     1      41.613 -13.609   2.562  1.00  0.00    -0.008 A 
HETATM    5  C   UNL     1      41.778 -14.967   2.363  1.00  0.00    -0.026 A 
HETATM    6  C   UNL     1      41.424 -15.613   1.052  1.00  0.00     0.041 C 
HETATM    7  C   UNL     1      41.050 -14.600  -0.048  1.00  0.00     0.010 C 
HETATM    8  C   UNL     1      40.340 -13.295   0.416  1.00  0.00    -0.002 C 
HETATM    9  C   UNL     1      41.192 -12.625   1.522  1.00  0.00     0.052 C 
ENDROOT
BRANCH   1  10
HETATM   10  C   UNL     1      42.287 -17.083   3.796  1.00  0.00     0.259 C 
HETATM   11  N   UNL     1      43.465 -17.637   3.339  1.00  0.00    -0.322 N 
HETATM   12  H   UNL     1      44.233 -16.996   3.221  1.00  0.00     0.169 HD
HETATM   13  O   UNL     1      41.392 -17.686   4.381  1.00  0.00    -0.267 OA
BRANCH  11  14
HETATM   14  C   UNL     1      43.729 -19.015   3.170  1.00  0.00     0.041 A 
HETATM   15  C   UNL     1      44.480 -19.715   4.139  1.00  0.00    -0.032 A 
HETATM   16  C   UNL     1      44.799 -21.069   3.911  1.00  0.00     0.009 A 
HETATM   17  C   UNL     1      44.394 -21.718   2.746  1.00  0.00     0.001 A 
HETATM   18  C   UNL     1      43.650 -21.028   1.798  1.00  0.00     0.002 A 
HETATM   19  C   UNL     1      43.316 -19.689   2.011  1.00  0.00     0.030 A 
BRANCH  15  20
HETATM   20  C   UNL     1      44.868 -19.125   5.476  1.00  0.00     0.036 C 
HETATM   21  C   UNL     1      43.821 -19.434   6.539  1.00  0.00     0.010 C 
ENDBRANCH  15  20
ENDBRANCH  11  14
ENDBRANCH   1  10
BRANCH   2  22
HETATM   22  N   UNL     1      42.838 -14.775   5.880  1.00  0.00    -0.319 N 
HETATM   23  C   UNL     1      44.096 -14.292   6.169  1.00  0.00     0.248 C 
HETATM   24  O   UNL     1      44.885 -13.781   5.372  1.00  0.00    -0.271 OA
HETATM   25  H   UNL     1      42.120 -14.794   6.595  1.00  0.00     0.169 HD
BRANCH  23  26
HETATM   26  C   UNL     1      44.405 -14.191   7.662  1.00  0.00     0.337 C 
BRANCH  26  27
HETATM   27  N   UNL     1      44.874 -12.771   7.993  1.00  0.00    -0.059 N 
HETATM   28  H   UNL     1      44.550 -12.200   7.192  1.00  0.00     0.280 HD
HETATM   29  C   UNL     1      44.201 -12.202   9.238  1.00  0.00     0.261 C 
HETATM   30  C   UNL     1      44.706 -10.778   9.495  1.00  0.00     0.195 C 
HETATM   31  O   UNL     1      46.132 -10.759   9.611  1.00  0.00    -0.388 OA
HETATM   32  C   UNL     1      46.767 -11.205   8.407  1.00  0.00     0.195 C 
HETATM   33  C   UNL     1      46.381 -12.654   8.090  1.00  0.00     0.261 C 
ENDBRANCH  26  27
ENDBRANCH  23  26
ENDBRANCH   2  22
BRANCH   8  34
HETATM   34  C   UNL     1      38.792 -13.400   0.706  1.00  0.00    -0.047 C 
HETATM   35  C   UNL     1      38.355 -14.694   1.411  1.00  0.00     0.015 C 
HETATM   36  C   UNL     1      38.322 -12.214   1.581  1.00  0.00     0.015 C 
HETATM   37  C   UNL     1      38.016 -13.306  -0.630  1.00  0.00     0.015 C 
ENDBRANCH   8  34
TORSDOF 7
ENDMDL
MODEL 2
REMARK VINA RESULT:      -8.8      3.599      7.401
REMARK  7 active torsions:
REMARK  status: ('A' for Active; 'I' for Inactive)
REMARK    1  A    between atoms: C_2  and  C_3 
REMARK    2  A    between atoms: C_4  and  N_5 
REMARK       I    between atoms: N_5  and  C_6 
REMARK    3  A    between atoms: C_6  and  C_7 
REMARK    4  A    between atoms: C_8  and  N_9 
REMARK       I    between atoms: N_9  and  C_10 
REMARK    5  A    between atoms: C_10  and  C_11 
REMARK    6  A    between atoms: C_11  and  N_12 
REMARK    7  A    between atoms: C_25  and  C_26 
ROOT
HETATM    1  C   UNL     1      41.314 -16.354   1.973  1.00  0.00     0.073 A 
HETATM    2  C   UNL     1      40.654 -15.628   1.002  1.00  0.00     0.093 A 
HETATM    3  S   UNL     1      39.829 -14.272   1.597  1.00  0.00    -0.075 SA
HETATM    4  C   UNL     1      40.187 -14.707   3.197  1.00  0.00    -0.008 A 
HETATM    5  C   UNL     1      41.006 -15.818   3.285  1.00  0.00    -0.026 A 
HETATM    6  C   UNL     1      41.570 -16.270   4.602  1.00  0.00     0.041 C 
HETATM    7  C   UNL     1      41.004 -15.496   5.809  1.00  0.00     0.010 C 
HETATM    8  C   UNL     1      40.633 -14.003   5.569  1.00  0.00    -0.002 C 
HETATM    9  C   UNL     1      39.681 -13.910   4.352  1.00  0.00     0.052 C 
ENDROOT
BRANCH   1  10
HETATM   10  C   UNL     1      42.289 -17.406   1.665  1.00  0.00     0.259 C 
HETATM   11  N   UNL     1      42.135 -18.547   2.425  1.00  0.00    -0.322 N 
HETATM   12  H   UNL     1      41.228 -18.673   2.845  1.00  0.00     0.169 HD
HETATM   13  O   UNL     1      43.112 -17.249   0.768  1.00  0.00    -0.267 OA
BRANCH  11  14
HETATM   14  C   UNL     1      43.065 -19.606   2.539  1.00  0.00     0.041 A 
HETATM   15  C   UNL     1      44.085 -19.549   3.512  1.00  0.00    -0.032 A 
HETATM   16  C   UNL     1      45.048 -20.578   3.555  1.00  0.00     0.009 A 
HETATM   17  C   UNL     1      45.012 -21.636   2.650  1.00  0.00     0.001 A 
HETATM   18  C   UNL     1      44.002 -21.691   1.697  1.00  0.00     0.002 A 
HETATM   19  C   UNL     1      43.034 -20.687   1.645  1.00  0.00     0.030 A 
BRANCH  15  20
HETATM   20  C   UNL     1      44.139 -18.499   4.599  1.00  0.00     0.036 C 
HETATM   21  C   UNL     1      43.685 -19.069   5.938  1.00  0.00     0.010 C 
ENDBRANCH  15  20
ENDBRANCH  11  14
ENDBRANCH   1  10
BRANCH   2  22
HETATM   22  N   UNL     1      40.498 -15.772  -0.359  1.00  0.00    -0.319 N 
HETATM   23  C   UNL     1      41.181 -14.941  -1.221  1.00  0.00     0.248 C 
HETATM   24  O   UNL     1      41.955 -14.035  -0.905  1.00  0.00    -0.271 OA
HETATM   25  H   UNL     1      40.227 -16.703  -0.652  1.00  0.00     0.169 HD
BRANCH  23  26
HETATM   26  C   UNL     1      41.121 -15.368  -2.686  1.00  0.00     0.337 C 
BRANCH  26  27
HETATM   27  N   UNL     1      39.905 -14.724  -3.358  1.00  0.00    -0.059 N 
HETATM   28  H   UNL     1      40.252 -14.428  -4.288  1.00  0.00     0.280 HD
HETATM   29  C   UNL     1      38.773 -15.716  -3.605  1.00  0.00     0.261 C 
HETATM   30  C   UNL     1      37.603 -15.005  -4.293  1.00  0.00     0.195 C 
HETATM   31  O   UNL     1      37.162 -13.886  -3.517  1.00  0.00    -0.388 OA
HETATM   32  C   UNL     1      38.198 -12.909  -3.363  1.00  0.00     0.195 C 
HETATM   33  C   UNL     1      39.402 -13.500  -2.620  1.00  0.00     0.261 C 
ENDBRANCH  26  27
ENDBRANCH  23  26
ENDBRANCH   2  22
BRANCH   8  34
HETATM   34  C   UNL     1      41.825 -12.969   5.593  1.00  0.00    -0.047 C 
HETATM   35  C   UNL     1      43.169 -13.545   6.066  1.00  0.00     0.015 C 
HETATM   36  C   UNL     1      42.049 -12.367   4.184  1.00  0.00     0.015 C 
HETATM   37  C   UNL     1      41.461 -11.791   6.529  1.00  0.00     0.015 C 
ENDBRANCH   8  34
TORSDOF 7
ENDMDL
MODEL 3
REMARK VINA RESULT:      -8.5      3.672      7.720
REMARK  7 active torsions:
REMARK  status: ('A' for Active; 'I' for Inactive)
REMARK    1  A    between atoms: C_2  and  C_3 
REMARK    2  A    between atoms: C_4  and  N_5 
REMARK       I    between atoms: N_5  and  C_6 
REMARK    3  A    between atoms: C_6  and  C_7 
REMARK    4  A    between atoms: C_8  and  N_9 
REMARK       I    between atoms: N_9  and  C_10 
REMARK    5  A    between atoms: C_10  and  C_11 
REMARK    6  A    between atoms: C_11  and  N_12 
REMARK    7  A    between atoms: C_25  and  C_26 
ROOT
HETATM    1  C   UNL     1      41.508 -13.608   3.178  1.00  0.00     0.073 A 
HETATM    2  C   UNL     1      41.138 -13.072   1.960  1.00  0.00     0.093 A 
HETATM    3  S   UNL     1      40.040 -11.787   2.079  1.00  0.00    -0.075 SA
HETATM    4  C   UNL     1      39.892 -12.015   3.752  1.00  0.00    -0.008 A 
HETATM    5  C   UNL     1      40.738 -12.993   4.242  1.00  0.00    -0.026 A 
HETATM    6  C   UNL     1      40.879 -13.238   5.718  1.00  0.00     0.041 C 
HETATM    7  C   UNL     1      39.878 -12.432   6.570  1.00  0.00     0.010 C 
HETATM    8  C   UNL     1      39.467 -11.032   6.028  1.00  0.00    -0.002 C 
HETATM    9  C   UNL     1      38.962 -11.184   4.572  1.00  0.00     0.052 C 
ENDROOT
BRANCH   1  10
HETATM   10  C   UNL     1      42.625 -14.546   3.336  1.00  0.00     0.259 C 
HETATM   11  N   UNL     1      42.252 -15.774   3.840  1.00  0.00    -0.322 N 
HETATM   12  H   UNL     1      41.278 -16.012   3.737  1.00  0.00     0.169 HD
HETATM   13  O   UNL     1      43.758 -14.229   2.987  1.00  0.00    -0.267 OA
BRANCH  11  14
HETATM   14  C   UNL     1      43.122 -16.771   4.338  1.00  0.00     0.041 A 
HETATM   15  C   UNL     1      43.366 -17.938   3.584  1.00  0.00    -0.032 A 
HETATM   16  C   UNL     1      44.173 -18.954   4.135  1.00  0.00     0.009 A 
HETATM   17  C   UNL     1      44.720 -18.826   5.411  1.00  0.00     0.001 A 
HETATM   18  C   UNL     1      44.482 -17.672   6.148  1.00  0.00     0.002 A 
HETATM   19  C   UNL     1      43.693 -16.652   5.614  1.00  0.00     0.030 A 
BRANCH  15  20
HETATM   20  C   UNL     1      42.904 -18.116   2.155  1.00  0.00     0.036 C 
HETATM   21  C   UNL     1      43.925 -17.553   1.173  1.00  0.00     0.010 C 
ENDBRANCH  15  20
ENDBRANCH  11  14
ENDBRANCH   1  10
BRANCH   2  22
HETATM   22  N   UNL     1      41.451 -13.366   0.652  1.00  0.00    -0.319 N 
HETATM   23  C   UNL     1      40.835 -14.424   0.018  1.00  0.00     0.248 C 
HETATM   24  O   UNL     1      39.994 -15.180   0.506  1.00  0.00    -0.271 OA
HETATM   25  H   UNL     1      41.793 -12.576   0.117  1.00  0.00     0.169 HD
BRANCH  23  26
HETATM   26  C   UNL     1      41.077 -14.482  -1.489  1.00  0.00     0.337 C 
BRANCH  26  27
HETATM   27  N   UNL     1      39.847 -15.074  -2.182  1.00  0.00    -0.059 N 
HETATM   28  H   UNL     1      39.400 -15.661  -1.456  1.00  0.00     0.280 HD
HETATM   29  C   UNL     1      38.825 -14.014  -2.581  1.00  0.00     0.261 C 
HETATM   30  C   UNL     1      37.620 -14.682  -3.251  1.00  0.00     0.195 C 
HETATM   31  O   UNL     1      38.033 -15.464  -4.375  1.00  0.00    -0.388 OA
HETATM   32  C   UNL     1      38.920 -16.519  -3.988  1.00  0.00     0.195 C 
HETATM   33  C   UNL     1      40.201 -15.956  -3.363  1.00  0.00     0.261 C 
ENDBRANCH  26  27
ENDBRANCH  23  26
ENDBRANCH   2  22
BRANCH   8  34
HETATM   34  C   UNL     1      40.482  -9.851   6.286  1.00  0.00    -0.047 C 
HETATM   35  C   UNL     1      41.302  -9.426   5.058  1.00  0.00     0.015 C 
HETATM   36  C   UNL     1      39.736  -8.597   6.802  1.00  0.00     0.015 C 
HETATM   37  C   UNL     1      41.477 -10.268   7.396  1.00  0.00     0.015 C 
ENDBRANCH   8  34
TORSDOF 7
ENDMDL
MODEL 4
REMARK VINA RESULT:      -8.5      3.757      7.762
REMARK  7 active torsions:
REMARK  status: ('A' for Active; 'I' for Inactive)
REMARK    1  A    between atoms: C_2  and  C_3 
REMARK    2  A    between atoms: C_4  and  N_5 
REMARK       I    between atoms: N_5  and  C_6 
REMARK    3  A    between atoms: C_6  and  C_7 
REMARK    4  A    between atoms: C_8  and  N_9 
REMARK       I    between atoms: N_9  and  C_10 
REMARK    5  A    between atoms: C_10  and  C_11 
REMARK    6  A    between atoms: C_11  and  N_12 
REMARK    7  A    between atoms: C_25  and  C_26 
ROOT
HETATM    1  C   UNL     1      41.180 -13.457   2.914  1.00  0.00     0.073 A 
HETATM    2  C   UNL     1      40.804 -12.738   1.797  1.00  0.00     0.093 A 
HETATM    3  S   UNL     1      39.835 -11.390   2.139  1.00  0.00    -0.075 SA
HETATM    4  C   UNL     1      39.744 -11.822   3.777  1.00  0.00    -0.008 A 
HETATM    5  C   UNL     1      40.518 -12.924   4.089  1.00  0.00    -0.026 A 
HETATM    6  C   UNL     1      40.704 -13.370   5.513  1.00  0.00     0.041 C 
HETATM    7  C   UNL     1      39.821 -12.601   6.515  1.00  0.00     0.010 C 
HETATM    8  C   UNL     1      39.515 -11.112   6.179  1.00  0.00    -0.002 C 
HETATM    9  C   UNL     1      38.932 -11.030   4.747  1.00  0.00     0.052 C 
ENDROOT
BRANCH   1  10
HETATM   10  C   UNL     1      42.212 -14.499   2.888  1.00  0.00     0.259 C 
HETATM   11  N   UNL     1      41.728 -15.755   2.587  1.00  0.00    -0.322 N 
HETATM   12  H   UNL     1      40.838 -15.779   2.114  1.00  0.00     0.169 HD
HETATM   13  O   UNL     1      43.391 -14.212   3.075  1.00  0.00    -0.267 OA
BRANCH  11  14
HETATM   14  C   UNL     1      42.421 -16.977   2.743  1.00  0.00     0.041 A 
HETATM   15  C   UNL     1      42.364 -17.671   3.971  1.00  0.00    -0.032 A 
HETATM   16  C   UNL     1      43.127 -18.845   4.130  1.00  0.00     0.009 A 
HETATM   17  C   UNL     1      43.939 -19.321   3.101  1.00  0.00     0.001 A 
HETATM   18  C   UNL     1      43.987 -18.638   1.892  1.00  0.00     0.002 A 
HETATM   19  C   UNL     1      43.231 -17.478   1.713  1.00  0.00     0.030 A 
BRANCH  15  20
HETATM   20  C   UNL     1      41.432 -17.288   5.099  1.00  0.00     0.036 C 
HETATM   21  C   UNL     1      42.203 -16.691   6.270  1.00  0.00     0.010 C 
ENDBRANCH  15  20
ENDBRANCH  11  14
ENDBRANCH   1  10
BRANCH   2  22
HETATM   22  N   UNL     1      41.029 -12.884   0.447  1.00  0.00    -0.319 N 
HETATM   23  C   UNL     1      40.443 -13.925  -0.240  1.00  0.00     0.248 C 
HETATM   24  O   UNL     1      39.703 -14.789   0.234  1.00  0.00    -0.271 OA
HETATM   25  H   UNL     1      41.265 -12.022  -0.033  1.00  0.00     0.169 HD
BRANCH  23  26
HETATM   26  C   UNL     1      40.562 -13.825  -1.759  1.00  0.00     0.337 C 
BRANCH  26  27
HETATM   27  N   UNL     1      39.506 -14.718  -2.416  1.00  0.00    -0.059 N 
HETATM   28  H   UNL     1      39.182 -15.337  -1.652  1.00  0.00     0.280 HD
HETATM   29  C   UNL     1      38.287 -13.937  -2.897  1.00  0.00     0.261 C 
HETATM   30  C   UNL     1      37.271 -14.897  -3.525  1.00  0.00     0.195 C 
HETATM   31  O   UNL     1      37.870 -15.645  -4.587  1.00  0.00    -0.388 OA
HETATM   32  C   UNL     1      38.956 -16.452  -4.119  1.00  0.00     0.195 C 
HETATM   33  C   UNL     1      40.070 -15.580  -3.527  1.00  0.00     0.261 C 
ENDBRANCH  26  27
ENDBRANCH  23  26
ENDBRANCH   2  22
BRANCH   8  34
HETATM   34  C   UNL     1      40.645 -10.066   6.525  1.00  0.00    -0.047 C 
HETATM   35  C   UNL     1      41.387  -9.492   5.308  1.00  0.00     0.015 C 
HETATM   36  C   UNL     1      40.055  -8.871   7.313  1.00  0.00     0.015 C 
HETATM   37  C   UNL     1      41.694 -10.734   7.446  1.00  0.00     0.015 C 
ENDBRANCH   8  34
TORSDOF 7
ENDMDL
MODEL 5
REMARK VINA RESULT:      -8.5      3.159      3.965
REMARK  7 active torsions:
REMARK  status: ('A' for Active; 'I' for Inactive)
REMARK    1  A    between atoms: C_2  and  C_3 
REMARK    2  A    between atoms: C_4  and  N_5 
REMARK       I    between atoms: N_5  and  C_6 
REMARK    3  A    between atoms: C_6  and  C_7 
REMARK    4  A    between atoms: C_8  and  N_9 
REMARK       I    between atoms: N_9  and  C_10 
REMARK    5  A    between atoms: C_10  and  C_11 
REMARK    6  A    between atoms: C_11  and  N_12 
REMARK    7  A    between atoms: C_25  and  C_26 
ROOT
HETATM    1  C   UNL     1      41.731 -14.817   0.745  1.00  0.00     0.073 A 
HETATM    2  C   UNL     1      41.892 -13.558   1.288  1.00  0.00     0.093 A 
HETATM    3  S   UNL     1      41.497 -12.295   0.229  1.00  0.00    -0.075 SA
HETATM    4  C   UNL     1      41.261 -13.386  -1.048  1.00  0.00    -0.008 A 
HETATM    5  C   UNL     1      41.385 -14.708  -0.660  1.00  0.00    -0.026 A 
HETATM    6  C   UNL     1      41.055 -15.833  -1.600  1.00  0.00     0.041 C 
HETATM    7  C   UNL     1      40.757 -15.361  -3.037  1.00  0.00     0.010 C 
HETATM    8  C   UNL     1      40.078 -13.968  -3.189  1.00  0.00    -0.002 C 
HETATM    9  C   UNL     1      40.912 -12.915  -2.420  1.00  0.00     0.052 C 
ENDROOT
BRANCH   1  10
HETATM   10  C   UNL     1      41.766 -16.047   1.543  1.00  0.00     0.259 C 
HETATM   11  N   UNL     1      43.027 -16.381   1.994  1.00  0.00    -0.322 N 
HETATM   12  H   UNL     1      43.696 -15.628   2.020  1.00  0.00     0.169 HD
HETATM   13  O   UNL     1      40.731 -16.654   1.798  1.00  0.00    -0.267 OA
BRANCH  11  14
HETATM   14  C   UNL     1      43.412 -17.621   2.552  1.00  0.00     0.041 A 
HETATM   15  C   UNL     1      43.655 -17.728   3.938  1.00  0.00    -0.032 A 
HETATM   16  C   UNL     1      44.115 -18.954   4.460  1.00  0.00     0.009 A 
HETATM   17  C   UNL     1      44.341 -20.051   3.631  1.00  0.00     0.001 A 
HETATM   18  C   UNL     1      44.094 -19.943   2.268  1.00  0.00     0.002 A 
HETATM   19  C   UNL     1      43.630 -18.740   1.734  1.00  0.00     0.030 A 
BRANCH  15  20
HETATM   20  C   UNL     1      43.336 -16.627   4.925  1.00  0.00     0.036 C 
HETATM   21  C   UNL     1      41.895 -16.724   5.410  1.00  0.00     0.010 C 
ENDBRANCH  15  20
ENDBRANCH  11  14
ENDBRANCH   1  10
BRANCH   2  22
HETATM   22  N   UNL     1      42.325 -13.093   2.509  1.00  0.00    -0.319 N 
HETATM   23  C   UNL     1      41.514 -13.211   3.617  1.00  0.00     0.248 C 
HETATM   24  O   UNL     1      40.387 -13.708   3.650  1.00  0.00    -0.271 OA
HETATM   25  H   UNL     1      43.333 -13.065   2.612  1.00  0.00     0.169 HD
BRANCH  23  26
HETATM   26  C   UNL     1      42.207 -12.895   4.942  1.00  0.00     0.337 C 
BRANCH  26  27
HETATM   27  N   UNL     1      41.443 -11.784   5.667  1.00  0.00    -0.059 N 
HETATM   28  H   UNL     1      42.151 -11.344   6.281  1.00  0.00     0.280 HD
HETATM   29  C   UNL     1      40.943 -10.696   4.721  1.00  0.00     0.261 C 
HETATM   30  C   UNL     1      40.206  -9.615   5.519  1.00  0.00     0.195 C 
HETATM   31  O   UNL     1      39.135 -10.186   6.278  1.00  0.00    -0.388 OA
HETATM   32  C   UNL     1      39.613 -11.140   7.231  1.00  0.00     0.195 C 
HETATM   33  C   UNL     1      40.315 -12.310   6.532  1.00  0.00     0.261 C 
ENDBRANCH  26  27
ENDBRANCH  23  26
ENDBRANCH   2  22
BRANCH   8  34
HETATM   34  C   UNL     1      38.517 -13.916  -2.955  1.00  0.00    -0.047 C 
HETATM   35  C   UNL     1      38.088 -13.842  -1.481  1.00  0.00     0.015 C 
HETATM   36  C   UNL     1      37.901 -12.695  -3.679  1.00  0.00     0.015 C 
HETATM   37  C   UNL     1      37.867 -15.178  -3.572  1.00  0.00     0.015 C 
ENDBRANCH   8  34
TORSDOF 7
ENDMDL
MODEL 6
REMARK VINA RESULT:      -8.1      3.423      6.942
REMARK  7 active torsions:
REMARK  status: ('A' for Active; 'I' for Inactive)
REMARK    1  A    between atoms: C_2  and  C_3 
REMARK    2  A    between atoms: C_4  and  N_5 
REMARK       I    between atoms: N_5  and  C_6 
REMARK    3  A    between atoms: C_6  and  C_7 
REMARK    4  A    between atoms: C_8  and  N_9 
REMARK       I    between atoms: N_9  and  C_10 
REMARK    5  A    between atoms: C_10  and  C_11 
REMARK    6  A    between atoms: C_11  and  N_12 
REMARK    7  A    between atoms: C_25  and  C_26 
ROOT
HETATM    1  C   UNL     1      41.655 -13.844   2.147  1.00  0.00     0.073 A 
HETATM    2  C   UNL     1      41.920 -13.375   3.418  1.00  0.00     0.093 A 
HETATM    3  S   UNL     1      42.096 -14.597   4.580  1.00  0.00    -0.075 SA
HETATM    4  C   UNL     1      41.655 -15.786   3.455  1.00  0.00    -0.008 A 
HETATM    5  C   UNL     1      41.467 -15.282   2.181  1.00  0.00    -0.026 A 
HETATM    6  C   UNL     1      41.231 -16.191   1.008  1.00  0.00     0.041 C 
HETATM    7  C   UNL     1      41.047 -17.669   1.406  1.00  0.00     0.010 C 
HETATM    8  C   UNL     1      41.841 -18.162   2.651  1.00  0.00    -0.002 C 
HETATM    9  C   UNL     1      41.541 -17.222   3.844  1.00  0.00     0.052 C 
ENDROOT
BRANCH   1  10
HETATM   10  C   UNL     1      41.716 -12.998   0.950  1.00  0.00     0.259 C 
HETATM   11  N   UNL     1      40.671 -13.200   0.073  1.00  0.00    -0.322 N 
HETATM   12  H   UNL     1      39.847 -13.628   0.465  1.00  0.00     0.169 HD
HETATM   13  O   UNL     1      42.610 -12.168   0.820  1.00  0.00    -0.267 OA
BRANCH  11  14
HETATM   14  C   UNL     1      40.597 -12.733  -1.259  1.00  0.00     0.041 A 
HETATM   15  C   UNL     1      40.909 -13.598  -2.330  1.00  0.00    -0.032 A 
HETATM   16  C   UNL     1      40.906 -13.089  -3.645  1.00  0.00     0.009 A 
HETATM   17  C   UNL     1      40.612 -11.751  -3.898  1.00  0.00     0.001 A 
HETATM   18  C   UNL     1      40.300 -10.904  -2.841  1.00  0.00     0.002 A 
HETATM   19  C   UNL     1      40.289 -11.393  -1.534  1.00  0.00     0.030 A 
BRANCH  15  20
HETATM   20  C   UNL     1      41.134 -15.084  -2.160  1.00  0.00     0.036 C 
HETATM   21  C   UNL     1      40.308 -15.884  -3.160  1.00  0.00     0.010 C 
ENDBRANCH  15  20
ENDBRANCH  11  14
ENDBRANCH   1  10
BRANCH   2  22
HETATM   22  N   UNL     1      42.057 -12.119   3.964  1.00  0.00    -0.319 N 
HETATM   23  C   UNL     1      40.940 -11.423   4.377  1.00  0.00     0.248 C 
HETATM   24  O   UNL     1      39.772 -11.809   4.312  1.00  0.00    -0.271 OA
HETATM   25  H   UNL     1      42.957 -11.947   4.398  1.00  0.00     0.169 HD
BRANCH  23  26
HETATM   26  C   UNL     1      41.246 -10.167   5.190  1.00  0.00     0.337 C 
BRANCH  26  27
HETATM   27  N   UNL     1      40.649 -10.308   6.593  1.00  0.00    -0.059 N 
HETATM   28  H   UNL     1      40.173 -11.227   6.579  1.00  0.00     0.280 HD
HETATM   29  C   UNL     1      41.714 -10.381   7.683  1.00  0.00     0.261 C 
HETATM   30  C   UNL     1      41.043 -10.538   9.052  1.00  0.00     0.195 C 
HETATM   31  O   UNL     1      40.118  -9.472   9.290  1.00  0.00    -0.388 OA
HETATM   32  C   UNL     1      39.066  -9.459   8.320  1.00  0.00     0.195 C 
HETATM   33  C   UNL     1      39.623  -9.239   6.909  1.00  0.00     0.261 C 
ENDBRANCH  26  27
ENDBRANCH  23  26
ENDBRANCH   2  22
BRANCH   8  34
HETATM   34  C   UNL     1      43.362 -18.518   2.419  1.00  0.00    -0.047 C 
HETATM   35  C   UNL     1      44.093 -17.605   1.422  1.00  0.00     0.015 C 
HETATM   36  C   UNL     1      44.142 -18.462   3.755  1.00  0.00     0.015 C 
HETATM   37  C   UNL     1      43.472 -19.970   1.897  1.00  0.00     0.015 C 
ENDBRANCH   8  34
TORSDOF 7
ENDMDL
MODEL 7
REMARK VINA RESULT:      -8.0      2.267      3.387
REMARK  7 active torsions:
REMARK  status: ('A' for Active; 'I' for Inactive)
REMARK    1  A    between atoms: C_2  and  C_3 
REMARK    2  A    between atoms: C_4  and  N_5 
REMARK       I    between atoms: N_5  and  C_6 
REMARK    3  A    between atoms: C_6  and  C_7 
REMARK    4  A    between atoms: C_8  and  N_9 
REMARK       I    between atoms: N_9  and  C_10 
REMARK    5  A    between atoms: C_10  and  C_11 
REMARK    6  A    between atoms: C_11  and  N_12 
REMARK    7  A    between atoms: C_25  and  C_26 
ROOT
HETATM    1  C   UNL     1      41.152 -13.569   4.801  1.00  0.00     0.073 A 
HETATM    2  C   UNL     1      40.614 -12.522   5.522  1.00  0.00     0.093 A 
HETATM    3  S   UNL     1      39.838 -11.356   4.568  1.00  0.00    -0.075 SA
HETATM    4  C   UNL     1      40.343 -12.126   3.145  1.00  0.00    -0.008 A 
HETATM    5  C   UNL     1      41.015 -13.311   3.380  1.00  0.00    -0.026 A 
HETATM    6  C   UNL     1      41.404 -14.227   2.253  1.00  0.00     0.041 C 
HETATM    7  C   UNL     1      41.142 -13.624   0.858  1.00  0.00     0.010 C 
HETATM    8  C   UNL     1      39.918 -12.671   0.726  1.00  0.00    -0.002 C 
HETATM    9  C   UNL     1      40.028 -11.561   1.800  1.00  0.00     0.052 C 
ENDROOT
BRANCH   1  10
HETATM   10  C   UNL     1      41.641 -14.805   5.422  1.00  0.00     0.259 C 
HETATM   11  N   UNL     1      42.946 -15.111   5.098  1.00  0.00    -0.322 N 
HETATM   12  H   UNL     1      43.507 -14.342   4.768  1.00  0.00     0.169 HD
HETATM   13  O   UNL     1      40.926 -15.439   6.192  1.00  0.00    -0.267 OA
BRANCH  11  14
HETATM   14  C   UNL     1      43.595 -16.346   5.326  1.00  0.00     0.041 A 
HETATM   15  C   UNL     1      43.501 -17.382   4.372  1.00  0.00    -0.032 A 
HETATM   16  C   UNL     1      44.089 -18.631   4.656  1.00  0.00     0.009 A 
HETATM   17  C   UNL     1      44.748 -18.858   5.863  1.00  0.00     0.001 A 
HETATM   18  C   UNL     1      44.844 -17.835   6.797  1.00  0.00     0.002 A 
HETATM   19  C   UNL     1      44.276 -16.588   6.529  1.00  0.00     0.030 A 
BRANCH  15  20
HETATM   20  C   UNL     1      42.901 -17.192   2.997  1.00  0.00     0.036 C 
HETATM   21  C   UNL     1      43.987 -17.017   1.942  1.00  0.00     0.010 C 
ENDBRANCH  15  20
ENDBRANCH  11  14
ENDBRANCH   1  10
BRANCH   2  22
HETATM   22  N   UNL     1      40.584 -12.200   6.860  1.00  0.00    -0.319 N 
HETATM   23  C   UNL     1      41.181 -11.038   7.301  1.00  0.00     0.248 C 
HETATM   24  O   UNL     1      41.771 -10.209   6.607  1.00  0.00    -0.271 OA
HETATM   25  H   UNL     1      39.804 -12.601   7.369  1.00  0.00     0.169 HD
BRANCH  23  26
HETATM   26  C   UNL     1      40.856 -10.674   8.749  1.00  0.00     0.337 C 
BRANCH  26  27
HETATM   27  N   UNL     1      41.916 -11.272   9.678  1.00  0.00    -0.059 N 
HETATM   28  H   UNL     1      41.755 -12.293   9.628  1.00  0.00     0.280 HD
HETATM   29  C   UNL     1      43.339 -11.026   9.186  1.00  0.00     0.261 C 
HETATM   30  C   UNL     1      44.340 -11.666  10.154  1.00  0.00     0.195 C 
HETATM   31  O   UNL     1      44.149 -11.169  11.482  1.00  0.00    -0.388 OA
HETATM   32  C   UNL     1      42.844 -11.482  11.981  1.00  0.00     0.195 C 
HETATM   33  C   UNL     1      41.757 -10.829  11.118  1.00  0.00     0.261 C 
ENDBRANCH  26  27
ENDBRANCH  23  26
ENDBRANCH   2  22
BRANCH   8  34
HETATM   34  C   UNL     1      38.504 -13.357   0.586  1.00  0.00    -0.047 C 
HETATM   35  C   UNL     1      38.321 -14.636   1.418  1.00  0.00     0.015 C 
HETATM   36  C   UNL     1      37.381 -12.373   0.996  1.00  0.00     0.015 C 
HETATM   37  C   UNL     1      38.258 -13.721  -0.898  1.00  0.00     0.015 C 
ENDBRANCH   8  34
TORSDOF 7
ENDMDL
MODEL 8
REMARK VINA RESULT:      -7.9      2.730      6.929
REMARK  7 active torsions:
REMARK  status: ('A' for Active; 'I' for Inactive)
REMARK    1  A    between atoms: C_2  and  C_3 
REMARK    2  A    between atoms: C_4  and  N_5 
REMARK       I    between atoms: N_5  and  C_6 
REMARK    3  A    between atoms: C_6  and  C_7 
REMARK    4  A    between atoms: C_8  and  N_9 
REMARK       I    between atoms: N_9  and  C_10 
REMARK    5  A    between atoms: C_10  and  C_11 
REMARK    6  A    between atoms: C_11  and  N_12 
REMARK    7  A    between atoms: C_25  and  C_26 
ROOT
HETATM    1  C   UNL     1      41.583 -13.807   3.481  1.00  0.00     0.073 A 
HETATM    2  C   UNL     1      41.997 -13.498   4.761  1.00  0.00     0.093 A 
HETATM    3  S   UNL     1      42.338 -14.854   5.721  1.00  0.00    -0.075 SA
HETATM    4  C   UNL     1      41.779 -15.901   4.510  1.00  0.00    -0.008 A 
HETATM    5  C   UNL     1      41.424 -15.242   3.347  1.00  0.00    -0.026 A 
HETATM    6  C   UNL     1      41.058 -15.999   2.101  1.00  0.00     0.041 C 
HETATM    7  C   UNL     1      40.950 -17.521   2.319  1.00  0.00     0.010 C 
HETATM    8  C   UNL     1      41.903 -18.145   3.381  1.00  0.00    -0.002 C 
HETATM    9  C   UNL     1      41.739 -17.378   4.716  1.00  0.00     0.052 C 
ENDROOT
BRANCH   1  10
HETATM   10  C   UNL     1      41.479 -12.811   2.409  1.00  0.00     0.259 C 
HETATM   11  N   UNL     1      40.219 -12.263   2.280  1.00  0.00    -0.322 N 
HETATM   12  H   UNL     1      39.625 -12.338   3.090  1.00  0.00     0.169 HD
HETATM   13  O   UNL     1      42.467 -12.498   1.753  1.00  0.00    -0.267 OA
BRANCH  11  14
HETATM   14  C   UNL     1      39.753 -11.489   1.193  1.00  0.00     0.041 A 
HETATM   15  C   UNL     1      39.185 -12.121   0.067  1.00  0.00    -0.032 A 
HETATM   16  C   UNL     1      38.800 -11.335  -1.038  1.00  0.00     0.009 A 
HETATM   17  C   UNL     1      38.981  -9.954  -1.038  1.00  0.00     0.001 A 
HETATM   18  C   UNL     1      39.536  -9.334   0.076  1.00  0.00     0.002 A 
HETATM   19  C   UNL     1      39.915 -10.095   1.183  1.00  0.00     0.030 A 
BRANCH  15  20
HETATM   20  C   UNL     1      38.852 -13.596   0.021  1.00  0.00     0.036 C 
HETATM   21  C   UNL     1      37.499 -13.875   0.665  1.00  0.00     0.010 C 
ENDBRANCH  15  20
ENDBRANCH  11  14
ENDBRANCH   1  10
BRANCH   2  22
HETATM   22  N   UNL     1      42.180 -12.319   5.449  1.00  0.00    -0.319 N 
HETATM   23  C   UNL     1      41.140 -11.778   6.173  1.00  0.00     0.248 C 
HETATM   24  O   UNL     1      40.006 -12.245   6.287  1.00  0.00    -0.271 OA
HETATM   25  H   UNL     1      43.141 -12.135   5.714  1.00  0.00     0.169 HD
BRANCH  23  26
HETATM   26  C   UNL     1      41.544 -10.621   7.086  1.00  0.00     0.337 C 
BRANCH  26  27
HETATM   27  N   UNL     1      41.585 -11.105   8.538  1.00  0.00    -0.059 N 
HETATM   28  H   UNL     1      41.510 -12.135   8.468  1.00  0.00     0.280 HD
HETATM   29  C   UNL     1      42.915 -10.805   9.223  1.00  0.00     0.261 C 
HETATM   30  C   UNL     1      42.886 -11.332  10.662  1.00  0.00     0.195 C 
HETATM   31  O   UNL     1      41.784 -10.774  11.385  1.00  0.00    -0.388 OA
HETATM   32  C   UNL     1      40.529 -11.133  10.795  1.00  0.00     0.195 C 
HETATM   33  C   UNL     1      40.422 -10.593   9.364  1.00  0.00     0.261 C 
ENDBRANCH  26  27
ENDBRANCH  23  26
ENDBRANCH   2  22
BRANCH   8  34
HETATM   34  C   UNL     1      43.388 -18.417   2.920  1.00  0.00    -0.047 C 
HETATM   35  C   UNL     1      44.003 -17.316   2.041  1.00  0.00     0.015 C 
HETATM   36  C   UNL     1      44.312 -18.599   4.148  1.00  0.00     0.015 C 
HETATM   37  C   UNL     1      43.440 -19.742   2.122  1.00  0.00     0.015 C 
ENDBRANCH   8  34
TORSDOF 7
ENDMDL
MODEL 9
REMARK VINA RESULT:      -7.7      3.829      7.203
REMARK  7 active torsions:
REMARK  status: ('A' for Active; 'I' for Inactive)
REMARK    1  A    between atoms: C_2  and  C_3 
REMARK    2  A    between atoms: C_4  and  N_5 
REMARK       I    between atoms: N_5  and  C_6 
REMARK    3  A    between atoms: C_6  and  C_7 
REMARK    4  A    between atoms: C_8  and  N_9 
REMARK       I    between atoms: N_9  and  C_10 
REMARK    5  A    between atoms: C_10  and  C_11 
REMARK    6  A    between atoms: C_11  and  N_12 
REMARK    7  A    between atoms: C_25  and  C_26 
ROOT
HETATM    1  C   UNL     1      41.479 -13.808   2.802  1.00  0.00     0.073 A 
HETATM    2  C   UNL     1      41.273 -13.085   1.644  1.00  0.00     0.093 A 
HETATM    3  S   UNL     1      40.268 -11.735   1.844  1.00  0.00    -0.075 SA
HETATM    4  C   UNL     1      39.937 -12.170   3.449  1.00  0.00    -0.008 A 
HETATM    5  C   UNL     1      40.654 -13.275   3.869  1.00  0.00    -0.026 A 
HETATM    6  C   UNL     1      40.627 -13.725   5.303  1.00  0.00     0.041 C 
HETATM    7  C   UNL     1      39.609 -12.956   6.167  1.00  0.00     0.010 C 
HETATM    8  C   UNL     1      39.360 -11.465   5.793  1.00  0.00    -0.002 C 
HETATM    9  C   UNL     1      38.994 -11.377   4.292  1.00  0.00     0.052 C 
ENDROOT
BRANCH   1  10
HETATM   10  C   UNL     1      42.501 -14.853   2.925  1.00  0.00     0.259 C 
HETATM   11  N   UNL     1      42.030 -16.124   2.669  1.00  0.00    -0.322 N 
HETATM   12  H   UNL     1      41.181 -16.175   2.130  1.00  0.00     0.169 HD
HETATM   13  O   UNL     1      43.664 -14.558   3.185  1.00  0.00    -0.267 OA
BRANCH  11  14
HETATM   14  C   UNL     1      42.699 -17.335   2.958  1.00  0.00     0.041 A 
HETATM   15  C   UNL     1      42.678 -17.860   4.268  1.00  0.00    -0.032 A 
HETATM   16  C   UNL     1      43.417 -19.026   4.551  1.00  0.00     0.009 A 
HETATM   17  C   UNL     1      44.171 -19.658   3.564  1.00  0.00     0.001 A 
HETATM   18  C   UNL     1      44.184 -19.142   2.273  1.00  0.00     0.002 A 
HETATM   19  C   UNL     1      43.450 -17.993   1.973  1.00  0.00     0.030 A 
BRANCH  15  20
HETATM   20  C   UNL     1      41.806 -17.304   5.372  1.00  0.00     0.036 C 
HETATM   21  C   UNL     1      42.646 -16.624   6.447  1.00  0.00     0.010 C 
ENDBRANCH  15  20
ENDBRANCH  11  14
ENDBRANCH   1  10
BRANCH   2  22
HETATM   22  N   UNL     1      41.693 -13.228   0.341  1.00  0.00    -0.319 N 
HETATM   23  C   UNL     1      41.269 -14.308  -0.403  1.00  0.00     0.248 C 
HETATM   24  O   UNL     1      40.521 -15.210  -0.024  1.00  0.00    -0.271 OA
HETATM   25  H   UNL     1      41.945 -12.359  -0.115  1.00  0.00     0.169 HD
BRANCH  23  26
HETATM   26  C   UNL     1      41.595 -14.213  -1.893  1.00  0.00     0.337 C 
BRANCH  26  27
HETATM   27  N   UNL     1      41.007 -12.920  -2.465  1.00  0.00    -0.059 N 
HETATM   28  H   UNL     1      40.886 -12.306  -1.640  1.00  0.00     0.280 HD
HETATM   29  C   UNL     1      41.966 -12.203  -3.410  1.00  0.00     0.261 C 
HETATM   30  C   UNL     1      41.317 -10.914  -3.926  1.00  0.00     0.195 C 
HETATM   31  O   UNL     1      40.065 -11.195  -4.559  1.00  0.00    -0.388 OA
HETATM   32  C   UNL     1      39.132 -11.783  -3.647  1.00  0.00     0.195 C 
HETATM   33  C   UNL     1      39.655 -13.123  -3.116  1.00  0.00     0.261 C 
ENDBRANCH  26  27
ENDBRANCH  23  26
ENDBRANCH   2  22
BRANCH   8  34
HETATM   34  C   UNL     1      40.429 -10.423   6.305  1.00  0.00    -0.047 C 
HETATM   35  C   UNL     1      41.534 -11.016   7.194  1.00  0.00     0.015 C 
HETATM   36  C   UNL     1      41.122  -9.726   5.109  1.00  0.00     0.015 C 
HETATM   37  C   UNL     1      39.716  -9.315   7.116  1.00  0.00     0.015 C 
ENDBRANCH   8  34
TORSDOF 7
ENDMDL
MODEL 10
REMARK VINA RESULT:      -7.7      3.162      6.994
REMARK  7 active torsions:
REMARK  status: ('A' for Active; 'I' for Inactive)
REMARK    1  A    between atoms: C_2  and  C_3 
REMARK    2  A    between atoms: C_4  and  N_5 
REMARK       I    between atoms: N_5  and  C_6 
REMARK    3  A    between atoms: C_6  and  C_7 
REMARK    4  A    between atoms: C_8  and  N_9 
REMARK       I    between atoms: N_9  and  C_10 
REMARK    5  A    between atoms: C_10  and  C_11 
REMARK    6  A    between atoms: C_11  and  N_12 
REMARK    7  A    between atoms: C_25  and  C_26 
ROOT
HETATM    1  C   UNL     1      40.132 -14.206   3.676  1.00  0.00     0.073 A 
HETATM    2  C   UNL     1      40.257 -14.165   5.050  1.00  0.00     0.093 A 
HETATM    3  S   UNL     1      40.891 -15.584   5.727  1.00  0.00    -0.075 SA
HETATM    4  C   UNL     1      40.860 -16.363   4.221  1.00  0.00    -0.008 A 
HETATM    5  C   UNL     1      40.464 -15.532   3.190  1.00  0.00    -0.026 A 
HETATM    6  C   UNL     1      40.524 -15.981   1.757  1.00  0.00     0.041 C 
HETATM    7  C   UNL     1      40.886 -17.471   1.598  1.00  0.00     0.010 C 
HETATM    8  C   UNL     1      41.845 -18.075   2.665  1.00  0.00    -0.002 C 
HETATM    9  C   UNL     1      41.272 -17.790   4.074  1.00  0.00     0.052 C 
ENDROOT
BRANCH   1  10
HETATM   10  C   UNL     1      39.850 -13.020   2.859  1.00  0.00     0.259 C 
HETATM   11  N   UNL     1      40.961 -12.243   2.606  1.00  0.00    -0.322 N 
HETATM   12  H   UNL     1      41.851 -12.705   2.707  1.00  0.00     0.169 HD
HETATM   13  O   UNL     1      38.720 -12.817   2.426  1.00  0.00    -0.267 OA
BRANCH  11  14
HETATM   14  C   UNL     1      40.959 -10.930   2.083  1.00  0.00     0.041 A 
HETATM   15  C   UNL     1      41.354 -10.700   0.747  1.00  0.00    -0.032 A 
HETATM   16  C   UNL     1      41.421  -9.375   0.271  1.00  0.00     0.009 A 
HETATM   17  C   UNL     1      41.115  -8.296   1.099  1.00  0.00     0.001 A 
HETATM   18  C   UNL     1      40.721  -8.527   2.411  1.00  0.00     0.002 A 
HETATM   19  C   UNL     1      40.639  -9.833   2.897  1.00  0.00     0.030 A 
BRANCH  15  20
HETATM   20  C   UNL     1      41.600 -11.811  -0.249  1.00  0.00     0.036 C 
HETATM   21  C   UNL     1      42.800 -11.499  -1.136  1.00  0.00     0.010 C 
ENDBRANCH  15  20
ENDBRANCH  11  14
ENDBRANCH   1  10
BRANCH   2  22
HETATM   22  N   UNL     1      39.960 -13.222   6.009  1.00  0.00    -0.319 N 
HETATM   23  C   UNL     1      40.806 -12.153   6.207  1.00  0.00     0.248 C 
HETATM   24  O   UNL     1      41.853 -11.925   5.599  1.00  0.00    -0.271 OA
HETATM   25  H   UNL     1      38.972 -13.142   6.223  1.00  0.00     0.169 HD
BRANCH  23  26
HETATM   26  C   UNL     1      40.237 -11.058   7.108  1.00  0.00     0.337 C 
BRANCH  26  27
HETATM   27  N   UNL     1      40.768 -11.240   8.533  1.00  0.00    -0.059 N 
HETATM   28  H   UNL     1      40.998 -12.248   8.595  1.00  0.00     0.280 HD
HETATM   29  C   UNL     1      42.065 -10.477   8.782  1.00  0.00     0.261 C 
HETATM   30  C   UNL     1      42.542 -10.721  10.218  1.00  0.00     0.195 C 
HETATM   31  O   UNL     1      41.527 -10.356  11.158  1.00  0.00    -0.388 OA
HETATM   32  C   UNL     1      40.340 -11.137  10.985  1.00  0.00     0.195 C 
HETATM   33  C   UNL     1      39.736 -10.916   9.594  1.00  0.00     0.261 C 
ENDBRANCH  26  27
ENDBRANCH  23  26
ENDBRANCH   2  22
BRANCH   8  34
HETATM   34  C   UNL     1      43.384 -17.784   2.473  1.00  0.00    -0.047 C 
HETATM   35  C   UNL     1      43.803 -17.450   1.033  1.00  0.00     0.015 C 
HETATM   36  C   UNL     1      43.829 -16.603   3.370  1.00  0.00     0.015 C 
HETATM   37  C   UNL     1      44.198 -19.020   2.926  1.00  0.00     0.015 C 
ENDBRANCH   8  34
TORSDOF 7
ENDMDL
