MODEL 1
REMARK VINA RESULT:      -9.0      0.000      0.000
REMARK  7 active torsions:
REMARK  status: ('A' for Active; 'I' for Inactive)
REMARK    1  A    between atoms: C_2  and  N_3 
REMARK    2  A    between atoms: C_2  and  C_19 
REMARK       I    between atoms: N_3  and  C_4 
REMARK       I    between atoms: C_4  and  N_5 
REMARK    3  A    between atoms: N_5  and  C_6 
REMARK    4  A    between atoms: N_8  and  C_9 
REMARK    5  A    between atoms: C_9  and  C_10 
REMARK    6  A    between atoms: C_19  and  C_20 
REMARK    7  A    between atoms: C_23  and  O_24 
ROOT
HETATM    1  N   UNL     1      40.472 -14.674   1.040  1.00  0.00    -0.338 N 
HETATM    2  C   UNL     1      39.392 -15.165   1.702  1.00  0.00     0.322 C 
HETATM    3  N   UNL     1      39.617 -16.176   2.588  1.00  0.00    -0.292 N 
HETATM    4  O   UNL     1      38.242 -14.765   1.528  1.00  0.00    -0.247 OA
HETATM    5  H   UNL     1      41.364 -15.061   1.345  1.00  0.00     0.164 HD
HETATM    6  H   UNL     1      38.778 -16.544   3.009  1.00  0.00     0.172 HD
ENDROOT
BRANCH   1   7
HETATM    7  C   UNL     1      40.474 -13.557   0.106  1.00  0.00     0.086 C 
HETATM    8  C   UNL     1      40.824 -12.253   0.826  1.00  0.00     0.032 C 
BRANCH   7   9
HETATM    9  C   UNL     1      39.170 -13.398  -0.703  1.00  0.00     0.063 C 
BRANCH   9  10
HETATM   10  C   UNL     1      39.106 -14.271  -1.936  1.00  0.00    -0.056 A 
HETATM   11  C   UNL     1      40.242 -14.978  -2.359  1.00  0.00     0.010 A 
HETATM   12  C   UNL     1      40.193 -15.788  -3.495  1.00  0.00     0.037 A 
HETATM   13  C   UNL     1      39.003 -15.891  -4.208  1.00  0.00     0.065 A 
HETATM   14  C   UNL     1      37.868 -15.197  -3.807  1.00  0.00     0.037 A 
HETATM   15  C   UNL     1      37.919 -14.386  -2.672  1.00  0.00     0.010 A 
BRANCH  13  16
HETATM   16  O   UNL     1      38.909 -16.675  -5.321  1.00  0.00    -0.361 OA
HETATM   17  H   UNL     1      39.276 -17.548  -5.109  1.00  0.00     0.217 HD
ENDBRANCH  13  16
ENDBRANCH   9  10
ENDBRANCH   7   9
ENDBRANCH   1   7
BRANCH   3  18
HETATM   18  C   UNL     1      40.817 -16.714   2.994  1.00  0.00     0.153 A 
HETATM   19  N   UNL     1      41.747 -17.215   2.171  1.00  0.00    -0.154 NA
HETATM   20  N   UNL     1      42.746 -17.604   2.991  1.00  0.00    -0.275 N 
HETATM   21  C   UNL     1      42.484 -17.361   4.309  1.00  0.00     0.116 A 
HETATM   22  C   UNL     1      41.235 -16.786   4.344  1.00  0.00     0.071 A 
BRANCH  20  23
HETATM   23  C   UNL     1      43.984 -18.133   2.433  1.00  0.00     0.189 C 
BRANCH  23  24
HETATM   24  C   UNL     1      44.142 -19.607   2.704  1.00  0.00    -0.038 A 
HETATM   25  C   UNL     1      43.735 -20.553   1.751  1.00  0.00     0.009 A 
HETATM   26  C   UNL     1      43.894 -21.918   1.994  1.00  0.00     0.001 A 
HETATM   27  C   UNL     1      44.460 -22.352   3.190  1.00  0.00     0.000 A 
HETATM   28  C   UNL     1      44.868 -21.423   4.146  1.00  0.00     0.001 A 
HETATM   29  C   UNL     1      44.709 -20.057   3.905  1.00  0.00     0.009 A 
ENDBRANCH  23  24
ENDBRANCH  20  23
ENDBRANCH   3  18
TORSDOF 7
ENDMDL
MODEL 2
REMARK VINA RESULT:      -8.8      3.279      5.851
REMARK  7 active torsions:
REMARK  status: ('A' for Active; 'I' for Inactive)
REMARK    1  A    between atoms: C_2  and  N_3 
REMARK    2  A    between atoms: C_2  and  C_19 
REMARK       I    between atoms: N_3  and  C_4 
REMARK       I    between atoms: C_4  and  N_5 
REMARK    3  A    between atoms: N_5  and  C_6 
REMARK    4  A    between atoms: N_8  and  C_9 
REMARK    5  A    between atoms: C_9  and  C_10 
REMARK    6  A    between atoms: C_19  and  C_20 
REMARK    7  A    between atoms: C_23  and  O_24 
ROOT
HETATM    1  N   UNL     1      40.410 -14.900   3.039  1.00  0.00    -0.338 N 
HETATM    2  C   UNL     1      39.777 -15.661   2.109  1.00  0.00     0.322 C 
HETATM    3  N   UNL     1      40.509 -16.647   1.516  1.00  0.00    -0.292 N 
HETATM    4  O   UNL     1      38.608 -15.494   1.767  1.00  0.00    -0.247 OA
HETATM    5  H   UNL     1      41.356 -15.207   3.262  1.00  0.00     0.164 HD
HETATM    6  H   UNL     1      40.012 -17.145   0.794  1.00  0.00     0.172 HD
ENDROOT
BRANCH   1   7
HETATM    7  C   UNL     1      39.808 -13.844   3.841  1.00  0.00     0.086 C 
HETATM    8  C   UNL     1      40.422 -12.487   3.495  1.00  0.00     0.032 C 
BRANCH   7   9
HETATM    9  C   UNL     1      39.858 -14.092   5.363  1.00  0.00     0.063 C 
BRANCH   9  10
HETATM   10  C   UNL     1      41.045 -14.915   5.809  1.00  0.00    -0.056 A 
HETATM   11  C   UNL     1      40.869 -16.246   6.215  1.00  0.00     0.010 A 
HETATM   12  C   UNL     1      41.959 -17.015   6.627  1.00  0.00     0.037 A 
HETATM   13  C   UNL     1      43.230 -16.449   6.630  1.00  0.00     0.065 A 
HETATM   14  C   UNL     1      43.425 -15.132   6.234  1.00  0.00     0.037 A 
HETATM   15  C   UNL     1      42.334 -14.364   5.825  1.00  0.00     0.010 A 
BRANCH  13  16
HETATM   16  O   UNL     1      44.323 -17.166   7.020  1.00  0.00    -0.361 OA
HETATM   17  H   UNL     1      44.381 -17.130   7.988  1.00  0.00     0.217 HD
ENDBRANCH  13  16
ENDBRANCH   9  10
ENDBRANCH   7   9
ENDBRANCH   1   7
BRANCH   3  18
HETATM   18  C   UNL     1      41.791 -17.059   1.801  1.00  0.00     0.153 A 
HETATM   19  N   UNL     1      42.200 -17.510   2.993  1.00  0.00    -0.154 NA
HETATM   20  N   UNL     1      43.502 -17.812   2.809  1.00  0.00    -0.275 N 
HETATM   21  C   UNL     1      43.932 -17.575   1.535  1.00  0.00     0.116 A 
HETATM   22  C   UNL     1      42.844 -17.081   0.857  1.00  0.00     0.071 A 
BRANCH  20  23
HETATM   23  C   UNL     1      44.271 -18.418   3.888  1.00  0.00     0.189 C 
BRANCH  23  24
HETATM   24  C   UNL     1      44.374 -19.914   3.738  1.00  0.00    -0.038 A 
HETATM   25  C   UNL     1      44.099 -20.526   2.506  1.00  0.00     0.009 A 
HETATM   26  C   UNL     1      44.209 -21.910   2.362  1.00  0.00     0.001 A 
HETATM   27  C   UNL     1      44.594 -22.696   3.446  1.00  0.00     0.000 A 
HETATM   28  C   UNL     1      44.868 -22.101   4.675  1.00  0.00     0.001 A 
HETATM   29  C   UNL     1      44.758 -20.716   4.822  1.00  0.00     0.009 A 
ENDBRANCH  23  24
ENDBRANCH  20  23
ENDBRANCH   3  18
TORSDOF 7
ENDMDL
MODEL 3
REMARK VINA RESULT:      -8.7      7.652     11.071
REMARK  7 active torsions:
REMARK  status: ('A' for Active; 'I' for Inactive)
REMARK    1  A    between atoms: C_2  and  N_3 
REMARK    2  A    between atoms: C_2  and  C_19 
REMARK       I    between atoms: N_3  and  C_4 
REMARK       I    between atoms: C_4  and  N_5 
REMARK    3  A    between atoms: N_5  and  C_6 
REMARK    4  A    between atoms: N_8  and  C_9 
REMARK    5  A    between atoms: C_9  and  C_10 
REMARK    6  A    between atoms: C_19  and  C_20 
REMARK    7  A    between atoms: C_23  and  O_24 
ROOT
HETATM    1  N   UNL     1      44.535 -12.847   9.016  1.00  0.00    -0.338 N 
HETATM    2  C   UNL     1      45.544 -12.791   8.109  1.00  0.00     0.322 C 
HETATM    3  N   UNL     1      45.427 -13.581   7.005  1.00  0.00    -0.292 N 
HETATM    4  O   UNL     1      46.547 -12.092   8.244  1.00  0.00    -0.247 OA
HETATM    5  H   UNL     1      43.741 -13.419   8.729  1.00  0.00     0.164 HD
HETATM    6  H   UNL     1      46.227 -13.546   6.392  1.00  0.00     0.172 HD
ENDROOT
BRANCH   1   7
HETATM    7  C   UNL     1      44.419 -12.044  10.226  1.00  0.00     0.086 C 
HETATM    8  C   UNL     1      44.509 -12.928  11.471  1.00  0.00     0.032 C 
BRANCH   7   9
HETATM    9  C   UNL     1      43.160 -11.152  10.282  1.00  0.00     0.063 C 
BRANCH   9  10
HETATM   10  C   UNL     1      42.781 -10.721  11.681  1.00  0.00    -0.056 A 
HETATM   11  C   UNL     1      43.615  -9.855  12.404  1.00  0.00     0.010 A 
HETATM   12  C   UNL     1      43.273  -9.450  13.695  1.00  0.00     0.037 A 
HETATM   13  C   UNL     1      42.090  -9.912  14.264  1.00  0.00     0.065 A 
HETATM   14  C   UNL     1      41.252 -10.772  13.566  1.00  0.00     0.037 A 
HETATM   15  C   UNL     1      41.596 -11.178  12.276  1.00  0.00     0.010 A 
BRANCH  13  16
HETATM   16  O   UNL     1      41.715  -9.538  15.521  1.00  0.00    -0.361 OA
HETATM   17  H   UNL     1      42.461  -9.697  16.121  1.00  0.00     0.217 HD
ENDBRANCH  13  16
ENDBRANCH   9  10
ENDBRANCH   7   9
ENDBRANCH   1   7
BRANCH   3  18
HETATM   18  C   UNL     1      44.365 -14.367   6.616  1.00  0.00     0.153 A 
HETATM   19  N   UNL     1      44.293 -15.692   6.789  1.00  0.00    -0.154 NA
HETATM   20  N   UNL     1      43.088 -16.031   6.284  1.00  0.00    -0.275 N 
HETATM   21  C   UNL     1      42.389 -14.962   5.802  1.00  0.00     0.116 A 
HETATM   22  C   UNL     1      43.194 -13.866   6.000  1.00  0.00     0.071 A 
BRANCH  20  23
HETATM   23  C   UNL     1      42.620 -17.408   6.374  1.00  0.00     0.189 C 
BRANCH  23  24
HETATM   24  C   UNL     1      43.264 -18.292   5.338  1.00  0.00    -0.038 A 
HETATM   25  C   UNL     1      44.253 -19.216   5.705  1.00  0.00     0.009 A 
HETATM   26  C   UNL     1      44.840 -20.046   4.748  1.00  0.00     0.001 A 
HETATM   27  C   UNL     1      44.443 -19.962   3.415  1.00  0.00     0.000 A 
HETATM   28  C   UNL     1      43.463 -19.048   3.036  1.00  0.00     0.001 A 
HETATM   29  C   UNL     1      42.875 -18.216   3.992  1.00  0.00     0.009 A 
ENDBRANCH  23  24
ENDBRANCH  20  23
ENDBRANCH   3  18
TORSDOF 7
ENDMDL
MODEL 4
REMARK VINA RESULT:      -8.6      2.623      8.245
REMARK  7 active torsions:
REMARK  status: ('A' for Active; 'I' for Inactive)
REMARK    1  A    between atoms: C_2  and  N_3 
REMARK    2  A    between atoms: C_2  and  C_19 
REMARK       I    between atoms: N_3  and  C_4 
REMARK       I    between atoms: C_4  and  N_5 
REMARK    3  A    between atoms: N_5  and  C_6 
REMARK    4  A    between atoms: N_8  and  C_9 
REMARK    5  A    between atoms: C_9  and  C_10 
REMARK    6  A    between atoms: C_19  and  C_20 
REMARK    7  A    between atoms: C_23  and  O_24 
ROOT
HETATM    1  N   UNL     1      42.160 -16.709   2.405  1.00  0.00    -0.338 N 
HETATM    2  C   UNL     1      41.377 -16.493   3.494  1.00  0.00     0.322 C 
HETATM    3  N   UNL     1      40.317 -15.651   3.337  1.00  0.00    -0.292 N 
HETATM    4  O   UNL     1      41.587 -16.994   4.598  1.00  0.00    -0.247 OA
HETATM    5  H   UNL     1      41.816 -16.278   1.547  1.00  0.00     0.164 HD
HETATM    6  H   UNL     1      39.803 -15.479   4.187  1.00  0.00     0.172 HD
ENDROOT
BRANCH   1   7
HETATM    7  C   UNL     1      43.296 -17.617   2.328  1.00  0.00     0.086 C 
HETATM    8  C   UNL     1      44.370 -17.058   1.393  1.00  0.00     0.032 C 
BRANCH   7   9
HETATM    9  C   UNL     1      42.931 -19.063   1.933  1.00  0.00     0.063 C 
BRANCH   9  10
HETATM   10  C   UNL     1      43.628 -20.117   2.763  1.00  0.00    -0.056 A 
HETATM   11  C   UNL     1      43.827 -21.406   2.247  1.00  0.00     0.010 A 
HETATM   12  C   UNL     1      44.471 -22.385   3.006  1.00  0.00     0.037 A 
HETATM   13  C   UNL     1      44.918 -22.072   4.285  1.00  0.00     0.065 A 
HETATM   14  C   UNL     1      44.727 -20.802   4.817  1.00  0.00     0.037 A 
HETATM   15  C   UNL     1      44.082 -19.825   4.058  1.00  0.00     0.010 A 
BRANCH  13  16
HETATM   16  O   UNL     1      45.556 -22.997   5.059  1.00  0.00    -0.361 OA
HETATM   17  H   UNL     1      45.843 -23.726   4.486  1.00  0.00     0.217 HD
ENDBRANCH  13  16
ENDBRANCH   9  10
ENDBRANCH   7   9
ENDBRANCH   1   7
BRANCH   3  18
HETATM   18  C   UNL     1      39.854 -15.055   2.186  1.00  0.00     0.153 A 
HETATM   19  N   UNL     1      40.631 -14.622   1.185  1.00  0.00    -0.154 NA
HETATM   20  N   UNL     1      39.763 -14.136   0.273  1.00  0.00    -0.275 N 
HETATM   21  C   UNL     1      38.458 -14.253   0.658  1.00  0.00     0.116 A 
HETATM   22  C   UNL     1      38.485 -14.843   1.900  1.00  0.00     0.071 A 
BRANCH  20  23
HETATM   23  C   UNL     1      40.250 -13.643  -1.009  1.00  0.00     0.189 C 
BRANCH  23  24
HETATM   24  C   UNL     1      39.741 -14.469  -2.162  1.00  0.00    -0.038 A 
HETATM   25  C   UNL     1      40.443 -15.607  -2.589  1.00  0.00     0.009 A 
HETATM   26  C   UNL     1      39.965 -16.381  -3.647  1.00  0.00     0.001 A 
HETATM   27  C   UNL     1      38.780 -16.027  -4.289  1.00  0.00     0.000 A 
HETATM   28  C   UNL     1      38.073 -14.900  -3.877  1.00  0.00     0.001 A 
HETATM   29  C   UNL     1      38.551 -14.123  -2.819  1.00  0.00     0.009 A 
ENDBRANCH  23  24
ENDBRANCH  20  23
ENDBRANCH   3  18
TORSDOF 7
ENDMDL
MODEL 5
REMARK VINA RESULT:      -8.5      2.198      2.993
REMARK  7 active torsions:
REMARK  status: ('A' for Active; 'I' for Inactive)
REMARK    1  A    between atoms: C_2  and  N_3 
REMARK    2  A    between atoms: C_2  and  C_19 
REMARK       I    between atoms: N_3  and  C_4 
REMARK       I    between atoms: C_4  and  N_5 
REMARK    3  A    between atoms: N_5  and  C_6 
REMARK    4  A    between atoms: N_8  and  C_9 
REMARK    5  A    between atoms: C_9  and  C_10 
REMARK    6  A    between atoms: C_19  and  C_20 
REMARK    7  A    between atoms: C_23  and  O_24 
ROOT
HETATM    1  N   UNL     1      41.114 -15.420   3.237  1.00  0.00    -0.338 N 
HETATM    2  C   UNL     1      41.293 -14.549   4.264  1.00  0.00     0.322 C 
HETATM    3  N   UNL     1      41.893 -15.034   5.387  1.00  0.00    -0.292 N 
HETATM    4  O   UNL     1      40.929 -13.375   4.237  1.00  0.00    -0.247 OA
HETATM    5  H   UNL     1      41.532 -16.338   3.385  1.00  0.00     0.164 HD
HETATM    6  H   UNL     1      41.951 -14.365   6.139  1.00  0.00     0.172 HD
ENDROOT
BRANCH   1   7
HETATM    7  C   UNL     1      40.561 -15.104   1.927  1.00  0.00     0.086 C 
HETATM    8  C   UNL     1      39.034 -15.178   1.953  1.00  0.00     0.032 C 
BRANCH   7   9
HETATM    9  C   UNL     1      41.127 -15.958   0.772  1.00  0.00     0.063 C 
BRANCH   9  10
HETATM   10  C   UNL     1      41.325 -15.190  -0.515  1.00  0.00    -0.056 A 
HETATM   11  C   UNL     1      40.994 -15.777  -1.745  1.00  0.00     0.010 A 
HETATM   12  C   UNL     1      41.172 -15.075  -2.939  1.00  0.00     0.037 A 
HETATM   13  C   UNL     1      41.681 -13.781  -2.900  1.00  0.00     0.065 A 
HETATM   14  C   UNL     1      42.018 -13.183  -1.692  1.00  0.00     0.037 A 
HETATM   15  C   UNL     1      41.842 -13.887  -0.500  1.00  0.00     0.010 A 
BRANCH  13  16
HETATM   16  O   UNL     1      41.866 -13.058  -4.042  1.00  0.00    -0.361 OA
HETATM   17  H   UNL     1      41.184 -12.369  -4.079  1.00  0.00     0.217 HD
ENDBRANCH  13  16
ENDBRANCH   9  10
ENDBRANCH   7   9
ENDBRANCH   1   7
BRANCH   3  18
HETATM   18  C   UNL     1      42.448 -16.275   5.601  1.00  0.00     0.153 A 
HETATM   19  N   UNL     1      43.488 -16.773   4.921  1.00  0.00    -0.154 NA
HETATM   20  N   UNL     1      43.698 -17.987   5.471  1.00  0.00    -0.275 N 
HETATM   21  C   UNL     1      42.829 -18.275   6.484  1.00  0.00     0.116 A 
HETATM   22  C   UNL     1      42.001 -17.183   6.590  1.00  0.00     0.071 A 
BRANCH  20  23
HETATM   23  C   UNL     1      44.823 -18.803   5.032  1.00  0.00     0.189 C 
BRANCH  23  24
HETATM   24  C   UNL     1      44.430 -19.769   3.945  1.00  0.00    -0.038 A 
HETATM   25  C   UNL     1      43.689 -19.331   2.837  1.00  0.00     0.009 A 
HETATM   26  C   UNL     1      43.336 -20.222   1.822  1.00  0.00     0.001 A 
HETATM   27  C   UNL     1      43.721 -21.558   1.902  1.00  0.00     0.000 A 
HETATM   28  C   UNL     1      44.457 -22.007   2.997  1.00  0.00     0.001 A 
HETATM   29  C   UNL     1      44.809 -21.118   4.015  1.00  0.00     0.009 A 
ENDBRANCH  23  24
ENDBRANCH  20  23
ENDBRANCH   3  18
TORSDOF 7
ENDMDL
MODEL 6
REMARK VINA RESULT:      -8.5      3.740      7.540
REMARK  7 active torsions:
REMARK  status: ('A' for Active; 'I' for Inactive)
REMARK    1  A    between atoms: C_2  and  N_3 
REMARK    2  A    between atoms: C_2  and  C_19 
REMARK       I    between atoms: N_3  and  C_4 
REMARK       I    between atoms: C_4  and  N_5 
REMARK    3  A    between atoms: N_5  and  C_6 
REMARK    4  A    between atoms: N_8  and  C_9 
REMARK    5  A    between atoms: C_9  and  C_10 
REMARK    6  A    between atoms: C_19  and  C_20 
REMARK    7  A    between atoms: C_23  and  O_24 
ROOT
HETATM    1  N   UNL     1      42.818 -16.494   5.900  1.00  0.00    -0.338 N 
HETATM    2  C   UNL     1      43.391 -15.406   6.475  1.00  0.00     0.322 C 
HETATM    3  N   UNL     1      42.822 -14.196   6.212  1.00  0.00    -0.292 N 
HETATM    4  O   UNL     1      44.391 -15.456   7.190  1.00  0.00    -0.247 OA
HETATM    5  H   UNL     1      41.955 -16.298   5.392  1.00  0.00     0.164 HD
HETATM    6  H   UNL     1      43.318 -13.416   6.615  1.00  0.00     0.172 HD
ENDROOT
BRANCH   1   7
HETATM    7  C   UNL     1      43.214 -17.882   6.096  1.00  0.00     0.086 C 
HETATM    8  C   UNL     1      43.246 -18.228   7.586  1.00  0.00     0.032 C 
BRANCH   7   9
HETATM    9  C   UNL     1      44.547 -18.267   5.420  1.00  0.00     0.063 C 
BRANCH   9  10
HETATM   10  C   UNL     1      44.402 -19.316   4.341  1.00  0.00    -0.056 A 
HETATM   11  C   UNL     1      43.833 -18.982   3.103  1.00  0.00     0.010 A 
HETATM   12  C   UNL     1      43.696 -19.943   2.099  1.00  0.00     0.037 A 
HETATM   13  C   UNL     1      44.132 -21.243   2.336  1.00  0.00     0.065 A 
HETATM   14  C   UNL     1      44.695 -21.595   3.556  1.00  0.00     0.037 A 
HETATM   15  C   UNL     1      44.830 -20.633   4.559  1.00  0.00     0.010 A 
BRANCH  13  16
HETATM   16  O   UNL     1      44.022 -22.212   1.382  1.00  0.00    -0.361 OA
HETATM   17  H   UNL     1      44.395 -21.867   0.555  1.00  0.00     0.217 HD
ENDBRANCH  13  16
ENDBRANCH   9  10
ENDBRANCH   7   9
ENDBRANCH   1   7
BRANCH   3  18
HETATM   18  C   UNL     1      41.666 -13.920   5.517  1.00  0.00     0.153 A 
HETATM   19  N   UNL     1      41.291 -14.531   4.387  1.00  0.00    -0.154 NA
HETATM   20  N   UNL     1      40.106 -13.966   4.077  1.00  0.00    -0.275 N 
HETATM   21  C   UNL     1      39.711 -13.019   4.978  1.00  0.00     0.116 A 
HETATM   22  C   UNL     1      40.707 -12.964   5.924  1.00  0.00     0.071 A 
BRANCH  20  23
HETATM   23  C   UNL     1      39.345 -14.446   2.930  1.00  0.00     0.189 C 
BRANCH  23  24
HETATM   24  C   UNL     1      40.191 -15.272   1.997  1.00  0.00    -0.038 A 
HETATM   25  C   UNL     1      40.996 -14.653   1.029  1.00  0.00     0.009 A 
HETATM   26  C   UNL     1      41.791 -15.417   0.173  1.00  0.00     0.001 A 
HETATM   27  C   UNL     1      41.792 -16.806   0.277  1.00  0.00     0.000 A 
HETATM   28  C   UNL     1      40.997 -17.434   1.233  1.00  0.00     0.001 A 
HETATM   29  C   UNL     1      40.199 -16.672   2.089  1.00  0.00     0.009 A 
ENDBRANCH  23  24
ENDBRANCH  20  23
ENDBRANCH   3  18
TORSDOF 7
ENDMDL
MODEL 7
REMARK VINA RESULT:      -8.5      2.528      5.050
REMARK  7 active torsions:
REMARK  status: ('A' for Active; 'I' for Inactive)
REMARK    1  A    between atoms: C_2  and  N_3 
REMARK    2  A    between atoms: C_2  and  C_19 
REMARK       I    between atoms: N_3  and  C_4 
REMARK       I    between atoms: C_4  and  N_5 
REMARK    3  A    between atoms: N_5  and  C_6 
REMARK    4  A    between atoms: N_8  and  C_9 
REMARK    5  A    between atoms: C_9  and  C_10 
REMARK    6  A    between atoms: C_19  and  C_20 
REMARK    7  A    between atoms: C_23  and  O_24 
ROOT
HETATM    1  N   UNL     1      40.272 -14.192   1.684  1.00  0.00    -0.338 N 
HETATM    2  C   UNL     1      39.231 -15.064   1.721  1.00  0.00     0.322 C 
HETATM    3  N   UNL     1      39.500 -16.331   2.145  1.00  0.00    -0.292 N 
HETATM    4  O   UNL     1      38.085 -14.777   1.377  1.00  0.00    -0.247 OA
HETATM    5  H   UNL     1      41.143 -14.560   2.066  1.00  0.00     0.164 HD
HETATM    6  H   UNL     1      38.708 -16.953   2.100  1.00  0.00     0.172 HD
ENDROOT
BRANCH   1   7
HETATM    7  C   UNL     1      40.201 -12.781   1.332  1.00  0.00     0.086 C 
HETATM    8  C   UNL     1      40.414 -12.588  -0.171  1.00  0.00     0.032 C 
BRANCH   7   9
HETATM    9  C   UNL     1      41.155 -11.873   2.137  1.00  0.00     0.063 C 
BRANCH   9  10
HETATM   10  C   UNL     1      41.735 -12.536   3.366  1.00  0.00    -0.056 A 
HETATM   11  C   UNL     1      42.902 -13.308   3.267  1.00  0.00     0.010 A 
HETATM   12  C   UNL     1      43.446 -13.923   4.397  1.00  0.00     0.037 A 
HETATM   13  C   UNL     1      42.821 -13.762   5.629  1.00  0.00     0.065 A 
HETATM   14  C   UNL     1      41.662 -13.004   5.747  1.00  0.00     0.037 A 
HETATM   15  C   UNL     1      41.118 -12.392   4.616  1.00  0.00     0.010 A 
BRANCH  13  16
HETATM   16  O   UNL     1      43.321 -14.341   6.758  1.00  0.00    -0.361 OA
HETATM   17  H   UNL     1      44.177 -14.742   6.540  1.00  0.00     0.217 HD
ENDBRANCH  13  16
ENDBRANCH   9  10
ENDBRANCH   7   9
ENDBRANCH   1   7
BRANCH   3  18
HETATM   18  C   UNL     1      40.676 -16.839   2.650  1.00  0.00     0.153 A 
HETATM   19  N   UNL     1      41.692 -17.293   1.907  1.00  0.00    -0.154 NA
HETATM   20  N   UNL     1      42.625 -17.668   2.807  1.00  0.00    -0.275 N 
HETATM   21  C   UNL     1      42.238 -17.458   4.099  1.00  0.00     0.116 A 
HETATM   22  C   UNL     1      40.973 -16.924   4.031  1.00  0.00     0.071 A 
BRANCH  20  23
HETATM   23  C   UNL     1      43.925 -18.146   2.355  1.00  0.00     0.189 C 
BRANCH  23  24
HETATM   24  C   UNL     1      44.122 -19.611   2.649  1.00  0.00    -0.038 A 
HETATM   25  C   UNL     1      44.666 -20.025   3.874  1.00  0.00     0.009 A 
HETATM   26  C   UNL     1      44.834 -21.382   4.153  1.00  0.00     0.001 A 
HETATM   27  C   UNL     1      44.460 -22.339   3.212  1.00  0.00     0.000 A 
HETATM   28  C   UNL     1      43.920 -21.942   1.991  1.00  0.00     0.001 A 
HETATM   29  C   UNL     1      43.751 -20.584   1.709  1.00  0.00     0.009 A 
ENDBRANCH  23  24
ENDBRANCH  20  23
ENDBRANCH   3  18
TORSDOF 7
ENDMDL
MODEL 8
REMARK VINA RESULT:      -8.3      2.482      8.225
REMARK  7 active torsions:
REMARK  status: ('A' for Active; 'I' for Inactive)
REMARK    1  A    between atoms: C_2  and  N_3 
REMARK    2  A    between atoms: C_2  and  C_19 
REMARK       I    between atoms: N_3  and  C_4 
REMARK       I    between atoms: C_4  and  N_5 
REMARK    3  A    between atoms: N_5  and  C_6 
REMARK    4  A    between atoms: N_8  and  C_9 
REMARK    5  A    between atoms: C_9  and  C_10 
REMARK    6  A    between atoms: C_19  and  C_20 
REMARK    7  A    between atoms: C_23  and  O_24 
ROOT
HETATM    1  N   UNL     1      42.219 -16.086   2.555  1.00  0.00    -0.338 N 
HETATM    2  C   UNL     1      41.084 -15.473   2.980  1.00  0.00     0.322 C 
HETATM    3  N   UNL     1      40.615 -14.445   2.217  1.00  0.00    -0.292 N 
HETATM    4  O   UNL     1      40.483 -15.779   4.008  1.00  0.00    -0.247 OA
HETATM    5  H   UNL     1      42.559 -15.765   1.649  1.00  0.00     0.164 HD
HETATM    6  H   UNL     1      39.805 -13.986   2.605  1.00  0.00     0.172 HD
ENDROOT
BRANCH   1   7
HETATM    7  C   UNL     1      42.855 -17.243   3.172  1.00  0.00     0.086 C 
HETATM    8  C   UNL     1      43.476 -16.863   4.517  1.00  0.00     0.032 C 
BRANCH   7   9
HETATM    9  C   UNL     1      43.890 -17.955   2.277  1.00  0.00     0.063 C 
BRANCH   9  10
HETATM   10  C   UNL     1      44.108 -19.408   2.633  1.00  0.00    -0.056 A 
HETATM   11  C   UNL     1      43.733 -20.420   1.736  1.00  0.00     0.010 A 
HETATM   12  C   UNL     1      43.931 -21.764   2.056  1.00  0.00     0.037 A 
HETATM   13  C   UNL     1      44.507 -22.097   3.277  1.00  0.00     0.065 A 
HETATM   14  C   UNL     1      44.882 -21.111   4.181  1.00  0.00     0.037 A 
HETATM   15  C   UNL     1      44.682 -19.767   3.861  1.00  0.00     0.010 A 
BRANCH  13  16
HETATM   16  O   UNL     1      44.723 -23.397   3.628  1.00  0.00    -0.361 OA
HETATM   17  H   UNL     1      45.673 -23.580   3.548  1.00  0.00     0.217 HD
ENDBRANCH  13  16
ENDBRANCH   9  10
ENDBRANCH   7   9
ENDBRANCH   1   7
BRANCH   3  18
HETATM   18  C   UNL     1      41.076 -13.995   1.000  1.00  0.00     0.153 A 
HETATM   19  N   UNL     1      41.025 -14.694  -0.140  1.00  0.00    -0.154 NA
HETATM   20  N   UNL     1      41.561 -13.868  -1.063  1.00  0.00    -0.275 N 
HETATM   21  C   UNL     1      41.943 -12.663  -0.548  1.00  0.00     0.116 A 
HETATM   22  C   UNL     1      41.644 -12.716   0.793  1.00  0.00     0.071 A 
BRANCH  20  23
HETATM   23  C   UNL     1      41.598 -14.266  -2.465  1.00  0.00     0.189 C 
BRANCH  23  24
HETATM   24  C   UNL     1      40.226 -14.587  -2.998  1.00  0.00    -0.038 A 
HETATM   25  C   UNL     1      39.208 -13.621  -2.972  1.00  0.00     0.009 A 
HETATM   26  C   UNL     1      37.941 -13.912  -3.479  1.00  0.00     0.001 A 
HETATM   27  C   UNL     1      37.678 -15.170  -4.018  1.00  0.00     0.000 A 
HETATM   28  C   UNL     1      38.679 -16.138  -4.049  1.00  0.00     0.001 A 
HETATM   29  C   UNL     1      39.948 -15.849  -3.542  1.00  0.00     0.009 A 
ENDBRANCH  23  24
ENDBRANCH  20  23
ENDBRANCH   3  18
TORSDOF 7
ENDMDL
MODEL 9
REMARK VINA RESULT:      -8.3      2.879      8.244
REMARK  7 active torsions:
REMARK  status: ('A' for Active; 'I' for Inactive)
REMARK    1  A    between atoms: C_2  and  N_3 
REMARK    2  A    between atoms: C_2  and  C_19 
REMARK       I    between atoms: N_3  and  C_4 
REMARK       I    between atoms: C_4  and  N_5 
REMARK    3  A    between atoms: N_5  and  C_6 
REMARK    4  A    between atoms: N_8  and  C_9 
REMARK    5  A    between atoms: C_9  and  C_10 
REMARK    6  A    between atoms: C_19  and  C_20 
REMARK    7  A    between atoms: C_23  and  O_24 
ROOT
HETATM    1  N   UNL     1      41.720 -16.345   3.226  1.00  0.00    -0.338 N 
HETATM    2  C   UNL     1      40.710 -15.773   3.931  1.00  0.00     0.322 C 
HETATM    3  N   UNL     1      39.860 -14.960   3.244  1.00  0.00    -0.292 N 
HETATM    4  O   UNL     1      40.542 -15.934   5.139  1.00  0.00    -0.247 OA
HETATM    5  H   UNL     1      41.684 -16.172   2.222  1.00  0.00     0.164 HD
HETATM    6  H   UNL     1      39.164 -14.516   3.822  1.00  0.00     0.172 HD
ENDROOT
BRANCH   1   7
HETATM    7  C   UNL     1      42.697 -17.296   3.739  1.00  0.00     0.086 C 
HETATM    8  C   UNL     1      43.517 -16.671   4.869  1.00  0.00     0.032 C 
BRANCH   7   9
HETATM    9  C   UNL     1      43.625 -17.901   2.664  1.00  0.00     0.063 C 
BRANCH   9  10
HETATM   10  C   UNL     1      43.937 -19.364   2.880  1.00  0.00    -0.056 A 
HETATM   11  C   UNL     1      43.593 -20.312   1.904  1.00  0.00     0.010 A 
HETATM   12  C   UNL     1      43.878 -21.665   2.094  1.00  0.00     0.037 A 
HETATM   13  C   UNL     1      44.511 -22.071   3.265  1.00  0.00     0.065 A 
HETATM   14  C   UNL     1      44.857 -21.149   4.245  1.00  0.00     0.037 A 
HETATM   15  C   UNL     1      44.569 -19.796   4.054  1.00  0.00     0.010 A 
BRANCH  13  16
HETATM   16  O   UNL     1      44.812 -23.382   3.489  1.00  0.00    -0.361 OA
HETATM   17  H   UNL     1      44.377 -23.915   2.805  1.00  0.00     0.217 HD
ENDBRANCH  13  16
ENDBRANCH   9  10
ENDBRANCH   7   9
ENDBRANCH   1   7
BRANCH   3  18
HETATM   18  C   UNL     1      39.813 -14.709   1.891  1.00  0.00     0.153 A 
HETATM   19  N   UNL     1      40.811 -14.956   1.034  1.00  0.00    -0.154 NA
HETATM   20  N   UNL     1      40.323 -14.579  -0.166  1.00  0.00    -0.275 N 
HETATM   21  C   UNL     1      39.044 -14.107  -0.101  1.00  0.00     0.116 A 
HETATM   22  C   UNL     1      38.685 -14.174   1.224  1.00  0.00     0.071 A 
BRANCH  20  23
HETATM   23  C   UNL     1      41.115 -14.781  -1.373  1.00  0.00     0.189 C 
BRANCH  23  24
HETATM   24  C   UNL     1      41.625 -13.481  -1.939  1.00  0.00    -0.038 A 
HETATM   25  C   UNL     1      42.304 -12.566  -1.121  1.00  0.00     0.009 A 
HETATM   26  C   UNL     1      42.789 -11.368  -1.647  1.00  0.00     0.001 A 
HETATM   27  C   UNL     1      42.601 -11.072  -2.996  1.00  0.00     0.000 A 
HETATM   28  C   UNL     1      41.928 -11.972  -3.819  1.00  0.00     0.001 A 
HETATM   29  C   UNL     1      41.441 -13.171  -3.294  1.00  0.00     0.009 A 
ENDBRANCH  23  24
ENDBRANCH  20  23
ENDBRANCH   3  18
TORSDOF 7
ENDMDL
MODEL 10
REMARK VINA RESULT:      -8.3      3.151      7.407
REMARK  7 active torsions:
REMARK  status: ('A' for Active; 'I' for Inactive)
REMARK    1  A    between atoms: C_2  and  N_3 
REMARK    2  A    between atoms: C_2  and  C_19 
REMARK       I    between atoms: N_3  and  C_4 
REMARK       I    between atoms: C_4  and  N_5 
REMARK    3  A    between atoms: N_5  and  C_6 
REMARK    4  A    between atoms: N_8  and  C_9 
REMARK    5  A    between atoms: C_9  and  C_10 
REMARK    6  A    between atoms: C_19  and  C_20 
REMARK    7  A    between atoms: C_23  and  O_24 
ROOT
HETATM    1  N   UNL     1      41.904 -16.708   5.658  1.00  0.00    -0.338 N 
HETATM    2  C   UNL     1      40.649 -16.533   6.147  1.00  0.00     0.322 C 
HETATM    3  N   UNL     1      39.980 -15.414   5.748  1.00  0.00    -0.292 N 
HETATM    4  O   UNL     1      40.106 -17.308   6.933  1.00  0.00    -0.247 OA
HETATM    5  H   UNL     1      42.185 -16.016   4.963  1.00  0.00     0.164 HD
HETATM    6  H   UNL     1      39.077 -15.302   6.182  1.00  0.00     0.172 HD
ENDROOT
BRANCH   1   7
HETATM    7  C   UNL     1      42.768 -17.856   5.895  1.00  0.00     0.086 C 
HETATM    8  C   UNL     1      43.151 -17.947   7.373  1.00  0.00     0.032 C 
BRANCH   7   9
HETATM    9  C   UNL     1      44.027 -17.902   5.003  1.00  0.00     0.063 C 
BRANCH   9  10
HETATM   10  C   UNL     1      44.049 -19.067   4.039  1.00  0.00    -0.056 A 
HETATM   11  C   UNL     1      44.685 -20.265   4.394  1.00  0.00     0.010 A 
HETATM   12  C   UNL     1      44.710 -21.347   3.512  1.00  0.00     0.037 A 
HETATM   13  C   UNL     1      44.094 -21.228   2.270  1.00  0.00     0.065 A 
HETATM   14  C   UNL     1      43.462 -20.048   1.898  1.00  0.00     0.037 A 
HETATM   15  C   UNL     1      43.439 -18.967   2.780  1.00  0.00     0.010 A 
BRANCH  13  16
HETATM   16  O   UNL     1      44.090 -22.261   1.379  1.00  0.00    -0.361 OA
HETATM   17  H   UNL     1      43.377 -22.871   1.624  1.00  0.00     0.217 HD
ENDBRANCH  13  16
ENDBRANCH   9  10
ENDBRANCH   7   9
ENDBRANCH   1   7
BRANCH   3  18
HETATM   18  C   UNL     1      40.358 -14.469   4.821  1.00  0.00     0.153 A 
HETATM   19  N   UNL     1      41.362 -14.616   3.948  1.00  0.00    -0.154 NA
HETATM   20  N   UNL     1      41.357 -13.469   3.237  1.00  0.00    -0.275 N 
HETATM   21  C   UNL     1      40.378 -12.600   3.624  1.00  0.00     0.116 A 
HETATM   22  C   UNL     1      39.714 -13.221   4.656  1.00  0.00     0.071 A 
BRANCH  20  23
HETATM   23  C   UNL     1      42.278 -13.298   2.120  1.00  0.00     0.189 C 
BRANCH  23  24
HETATM   24  C   UNL     1      41.828 -14.054   0.896  1.00  0.00    -0.038 A 
HETATM   25  C   UNL     1      41.359 -13.366  -0.233  1.00  0.00     0.009 A 
HETATM   26  C   UNL     1      40.956 -14.064  -1.372  1.00  0.00     0.001 A 
HETATM   27  C   UNL     1      41.017 -15.455  -1.395  1.00  0.00     0.000 A 
HETATM   28  C   UNL     1      41.479 -16.151  -0.281  1.00  0.00     0.001 A 
HETATM   29  C   UNL     1      41.883 -15.455   0.861  1.00  0.00     0.009 A 
ENDBRANCH  23  24
ENDBRANCH  20  23
ENDBRANCH   3  18
TORSDOF 7
ENDMDL
