MODEL 1
REMARK VINA RESULT:      -7.2      0.000      0.000
REMARK  5 active torsions:
REMARK  status: ('A' for Active; 'I' for Inactive)
REMARK    1  A    between atoms: C_4  and  C_5 
REMARK    2  A    between atoms: C_5  and  N_6 
REMARK    3  A    between atoms: N_6  and  C_9 
REMARK    4  A    between atoms: C_12  and  O_13 
REMARK    5  A    between atoms: O_13  and  C_14 
ROOT
HETATM    1  C   UNL     1      43.523 -17.413   3.608  1.00  0.00     0.164 A 
HETATM    2  N   UNL     1      44.036 -18.328   4.456  1.00  0.00    -0.236 NA
HETATM    3  C   UNL     1      44.255 -19.568   3.951  1.00  0.00     0.142 A 
HETATM    4  C   UNL     1      43.974 -19.933   2.642  1.00  0.00     0.062 A 
HETATM    5  C   UNL     1      44.236 -21.261   2.186  1.00  0.00     0.101 C 
HETATM    6  N   UNL     1      44.451 -22.341   1.823  1.00  0.00    -0.191 NA
HETATM    7  C   UNL     1      43.432 -18.966   1.796  1.00  0.00     0.028 A 
HETATM    8  C   UNL     1      43.196 -17.683   2.288  1.00  0.00     0.059 A 
ENDROOT
BRANCH   1   9
HETATM    9  O   UNL     1      43.262 -16.134   4.060  1.00  0.00    -0.329 OA
BRANCH   9  10
HETATM   10  C   UNL     1      42.695 -16.077   5.376  1.00  0.00     0.130 C 
HETATM   11  C   UNL     1      43.139 -14.741   5.990  1.00  0.00     0.034 C 
HETATM   12  C   UNL     1      42.543 -13.536   5.255  1.00  0.00     0.035 C 
HETATM   13  C   UNL     1      41.016 -13.596   5.139  1.00  0.00     0.186 C 
HETATM   14  C   UNL     1      40.564 -14.940   4.557  1.00  0.00     0.035 C 
HETATM   15  C   UNL     1      41.162 -16.144   5.294  1.00  0.00     0.034 C 
BRANCH  13  16
HETATM   16  N   UNL     1      40.370 -13.424   6.487  1.00  0.00    -0.067 N 
HETATM   17  H   UNL     1      41.061 -13.494   7.244  1.00  0.00     0.278 HD
HETATM   18  H   UNL     1      39.720 -14.206   6.651  1.00  0.00     0.278 HD
BRANCH  16  19
HETATM   19  C   UNL     1      39.587 -12.164   6.701  1.00  0.00     0.280 C 
BRANCH  19  20
HETATM   20  C   UNL     1      40.372 -11.179   7.487  1.00  0.00     0.027 A 
HETATM   21  S   UNL     1      39.876 -10.705   9.063  1.00  0.00    -0.077 SA
HETATM   22  C   UNL     1      41.231  -9.653   9.168  1.00  0.00     0.071 A 
HETATM   23  C   UNL     1      41.471  -8.833  10.389  1.00  0.00     0.078 C 
HETATM   24  N   UNL     1      42.008  -9.645   8.107  1.00  0.00    -0.258 NA
HETATM   25  C   UNL     1      41.539 -10.524   7.158  1.00  0.00     0.133 A 
ENDBRANCH  19  20
ENDBRANCH  16  19
ENDBRANCH  13  16
ENDBRANCH   9  10
ENDBRANCH   1   9
TORSDOF 5
ENDMDL
MODEL 2
REMARK VINA RESULT:      -7.0      1.376      1.610
REMARK  5 active torsions:
REMARK  status: ('A' for Active; 'I' for Inactive)
REMARK    1  A    between atoms: C_4  and  C_5 
REMARK    2  A    between atoms: C_5  and  N_6 
REMARK    3  A    between atoms: N_6  and  C_9 
REMARK    4  A    between atoms: C_12  and  O_13 
REMARK    5  A    between atoms: O_13  and  C_14 
ROOT
HETATM    1  C   UNL     1      43.622 -17.355   3.515  1.00  0.00     0.164 A 
HETATM    2  N   UNL     1      43.995 -18.277   4.427  1.00  0.00    -0.236 NA
HETATM    3  C   UNL     1      44.178 -19.542   3.974  1.00  0.00     0.142 A 
HETATM    4  C   UNL     1      43.994 -19.925   2.652  1.00  0.00     0.062 A 
HETATM    5  C   UNL     1      44.210 -21.279   2.252  1.00  0.00     0.101 C 
HETATM    6  N   UNL     1      44.387 -22.380   1.935  1.00  0.00    -0.191 NA
HETATM    7  C   UNL     1      43.595 -18.950   1.738  1.00  0.00     0.028 A 
HETATM    8  C   UNL     1      43.399 -17.642   2.178  1.00  0.00     0.059 A 
ENDROOT
BRANCH   1   9
HETATM    9  O   UNL     1      43.404 -16.051   3.913  1.00  0.00    -0.329 OA
BRANCH   9  10
HETATM   10  C   UNL     1      42.506 -15.913   5.023  1.00  0.00     0.130 C 
HETATM   11  C   UNL     1      43.313 -15.282   6.167  1.00  0.00     0.034 C 
HETATM   12  C   UNL     1      43.759 -13.853   5.847  1.00  0.00     0.035 C 
HETATM   13  C   UNL     1      42.600 -12.938   5.435  1.00  0.00     0.186 C 
HETATM   14  C   UNL     1      41.771 -13.575   4.315  1.00  0.00     0.035 C 
HETATM   15  C   UNL     1      41.326 -15.006   4.638  1.00  0.00     0.034 C 
BRANCH  13  16
HETATM   16  N   UNL     1      41.690 -12.670   6.602  1.00  0.00    -0.067 N 
HETATM   17  H   UNL     1      42.047 -13.105   7.462  1.00  0.00     0.278 HD
HETATM   18  H   UNL     1      40.782 -13.127   6.434  1.00  0.00     0.278 HD
BRANCH  16  19
HETATM   19  C   UNL     1      41.395 -11.233   6.909  1.00  0.00     0.280 C 
BRANCH  19  20
HETATM   20  C   UNL     1      41.815 -10.888   8.290  1.00  0.00     0.027 A 
HETATM   21  S   UNL     1      43.400 -11.248   8.851  1.00  0.00    -0.077 SA
HETATM   22  C   UNL     1      43.006 -10.574  10.382  1.00  0.00     0.071 A 
HETATM   23  C   UNL     1      44.010 -10.536  11.482  1.00  0.00     0.078 C 
HETATM   24  N   UNL     1      41.780 -10.109  10.482  1.00  0.00    -0.258 NA
HETATM   25  C   UNL     1      41.105 -10.265   9.294  1.00  0.00     0.133 A 
ENDBRANCH  19  20
ENDBRANCH  16  19
ENDBRANCH  13  16
ENDBRANCH   9  10
ENDBRANCH   1   9
TORSDOF 5
ENDMDL
MODEL 3
REMARK VINA RESULT:      -7.0      5.378      7.103
REMARK  5 active torsions:
REMARK  status: ('A' for Active; 'I' for Inactive)
REMARK    1  A    between atoms: C_4  and  C_5 
REMARK    2  A    between atoms: C_5  and  N_6 
REMARK    3  A    between atoms: N_6  and  C_9 
REMARK    4  A    between atoms: C_12  and  O_13 
REMARK    5  A    between atoms: O_13  and  C_14 
ROOT
HETATM    1  C   UNL     1      43.162 -18.112   3.023  1.00  0.00     0.164 A 
HETATM    2  N   UNL     1      43.401 -18.120   4.350  1.00  0.00    -0.236 NA
HETATM    3  C   UNL     1      43.981 -19.238   4.857  1.00  0.00     0.142 A 
HETATM    4  C   UNL     1      44.322 -20.346   4.095  1.00  0.00     0.062 A 
HETATM    5  C   UNL     1      44.934 -21.485   4.703  1.00  0.00     0.101 C 
HETATM    6  N   UNL     1      45.429 -22.405   5.204  1.00  0.00    -0.191 NA
HETATM    7  C   UNL     1      44.048 -20.310   2.728  1.00  0.00     0.028 A 
HETATM    8  C   UNL     1      43.452 -19.174   2.181  1.00  0.00     0.059 A 
ENDROOT
BRANCH   1   9
HETATM    9  O   UNL     1      42.559 -17.012   2.445  1.00  0.00    -0.329 OA
BRANCH   9  10
HETATM   10  C   UNL     1      41.548 -17.330   1.479  1.00  0.00     0.130 C 
HETATM   11  C   UNL     1      40.205 -16.903   2.090  1.00  0.00     0.034 C 
HETATM   12  C   UNL     1      40.105 -15.386   2.274  1.00  0.00     0.035 C 
HETATM   13  C   UNL     1      40.386 -14.604   0.986  1.00  0.00     0.186 C 
HETATM   14  C   UNL     1      41.709 -15.047   0.354  1.00  0.00     0.035 C 
HETATM   15  C   UNL     1      41.807 -16.566   0.172  1.00  0.00     0.034 C 
BRANCH  13  16
HETATM   16  N   UNL     1      39.288 -14.816  -0.019  1.00  0.00    -0.067 N 
HETATM   17  H   UNL     1      38.449 -15.212   0.422  1.00  0.00     0.278 HD
HETATM   18  H   UNL     1      39.587 -15.528  -0.700  1.00  0.00     0.278 HD
BRANCH  16  19
HETATM   19  C   UNL     1      38.861 -13.618  -0.812  1.00  0.00     0.280 C 
BRANCH  19  20
HETATM   20  C   UNL     1      39.791 -13.370  -1.942  1.00  0.00     0.027 A 
HETATM   21  S   UNL     1      40.582 -11.854  -2.123  1.00  0.00    -0.077 SA
HETATM   22  C   UNL     1      41.353 -12.432  -3.546  1.00  0.00     0.071 A 
HETATM   23  C   UNL     1      42.290 -11.565  -4.315  1.00  0.00     0.078 C 
HETATM   24  N   UNL     1      41.051 -13.669  -3.875  1.00  0.00    -0.258 NA
HETATM   25  C   UNL     1      40.181 -14.214  -2.959  1.00  0.00     0.133 A 
ENDBRANCH  19  20
ENDBRANCH  16  19
ENDBRANCH  13  16
ENDBRANCH   9  10
ENDBRANCH   1   9
TORSDOF 5
ENDMDL
MODEL 4
REMARK VINA RESULT:      -6.6      2.828      4.117
REMARK  5 active torsions:
REMARK  status: ('A' for Active; 'I' for Inactive)
REMARK    1  A    between atoms: C_4  and  C_5 
REMARK    2  A    between atoms: C_5  and  N_6 
REMARK    3  A    between atoms: N_6  and  C_9 
REMARK    4  A    between atoms: C_12  and  O_13 
REMARK    5  A    between atoms: O_13  and  C_14 
ROOT
HETATM    1  C   UNL     1      43.622 -17.867   3.954  1.00  0.00     0.164 A 
HETATM    2  N   UNL     1      44.266 -18.774   4.717  1.00  0.00    -0.236 NA
HETATM    3  C   UNL     1      44.523 -19.977   4.145  1.00  0.00     0.142 A 
HETATM    4  C   UNL     1      44.155 -20.313   2.850  1.00  0.00     0.062 A 
HETATM    5  C   UNL     1      44.465 -21.602   2.319  1.00  0.00     0.101 C 
HETATM    6  N   UNL     1      44.720 -22.651   1.895  1.00  0.00    -0.191 NA
HETATM    7  C   UNL     1      43.478 -19.357   2.093  1.00  0.00     0.028 A 
HETATM    8  C   UNL     1      43.200 -18.112   2.657  1.00  0.00     0.059 A 
ENDROOT
BRANCH   1   9
HETATM    9  O   UNL     1      43.315 -16.627   4.480  1.00  0.00    -0.329 OA
BRANCH   9  10
HETATM   10  C   UNL     1      42.606 -15.763   3.582  1.00  0.00     0.130 C 
HETATM   11  C   UNL     1      41.266 -15.431   4.258  1.00  0.00     0.034 C 
HETATM   12  C   UNL     1      41.447 -14.604   5.534  1.00  0.00     0.035 C 
HETATM   13  C   UNL     1      42.272 -13.331   5.315  1.00  0.00     0.186 C 
HETATM   14  C   UNL     1      43.596 -13.651   4.613  1.00  0.00     0.035 C 
HETATM   15  C   UNL     1      43.413 -14.479   3.336  1.00  0.00     0.034 C 
BRANCH  13  16
HETATM   16  N   UNL     1      41.517 -12.342   4.471  1.00  0.00    -0.067 N 
HETATM   17  H   UNL     1      41.437 -12.666   3.499  1.00  0.00     0.278 HD
HETATM   18  H   UNL     1      42.057 -11.467   4.412  1.00  0.00     0.278 HD
BRANCH  16  19
HETATM   19  C   UNL     1      40.144 -11.967   4.939  1.00  0.00     0.280 C 
BRANCH  19  20
HETATM   20  C   UNL     1      39.227 -11.768   3.789  1.00  0.00     0.027 A 
HETATM   21  S   UNL     1      39.136 -12.921   2.518  1.00  0.00    -0.077 SA
HETATM   22  C   UNL     1      37.959 -11.950   1.727  1.00  0.00     0.071 A 
HETATM   23  C   UNL     1      37.362 -12.375   0.430  1.00  0.00     0.078 C 
HETATM   24  N   UNL     1      37.646 -10.839   2.357  1.00  0.00    -0.258 NA
HETATM   25  C   UNL     1      38.346 -10.738   3.537  1.00  0.00     0.133 A 
ENDBRANCH  19  20
ENDBRANCH  16  19
ENDBRANCH  13  16
ENDBRANCH   9  10
ENDBRANCH   1   9
TORSDOF 5
ENDMDL
MODEL 5
REMARK VINA RESULT:      -6.5      1.779      2.241
REMARK  5 active torsions:
REMARK  status: ('A' for Active; 'I' for Inactive)
REMARK    1  A    between atoms: C_4  and  C_5 
REMARK    2  A    between atoms: C_5  and  N_6 
REMARK    3  A    between atoms: N_6  and  C_9 
REMARK    4  A    between atoms: C_12  and  O_13 
REMARK    5  A    between atoms: O_13  and  C_14 
ROOT
HETATM    1  C   UNL     1      43.152 -17.446   3.302  1.00  0.00     0.164 A 
HETATM    2  N   UNL     1      42.776 -17.961   2.113  1.00  0.00    -0.236 NA
HETATM    3  C   UNL     1      43.162 -19.235   1.854  1.00  0.00     0.142 A 
HETATM    4  C   UNL     1      43.913 -20.010   2.726  1.00  0.00     0.062 A 
HETATM    5  C   UNL     1      44.277 -21.348   2.380  1.00  0.00     0.101 C 
HETATM    6  N   UNL     1      44.569 -22.432   2.092  1.00  0.00    -0.191 NA
HETATM    7  C   UNL     1      44.296 -19.442   3.941  1.00  0.00     0.028 A 
HETATM    8  C   UNL     1      43.915 -18.134   4.233  1.00  0.00     0.059 A 
ENDROOT
BRANCH   1   9
HETATM    9  O   UNL     1      42.806 -16.148   3.624  1.00  0.00    -0.329 OA
BRANCH   9  10
HETATM   10  C   UNL     1      42.786 -15.872   5.031  1.00  0.00     0.130 C 
HETATM   11  C   UNL     1      43.497 -14.524   5.225  1.00  0.00     0.034 C 
HETATM   12  C   UNL     1      42.726 -13.363   4.589  1.00  0.00     0.035 C 
HETATM   13  C   UNL     1      41.269 -13.279   5.057  1.00  0.00     0.186 C 
HETATM   14  C   UNL     1      40.564 -14.629   4.896  1.00  0.00     0.035 C 
HETATM   15  C   UNL     1      41.337 -15.789   5.533  1.00  0.00     0.034 C 
BRANCH  13  16
HETATM   16  N   UNL     1      41.194 -12.877   6.505  1.00  0.00    -0.067 N 
HETATM   17  H   UNL     1      41.720 -13.529   7.101  1.00  0.00     0.278 HD
HETATM   18  H   UNL     1      40.219 -12.956   6.827  1.00  0.00     0.278 HD
BRANCH  16  19
HETATM   19  C   UNL     1      41.646 -11.488   6.842  1.00  0.00     0.280 C 
BRANCH  19  20
HETATM   20  C   UNL     1      40.509 -10.534   6.792  1.00  0.00     0.027 A 
HETATM   21  S   UNL     1      40.240  -9.549   5.410  1.00  0.00    -0.077 SA
HETATM   22  C   UNL     1      38.873  -8.848   6.181  1.00  0.00     0.071 A 
HETATM   23  C   UNL     1      38.059  -7.805   5.496  1.00  0.00     0.078 C 
HETATM   24  N   UNL     1      38.624  -9.308   7.388  1.00  0.00    -0.258 NA
HETATM   25  C   UNL     1      39.535 -10.280   7.733  1.00  0.00     0.133 A 
ENDBRANCH  19  20
ENDBRANCH  16  19
ENDBRANCH  13  16
ENDBRANCH   9  10
ENDBRANCH   1   9
TORSDOF 5
ENDMDL
MODEL 6
REMARK VINA RESULT:      -6.5      3.402      3.957
REMARK  5 active torsions:
REMARK  status: ('A' for Active; 'I' for Inactive)
REMARK    1  A    between atoms: C_4  and  C_5 
REMARK    2  A    between atoms: C_5  and  N_6 
REMARK    3  A    between atoms: N_6  and  C_9 
REMARK    4  A    between atoms: C_12  and  O_13 
REMARK    5  A    between atoms: O_13  and  C_14 
ROOT
HETATM    1  C   UNL     1      43.803 -17.764   3.124  1.00  0.00     0.164 A 
HETATM    2  N   UNL     1      44.033 -17.846   4.451  1.00  0.00    -0.236 NA
HETATM    3  C   UNL     1      44.422 -19.055   4.927  1.00  0.00     0.142 A 
HETATM    4  C   UNL     1      44.581 -20.184   4.137  1.00  0.00     0.062 A 
HETATM    5  C   UNL     1      44.997 -21.422   4.715  1.00  0.00     0.101 C 
HETATM    6  N   UNL     1      45.334 -22.424   5.191  1.00  0.00    -0.191 NA
HETATM    7  C   UNL     1      44.321 -20.069   2.772  1.00  0.00     0.028 A 
HETATM    8  C   UNL     1      43.918 -18.838   2.255  1.00  0.00     0.059 A 
ENDROOT
BRANCH   1   9
HETATM    9  O   UNL     1      43.389 -16.566   2.576  1.00  0.00    -0.329 OA
BRANCH   9  10
HETATM   10  C   UNL     1      42.391 -15.878   3.342  1.00  0.00     0.130 C 
HETATM   11  C   UNL     1      42.197 -14.505   2.681  1.00  0.00     0.034 C 
HETATM   12  C   UNL     1      41.601 -14.615   1.275  1.00  0.00     0.035 C 
HETATM   13  C   UNL     1      40.300 -15.423   1.233  1.00  0.00     0.186 C 
HETATM   14  C   UNL     1      40.477 -16.782   1.920  1.00  0.00     0.035 C 
HETATM   15  C   UNL     1      41.074 -16.669   3.327  1.00  0.00     0.034 C 
BRANCH  13  16
HETATM   16  N   UNL     1      39.189 -14.685   1.928  1.00  0.00    -0.067 N 
HETATM   17  H   UNL     1      39.380 -14.583   2.933  1.00  0.00     0.278 HD
HETATM   18  H   UNL     1      38.328 -15.249   1.881  1.00  0.00     0.278 HD
BRANCH  16  19
HETATM   19  C   UNL     1      38.843 -13.329   1.392  1.00  0.00     0.280 C 
BRANCH  19  20
HETATM   20  C   UNL     1      38.778 -12.327   2.485  1.00  0.00     0.027 A 
HETATM   21  S   UNL     1      38.027 -10.800   2.243  1.00  0.00    -0.077 SA
HETATM   22  C   UNL     1      38.402 -10.364   3.863  1.00  0.00     0.071 A 
HETATM   23  C   UNL     1      38.007  -9.035   4.409  1.00  0.00     0.078 C 
HETATM   24  N   UNL     1      39.043 -11.285   4.548  1.00  0.00    -0.258 NA
HETATM   25  C   UNL     1      39.242 -12.409   3.780  1.00  0.00     0.133 A 
ENDBRANCH  19  20
ENDBRANCH  16  19
ENDBRANCH  13  16
ENDBRANCH   9  10
ENDBRANCH   1   9
TORSDOF 5
ENDMDL
MODEL 7
REMARK VINA RESULT:      -6.4      6.212      8.166
REMARK  5 active torsions:
REMARK  status: ('A' for Active; 'I' for Inactive)
REMARK    1  A    between atoms: C_4  and  C_5 
REMARK    2  A    between atoms: C_5  and  N_6 
REMARK    3  A    between atoms: N_6  and  C_9 
REMARK    4  A    between atoms: C_12  and  O_13 
REMARK    5  A    between atoms: O_13  and  C_14 
ROOT
HETATM    1  C   UNL     1      42.160 -17.172   3.316  1.00  0.00     0.164 A 
HETATM    2  N   UNL     1      43.124 -17.648   2.501  1.00  0.00    -0.236 NA
HETATM    3  C   UNL     1      43.883 -18.663   2.985  1.00  0.00     0.142 A 
HETATM    4  C   UNL     1      43.725 -19.213   4.249  1.00  0.00     0.062 A 
HETATM    5  C   UNL     1      44.564 -20.284   4.685  1.00  0.00     0.101 C 
HETATM    6  N   UNL     1      45.250 -21.152   5.032  1.00  0.00    -0.191 NA
HETATM    7  C   UNL     1      42.729 -18.688   5.072  1.00  0.00     0.028 A 
HETATM    8  C   UNL     1      41.935 -17.644   4.600  1.00  0.00     0.059 A 
ENDROOT
BRANCH   1   9
HETATM    9  O   UNL     1      41.362 -16.128   2.891  1.00  0.00    -0.329 OA
BRANCH   9  10
HETATM   10  C   UNL     1      40.329 -16.509   1.972  1.00  0.00     0.130 C 
HETATM   11  C   UNL     1      39.298 -15.370   1.970  1.00  0.00     0.034 C 
HETATM   12  C   UNL     1      39.869 -14.070   1.397  1.00  0.00     0.035 C 
HETATM   13  C   UNL     1      40.485 -14.244   0.005  1.00  0.00     0.186 C 
HETATM   14  C   UNL     1      41.491 -15.400  -0.008  1.00  0.00     0.035 C 
HETATM   15  C   UNL     1      40.917 -16.701   0.566  1.00  0.00     0.034 C 
BRANCH  13  16
HETATM   16  N   UNL     1      39.422 -14.533  -1.019  1.00  0.00    -0.067 N 
HETATM   17  H   UNL     1      38.685 -15.136  -0.631  1.00  0.00     0.278 HD
HETATM   18  H   UNL     1      39.833 -15.082  -1.787  1.00  0.00     0.278 HD
BRANCH  16  19
HETATM   19  C   UNL     1      38.755 -13.348  -1.649  1.00  0.00     0.280 C 
BRANCH  19  20
HETATM   20  C   UNL     1      37.928 -13.761  -2.811  1.00  0.00     0.027 A 
HETATM   21  S   UNL     1      36.948 -12.624  -3.649  1.00  0.00    -0.077 SA
HETATM   22  C   UNL     1      36.415 -13.870  -4.706  1.00  0.00     0.071 A 
HETATM   23  C   UNL     1      35.451 -13.581  -5.805  1.00  0.00     0.078 C 
HETATM   24  N   UNL     1      36.925 -15.057  -4.462  1.00  0.00    -0.258 NA
HETATM   25  C   UNL     1      37.799 -14.999  -3.401  1.00  0.00     0.133 A 
ENDBRANCH  19  20
ENDBRANCH  16  19
ENDBRANCH  13  16
ENDBRANCH   9  10
ENDBRANCH   1   9
TORSDOF 5
ENDMDL
MODEL 8
REMARK VINA RESULT:      -6.3      2.285      2.835
REMARK  5 active torsions:
REMARK  status: ('A' for Active; 'I' for Inactive)
REMARK    1  A    between atoms: C_4  and  C_5 
REMARK    2  A    between atoms: C_5  and  N_6 
REMARK    3  A    between atoms: N_6  and  C_9 
REMARK    4  A    between atoms: C_12  and  O_13 
REMARK    5  A    between atoms: O_13  and  C_14 
ROOT
HETATM    1  C   UNL     1      42.919 -17.765   3.464  1.00  0.00     0.164 A 
HETATM    2  N   UNL     1      42.531 -18.262   2.272  1.00  0.00    -0.236 NA
HETATM    3  C   UNL     1      43.029 -19.476   1.928  1.00  0.00     0.142 A 
HETATM    4  C   UNL     1      43.902 -20.207   2.721  1.00  0.00     0.062 A 
HETATM    5  C   UNL     1      44.380 -21.482   2.289  1.00  0.00     0.101 C 
HETATM    6  N   UNL     1      44.765 -22.516   1.932  1.00  0.00    -0.191 NA
HETATM    7  C   UNL     1      44.294 -19.658   3.942  1.00  0.00     0.028 A 
HETATM    8  C   UNL     1      43.798 -18.411   4.319  1.00  0.00     0.059 A 
ENDROOT
BRANCH   1   9
HETATM    9  O   UNL     1      42.461 -16.526   3.869  1.00  0.00    -0.329 OA
BRANCH   9  10
HETATM   10  C   UNL     1      42.522 -15.513   2.855  1.00  0.00     0.130 C 
HETATM   11  C   UNL     1      41.155 -14.812   2.850  1.00  0.00     0.034 C 
HETATM   12  C   UNL     1      40.887 -14.048   4.149  1.00  0.00     0.035 C 
HETATM   13  C   UNL     1      42.001 -13.057   4.506  1.00  0.00     0.186 C 
HETATM   14  C   UNL     1      43.371 -13.742   4.482  1.00  0.00     0.035 C 
HETATM   15  C   UNL     1      43.637 -14.507   3.180  1.00  0.00     0.034 C 
BRANCH  13  16
HETATM   16  N   UNL     1      42.029 -11.911   3.532  1.00  0.00    -0.067 N 
HETATM   17  H   UNL     1      42.500 -12.176   2.658  1.00  0.00     0.278 HD
HETATM   18  H   UNL     1      42.607 -11.152   3.921  1.00  0.00     0.278 HD
BRANCH  16  19
HETATM   19  C   UNL     1      40.708 -11.302   3.171  1.00  0.00     0.280 C 
BRANCH  19  20
HETATM   20  C   UNL     1      40.190 -10.462   4.280  1.00  0.00     0.027 A 
HETATM   21  S   UNL     1      41.225  -9.395   5.142  1.00  0.00    -0.077 SA
HETATM   22  C   UNL     1      39.901  -8.913   6.127  1.00  0.00     0.071 A 
HETATM   23  C   UNL     1      40.078  -7.900   7.205  1.00  0.00     0.078 C 
HETATM   24  N   UNL     1      38.759  -9.500   5.842  1.00  0.00    -0.258 NA
HETATM   25  C   UNL     1      38.911 -10.365   4.783  1.00  0.00     0.133 A 
ENDBRANCH  19  20
ENDBRANCH  16  19
ENDBRANCH  13  16
ENDBRANCH   9  10
ENDBRANCH   1   9
TORSDOF 5
ENDMDL
MODEL 9
REMARK VINA RESULT:      -6.3      3.860      5.057
REMARK  5 active torsions:
REMARK  status: ('A' for Active; 'I' for Inactive)
REMARK    1  A    between atoms: C_4  and  C_5 
REMARK    2  A    between atoms: C_5  and  N_6 
REMARK    3  A    between atoms: N_6  and  C_9 
REMARK    4  A    between atoms: C_12  and  O_13 
REMARK    5  A    between atoms: O_13  and  C_14 
ROOT
HETATM    1  C   UNL     1      42.924 -17.722   3.469  1.00  0.00     0.164 A 
HETATM    2  N   UNL     1      42.512 -18.196   2.275  1.00  0.00    -0.236 NA
HETATM    3  C   UNL     1      42.983 -19.414   1.909  1.00  0.00     0.142 A 
HETATM    4  C   UNL     1      43.853 -20.172   2.679  1.00  0.00     0.062 A 
HETATM    5  C   UNL     1      44.303 -21.449   2.224  1.00  0.00     0.101 C 
HETATM    6  N   UNL     1      44.663 -22.485   1.848  1.00  0.00    -0.191 NA
HETATM    7  C   UNL     1      44.271 -19.646   3.902  1.00  0.00     0.028 A 
HETATM    8  C   UNL     1      43.803 -18.395   4.303  1.00  0.00     0.059 A 
ENDROOT
BRANCH   1   9
HETATM    9  O   UNL     1      42.494 -16.481   3.895  1.00  0.00    -0.329 OA
BRANCH   9  10
HETATM   10  C   UNL     1      42.561 -15.456   2.895  1.00  0.00     0.130 C 
HETATM   11  C   UNL     1      41.184 -14.774   2.871  1.00  0.00     0.034 C 
HETATM   12  C   UNL     1      40.881 -14.028   4.174  1.00  0.00     0.035 C 
HETATM   13  C   UNL     1      41.974 -13.027   4.563  1.00  0.00     0.186 C 
HETATM   14  C   UNL     1      43.354 -13.693   4.558  1.00  0.00     0.035 C 
HETATM   15  C   UNL     1      43.655 -14.438   3.253  1.00  0.00     0.034 C 
BRANCH  13  16
HETATM   16  N   UNL     1      42.005 -11.869   3.603  1.00  0.00    -0.067 N 
HETATM   17  H   UNL     1      42.643 -12.052   2.819  1.00  0.00     0.278 HD
HETATM   18  H   UNL     1      42.403 -11.047   4.079  1.00  0.00     0.278 HD
BRANCH  16  19
HETATM   19  C   UNL     1      40.691 -11.436   3.028  1.00  0.00     0.280 C 
BRANCH  19  20
HETATM   20  C   UNL     1      40.845 -11.007   1.615  1.00  0.00     0.027 A 
HETATM   21  S   UNL     1      41.892 -11.848   0.543  1.00  0.00    -0.077 SA
HETATM   22  C   UNL     1      41.476 -10.753  -0.715  1.00  0.00     0.071 A 
HETATM   23  C   UNL     1      42.066 -10.892  -2.077  1.00  0.00     0.078 C 
HETATM   24  N   UNL     1      40.616  -9.820  -0.372  1.00  0.00    -0.258 NA
HETATM   25  C   UNL     1      40.238  -9.969   0.942  1.00  0.00     0.133 A 
ENDBRANCH  19  20
ENDBRANCH  16  19
ENDBRANCH  13  16
ENDBRANCH   9  10
ENDBRANCH   1   9
TORSDOF 5
ENDMDL
MODEL 10
REMARK VINA RESULT:      -6.3      5.431      7.505
REMARK  5 active torsions:
REMARK  status: ('A' for Active; 'I' for Inactive)
REMARK    1  A    between atoms: C_4  and  C_5 
REMARK    2  A    between atoms: C_5  and  N_6 
REMARK    3  A    between atoms: N_6  and  C_9 
REMARK    4  A    between atoms: C_12  and  O_13 
REMARK    5  A    between atoms: O_13  and  C_14 
ROOT
HETATM    1  C   UNL     1      42.615 -17.880   4.966  1.00  0.00     0.164 A 
HETATM    2  N   UNL     1      42.346 -17.114   6.044  1.00  0.00    -0.236 NA
HETATM    3  C   UNL     1      42.933 -17.481   7.211  1.00  0.00     0.142 A 
HETATM    4  C   UNL     1      43.767 -18.582   7.347  1.00  0.00     0.062 A 
HETATM    5  C   UNL     1      44.350 -18.899   8.611  1.00  0.00     0.101 C 
HETATM    6  N   UNL     1      44.819 -19.151   9.641  1.00  0.00    -0.191 NA
HETATM    7  C   UNL     1      44.012 -19.360   6.215  1.00  0.00     0.028 A 
HETATM    8  C   UNL     1      43.421 -19.007   5.003  1.00  0.00     0.059 A 
ENDROOT
BRANCH   1   9
HETATM    9  O   UNL     1      42.037 -17.573   3.750  1.00  0.00    -0.329 OA
BRANCH   9  10
HETATM   10  C   UNL     1      42.355 -16.264   3.258  1.00  0.00     0.130 C 
HETATM   11  C   UNL     1      43.463 -16.445   2.209  1.00  0.00     0.034 C 
HETATM   12  C   UNL     1      42.980 -17.217   0.978  1.00  0.00     0.035 C 
HETATM   13  C   UNL     1      41.726 -16.609   0.340  1.00  0.00     0.186 C 
HETATM   14  C   UNL     1      40.627 -16.397   1.387  1.00  0.00     0.035 C 
HETATM   15  C   UNL     1      41.114 -15.623   2.618  1.00  0.00     0.034 C 
BRANCH  13  16
HETATM   16  N   UNL     1      42.038 -15.281  -0.293  1.00  0.00    -0.067 N 
HETATM   17  H   UNL     1      42.956 -15.294  -0.754  1.00  0.00     0.278 HD
HETATM   18  H   UNL     1      42.125 -14.568   0.444  1.00  0.00     0.278 HD
BRANCH  16  19
HETATM   19  C   UNL     1      41.041 -14.756  -1.282  1.00  0.00     0.280 C 
BRANCH  19  20
HETATM   20  C   UNL     1      41.565 -13.553  -1.976  1.00  0.00     0.027 A 
HETATM   21  S   UNL     1      41.205 -13.257  -3.630  1.00  0.00    -0.077 SA
HETATM   22  C   UNL     1      42.139 -11.815  -3.571  1.00  0.00     0.071 A 
HETATM   23  C   UNL     1      42.285 -10.948  -4.774  1.00  0.00     0.078 C 
HETATM   24  N   UNL     1      42.687 -11.561  -2.403  1.00  0.00    -0.258 NA
HETATM   25  C   UNL     1      42.350 -12.531  -1.488  1.00  0.00     0.133 A 
ENDBRANCH  19  20
ENDBRANCH  16  19
ENDBRANCH  13  16
ENDBRANCH   9  10
ENDBRANCH   1   9
TORSDOF 5
ENDMDL
