MODEL 1
REMARK VINA RESULT:      -9.4      0.000      0.000
REMARK  6 active torsions:
REMARK  status: ('A' for Active; 'I' for Inactive)
REMARK    1  A    between atoms: C_2  and  O_3 
REMARK    2  A    between atoms: C_2  and  C_4 
REMARK    3  A    between atoms: C_7  and  N_8 
REMARK       I    between atoms: N_8  and  C_9 
REMARK    4  A    between atoms: C_9  and  C_10 
REMARK    5  A    between atoms: C_13  and  C_14 
REMARK    6  A    between atoms: C_19  and  C_20 
ROOT
HETATM    1  C   UNL     1      42.849 -14.997   3.645  1.00  0.00     0.096 C 
HETATM    2  C   UNL     1      43.195 -16.290   3.993  1.00  0.00     0.138 C 
HETATM    3  N   UNL     1      43.411 -16.268   5.353  1.00  0.00    -0.240 N 
HETATM    4  C   UNL     1      43.839 -17.410   6.139  1.00  0.00     0.221 C 
HETATM    5  C   UNL     1      43.687 -18.714   5.337  1.00  0.00     0.068 C 
HETATM    6  C   UNL     1      44.161 -18.515   3.892  1.00  0.00     0.143 C 
HETATM    7  N   UNL     1      43.359 -17.440   3.277  1.00  0.00    -0.363 N 
HETATM    8  N   UNL     1      43.410 -15.031   5.871  1.00  0.00    -0.181 NA
HETATM    9  C   UNL     1      43.034 -14.265   4.843  1.00  0.00     0.160 C 
HETATM   10  H   UNL     1      43.588 -17.345   2.285  1.00  0.00     0.162 HD
ENDROOT
BRANCH   1  11
HETATM   11  C   UNL     1      42.433 -14.447   2.365  1.00  0.00     0.261 C 
HETATM   12  N   UNL     1      41.556 -15.260   1.672  1.00  0.00    -0.323 N 
HETATM   13  H   UNL     1      41.245 -16.088   2.168  1.00  0.00     0.169 HD
HETATM   14  O   UNL     1      42.825 -13.341   2.015  1.00  0.00    -0.267 OA
BRANCH  12  15
HETATM   15  C   UNL     1      40.948 -15.002   0.427  1.00  0.00     0.035 A 
HETATM   16  C   UNL     1      39.885 -14.115   0.247  1.00  0.00     0.030 A 
HETATM   17  C   UNL     1      39.317 -13.931  -1.020  1.00  0.00     0.012 A 
HETATM   18  C   UNL     1      39.797 -14.630  -2.134  1.00  0.00    -0.030 A 
HETATM   19  C   UNL     1      40.880 -15.502  -1.954  1.00  0.00     0.012 A 
HETATM   20  C   UNL     1      41.447 -15.685  -0.687  1.00  0.00     0.030 A 
BRANCH  18  21
HETATM   21  C   UNL     1      39.164 -14.411  -3.490  1.00  0.00     0.147 C 
HETATM   22  C   UNL     1      37.683 -14.771  -3.483  1.00  0.00     0.044 C 
BRANCH  21  23
HETATM   23  O   UNL     1      39.310 -13.050  -3.890  1.00  0.00    -0.391 OA
HETATM   24  H   UNL     1      40.169 -12.746  -3.554  1.00  0.00     0.210 HD
ENDBRANCH  21  23
ENDBRANCH  18  21
ENDBRANCH  12  15
ENDBRANCH   1  11
BRANCH   4  25
HETATM   25  C   UNL     1      43.060 -17.520   7.433  1.00  0.00     0.409 C 
HETATM   26  F   UNL     1      41.739 -17.288   7.257  1.00  0.00    -0.169 F 
HETATM   27  F   UNL     1      43.167 -18.786   7.922  1.00  0.00    -0.169 F 
HETATM   28  F   UNL     1      43.509 -16.704   8.407  1.00  0.00    -0.169 F 
ENDBRANCH   4  25
BRANCH   6  29
HETATM   29  C   UNL     1      44.091 -19.811   3.150  1.00  0.00     0.075 A 
HETATM   30  O   UNL     1      44.678 -20.885   3.753  1.00  0.00    -0.325 OA
HETATM   31  C   UNL     1      44.489 -21.953   2.936  1.00  0.00     0.142 A 
HETATM   32  C   UNL     1      43.786 -21.581   1.814  1.00  0.00     0.027 A 
HETATM   33  C   UNL     1      43.528 -20.195   1.950  1.00  0.00     0.037 A 
ENDBRANCH   6  29
TORSDOF 6
ENDMDL
MODEL 2
REMARK VINA RESULT:      -9.0      3.937      8.636
REMARK  6 active torsions:
REMARK  status: ('A' for Active; 'I' for Inactive)
REMARK    1  A    between atoms: C_2  and  O_3 
REMARK    2  A    between atoms: C_2  and  C_4 
REMARK    3  A    between atoms: C_7  and  N_8 
REMARK       I    between atoms: N_8  and  C_9 
REMARK    4  A    between atoms: C_9  and  C_10 
REMARK    5  A    between atoms: C_13  and  C_14 
REMARK    6  A    between atoms: C_19  and  C_20 
ROOT
HETATM    1  C   UNL     1      41.990 -14.821   1.656  1.00  0.00     0.096 C 
HETATM    2  C   UNL     1      41.427 -14.363   0.478  1.00  0.00     0.138 C 
HETATM    3  N   UNL     1      41.744 -13.025   0.407  1.00  0.00    -0.240 N 
HETATM    4  C   UNL     1      41.316 -12.131  -0.653  1.00  0.00     0.221 C 
HETATM    5  C   UNL     1      40.766 -12.926  -1.850  1.00  0.00     0.068 C 
HETATM    6  C   UNL     1      39.876 -14.078  -1.368  1.00  0.00     0.143 C 
HETATM    7  N   UNL     1      40.676 -14.957  -0.494  1.00  0.00    -0.363 N 
HETATM    8  N   UNL     1      42.305 -12.551   1.529  1.00  0.00    -0.181 NA
HETATM    9  C   UNL     1      42.486 -13.646   2.272  1.00  0.00     0.160 C 
HETATM   10  H   UNL     1      40.138 -15.785  -0.229  1.00  0.00     0.162 HD
ENDROOT
BRANCH   1  11
HETATM   11  C   UNL     1      42.049 -16.164   2.209  1.00  0.00     0.261 C 
HETATM   12  N   UNL     1      43.334 -16.661   2.320  1.00  0.00    -0.323 N 
HETATM   13  H   UNL     1      44.075 -16.010   2.087  1.00  0.00     0.169 HD
HETATM   14  O   UNL     1      41.022 -16.728   2.566  1.00  0.00    -0.267 OA
BRANCH  12  15
HETATM   15  C   UNL     1      43.730 -17.909   2.843  1.00  0.00     0.035 A 
HETATM   16  C   UNL     1      44.047 -18.127   4.184  1.00  0.00     0.030 A 
HETATM   17  C   UNL     1      44.457 -19.392   4.624  1.00  0.00     0.012 A 
HETATM   18  C   UNL     1      44.560 -20.467   3.732  1.00  0.00    -0.030 A 
HETATM   19  C   UNL     1      44.217 -20.250   2.391  1.00  0.00     0.012 A 
HETATM   20  C   UNL     1      43.808 -18.985   1.952  1.00  0.00     0.030 A 
BRANCH  18  21
HETATM   21  C   UNL     1      45.006 -21.822   4.235  1.00  0.00     0.147 C 
HETATM   22  C   UNL     1      44.523 -22.080   5.657  1.00  0.00     0.044 C 
BRANCH  21  23
HETATM   23  O   UNL     1      44.511 -22.853   3.382  1.00  0.00    -0.391 OA
HETATM   24  H   UNL     1      45.196 -23.020   2.713  1.00  0.00     0.210 HD
ENDBRANCH  21  23
ENDBRANCH  18  21
ENDBRANCH  12  15
ENDBRANCH   1  11
BRANCH   4  25
HETATM   25  C   UNL     1      42.446 -11.236  -1.118  1.00  0.00     0.409 C 
HETATM   26  F   UNL     1      43.582 -11.928  -1.361  1.00  0.00    -0.169 F 
HETATM   27  F   UNL     1      42.100 -10.640  -2.292  1.00  0.00    -0.169 F 
HETATM   28  F   UNL     1      42.733 -10.236  -0.262  1.00  0.00    -0.169 F 
ENDBRANCH   4  25
BRANCH   6  29
HETATM   29  C   UNL     1      39.279 -14.785  -2.541  1.00  0.00     0.075 A 
HETATM   30  O   UNL     1      37.963 -14.530  -2.796  1.00  0.00    -0.325 OA
HETATM   31  C   UNL     1      37.624 -15.247  -3.897  1.00  0.00     0.142 A 
HETATM   32  C   UNL     1      38.706 -15.960  -4.358  1.00  0.00     0.027 A 
HETATM   33  C   UNL     1      39.778 -15.664  -3.481  1.00  0.00     0.037 A 
ENDBRANCH   6  29
TORSDOF 6
ENDMDL
MODEL 3
REMARK VINA RESULT:      -8.4      1.371      1.776
REMARK  6 active torsions:
REMARK  status: ('A' for Active; 'I' for Inactive)
REMARK    1  A    between atoms: C_2  and  O_3 
REMARK    2  A    between atoms: C_2  and  C_4 
REMARK    3  A    between atoms: C_7  and  N_8 
REMARK       I    between atoms: N_8  and  C_9 
REMARK    4  A    between atoms: C_9  and  C_10 
REMARK    5  A    between atoms: C_13  and  C_14 
REMARK    6  A    between atoms: C_19  and  C_20 
ROOT
HETATM    1  C   UNL     1      42.744 -15.568   3.082  1.00  0.00     0.096 C 
HETATM    2  C   UNL     1      43.196 -16.720   3.699  1.00  0.00     0.138 C 
HETATM    3  N   UNL     1      43.379 -16.388   5.024  1.00  0.00    -0.240 N 
HETATM    4  C   UNL     1      43.890 -17.293   6.038  1.00  0.00     0.221 C 
HETATM    5  C   UNL     1      43.873 -18.746   5.533  1.00  0.00     0.068 C 
HETATM    6  C   UNL     1      44.359 -18.817   4.081  1.00  0.00     0.143 C 
HETATM    7  N   UNL     1      43.479 -17.976   3.248  1.00  0.00    -0.363 N 
HETATM    8  N   UNL     1      43.256 -15.076   5.265  1.00  0.00    -0.181 NA
HETATM    9  C   UNL     1      42.836 -14.584   4.096  1.00  0.00     0.160 C 
HETATM   10  H   UNL     1      43.720 -18.074   2.258  1.00  0.00     0.162 HD
ENDROOT
BRANCH   1  11
HETATM   11  C   UNL     1      42.310 -15.344   1.713  1.00  0.00     0.261 C 
HETATM   12  N   UNL     1      41.690 -14.123   1.521  1.00  0.00    -0.323 N 
HETATM   13  H   UNL     1      41.689 -13.504   2.324  1.00  0.00     0.169 HD
HETATM   14  O   UNL     1      42.542 -16.181   0.849  1.00  0.00    -0.267 OA
BRANCH  12  15
HETATM   15  C   UNL     1      41.189 -13.595   0.314  1.00  0.00     0.035 A 
HETATM   16  C   UNL     1      41.901 -12.726  -0.513  1.00  0.00     0.030 A 
HETATM   17  C   UNL     1      41.323 -12.223  -1.685  1.00  0.00     0.012 A 
HETATM   18  C   UNL     1      40.020 -12.577  -2.056  1.00  0.00    -0.030 A 
HETATM   19  C   UNL     1      39.317 -13.468  -1.236  1.00  0.00     0.012 A 
HETATM   20  C   UNL     1      39.894 -13.970  -0.063  1.00  0.00     0.030 A 
BRANCH  18  21
HETATM   21  C   UNL     1      39.422 -12.018  -3.328  1.00  0.00     0.147 C 
HETATM   22  C   UNL     1      40.491 -11.429  -4.240  1.00  0.00     0.044 C 
BRANCH  21  23
HETATM   23  O   UNL     1      38.720 -13.039  -4.035  1.00  0.00    -0.391 OA
HETATM   24  H   UNL     1      37.836 -12.689  -4.235  1.00  0.00     0.210 HD
ENDBRANCH  21  23
ENDBRANCH  18  21
ENDBRANCH  12  15
ENDBRANCH   1  11
BRANCH   4  25
HETATM   25  C   UNL     1      43.094 -17.195   7.323  1.00  0.00     0.409 C 
HETATM   26  F   UNL     1      43.182 -18.321   8.067  1.00  0.00    -0.169 F 
HETATM   27  F   UNL     1      43.592 -16.186   8.089  1.00  0.00    -0.169 F 
HETATM   28  F   UNL     1      41.790 -16.911   7.133  1.00  0.00    -0.169 F 
ENDBRANCH   4  25
BRANCH   6  29
HETATM   29  C   UNL     1      44.421 -20.242   3.634  1.00  0.00     0.075 A 
HETATM   30  O   UNL     1      44.694 -21.167   4.600  1.00  0.00    -0.325 OA
HETATM   31  C   UNL     1      44.687 -22.384   3.998  1.00  0.00     0.142 A 
HETATM   32  C   UNL     1      44.412 -22.256   2.657  1.00  0.00     0.027 A 
HETATM   33  C   UNL     1      44.241 -20.871   2.419  1.00  0.00     0.037 A 
ENDBRANCH   6  29
TORSDOF 6
ENDMDL
MODEL 4
REMARK VINA RESULT:      -8.2      3.488      7.676
REMARK  6 active torsions:
REMARK  status: ('A' for Active; 'I' for Inactive)
REMARK    1  A    between atoms: C_2  and  O_3 
REMARK    2  A    between atoms: C_2  and  C_4 
REMARK    3  A    between atoms: C_7  and  N_8 
REMARK       I    between atoms: N_8  and  C_9 
REMARK    4  A    between atoms: C_9  and  C_10 
REMARK    5  A    between atoms: C_13  and  C_14 
REMARK    6  A    between atoms: C_19  and  C_20 
ROOT
HETATM    1  C   UNL     1      40.630 -15.219   4.717  1.00  0.00     0.096 C 
HETATM    2  C   UNL     1      40.122 -14.395   3.728  1.00  0.00     0.138 C 
HETATM    3  N   UNL     1      39.898 -13.178   4.333  1.00  0.00    -0.240 N 
HETATM    4  C   UNL     1      39.325 -12.021   3.671  1.00  0.00     0.221 C 
HETATM    5  C   UNL     1      39.321 -12.210   2.144  1.00  0.00     0.068 C 
HETATM    6  C   UNL     1      38.889 -13.636   1.780  1.00  0.00     0.143 C 
HETATM    7  N   UNL     1      39.823 -14.587   2.411  1.00  0.00    -0.363 N 
HETATM    8  N   UNL     1      40.049 -13.210   5.665  1.00  0.00    -0.181 NA
HETATM    9  C   UNL     1      40.526 -14.437   5.893  1.00  0.00     0.160 C 
HETATM   10  H   UNL     1      39.617 -15.544   2.113  1.00  0.00     0.162 HD
ENDROOT
BRANCH   1  11
HETATM   11  C   UNL     1      41.122 -16.584   4.641  1.00  0.00     0.261 C 
HETATM   12  N   UNL     1      41.979 -16.806   3.579  1.00  0.00    -0.323 N 
HETATM   13  H   UNL     1      42.225 -15.984   3.040  1.00  0.00     0.169 HD
HETATM   14  O   UNL     1      40.804 -17.401   5.496  1.00  0.00    -0.267 OA
BRANCH  12  15
HETATM   15  C   UNL     1      42.646 -18.003   3.250  1.00  0.00     0.035 A 
HETATM   16  C   UNL     1      42.421 -18.724   2.076  1.00  0.00     0.030 A 
HETATM   17  C   UNL     1      43.106 -19.921   1.832  1.00  0.00     0.012 A 
HETATM   18  C   UNL     1      44.030 -20.424   2.757  1.00  0.00    -0.030 A 
HETATM   19  C   UNL     1      44.270 -19.685   3.923  1.00  0.00     0.012 A 
HETATM   20  C   UNL     1      43.585 -18.489   4.166  1.00  0.00     0.030 A 
BRANCH  18  21
HETATM   21  C   UNL     1      44.755 -21.720   2.466  1.00  0.00     0.147 C 
HETATM   22  C   UNL     1      44.655 -22.693   3.634  1.00  0.00     0.044 C 
BRANCH  21  23
HETATM   23  O   UNL     1      44.217 -22.337   1.298  1.00  0.00    -0.391 OA
HETATM   24  H   UNL     1      43.313 -21.997   1.190  1.00  0.00     0.210 HD
ENDBRANCH  21  23
ENDBRANCH  18  21
ENDBRANCH  12  15
ENDBRANCH   1  11
BRANCH   4  25
HETATM   25  C   UNL     1      40.073 -10.751   4.020  1.00  0.00     0.409 C 
HETATM   26  F   UNL     1      41.405 -10.955   4.131  1.00  0.00    -0.169 F 
HETATM   27  F   UNL     1      39.904  -9.837   3.025  1.00  0.00    -0.169 F 
HETATM   28  F   UNL     1      39.637 -10.158   5.150  1.00  0.00    -0.169 F 
ENDBRANCH   4  25
BRANCH   6  29
HETATM   29  C   UNL     1      38.805 -13.778   0.295  1.00  0.00     0.075 A 
HETATM   30  O   UNL     1      39.950 -14.160  -0.342  1.00  0.00    -0.325 OA
HETATM   31  C   UNL     1      39.659 -14.248  -1.665  1.00  0.00     0.142 A 
HETATM   32  C   UNL     1      38.341 -13.929  -1.890  1.00  0.00     0.027 A 
HETATM   33  C   UNL     1      37.786 -13.623  -0.624  1.00  0.00     0.037 A 
ENDBRANCH   6  29
TORSDOF 6
ENDMDL
MODEL 5
REMARK VINA RESULT:      -8.2      3.486      5.153
REMARK  6 active torsions:
REMARK  status: ('A' for Active; 'I' for Inactive)
REMARK    1  A    between atoms: C_2  and  O_3 
REMARK    2  A    between atoms: C_2  and  C_4 
REMARK    3  A    between atoms: C_7  and  N_8 
REMARK       I    between atoms: N_8  and  C_9 
REMARK    4  A    between atoms: C_9  and  C_10 
REMARK    5  A    between atoms: C_13  and  C_14 
REMARK    6  A    between atoms: C_19  and  C_20 
ROOT
HETATM    1  C   UNL     1      41.843 -15.481   0.850  1.00  0.00     0.096 C 
HETATM    2  C   UNL     1      42.299 -15.888   2.091  1.00  0.00     0.138 C 
HETATM    3  N   UNL     1      42.249 -17.265   2.075  1.00  0.00    -0.240 N 
HETATM    4  C   UNL     1      42.601 -18.116   3.197  1.00  0.00     0.221 C 
HETATM    5  C   UNL     1      43.358 -17.318   4.272  1.00  0.00     0.068 C 
HETATM    6  C   UNL     1      42.705 -15.946   4.484  1.00  0.00     0.143 C 
HETATM    7  N   UNL     1      42.718 -15.216   3.202  1.00  0.00    -0.363 N 
HETATM    8  N   UNL     1      41.627 -17.761   0.996  1.00  0.00    -0.181 NA
HETATM    9  C   UNL     1      41.413 -16.683   0.238  1.00  0.00     0.160 C 
HETATM   10  H   UNL     1      42.373 -14.262   3.329  1.00  0.00     0.162 HD
ENDROOT
BRANCH   1  11
HETATM   11  C   UNL     1      41.753 -14.150   0.272  1.00  0.00     0.261 C 
HETATM   12  N   UNL     1      42.208 -14.081  -1.032  1.00  0.00    -0.323 N 
HETATM   13  H   UNL     1      42.464 -14.967  -1.451  1.00  0.00     0.169 HD
HETATM   14  O   UNL     1      41.268 -13.230   0.919  1.00  0.00    -0.267 OA
BRANCH  12  15
HETATM   15  C   UNL     1      42.224 -12.952  -1.876  1.00  0.00     0.035 A 
HETATM   16  C   UNL     1      42.897 -11.766  -1.580  1.00  0.00     0.030 A 
HETATM   17  C   UNL     1      42.845 -10.678  -2.460  1.00  0.00     0.012 A 
HETATM   18  C   UNL     1      42.119 -10.751  -3.655  1.00  0.00    -0.030 A 
HETATM   19  C   UNL     1      41.465 -11.952  -3.960  1.00  0.00     0.012 A 
HETATM   20  C   UNL     1      41.517 -13.039  -3.080  1.00  0.00     0.030 A 
BRANCH  18  21
HETATM   21  C   UNL     1      42.080  -9.559  -4.586  1.00  0.00     0.147 C 
HETATM   22  C   UNL     1      42.476  -8.274  -3.870  1.00  0.00     0.044 C 
BRANCH  21  23
HETATM   23  O   UNL     1      42.960  -9.766  -5.690  1.00  0.00    -0.391 OA
HETATM   24  H   UNL     1      43.859  -9.571  -5.376  1.00  0.00     0.210 HD
ENDBRANCH  21  23
ENDBRANCH  18  21
ENDBRANCH  12  15
ENDBRANCH   1  11
BRANCH   4  25
HETATM   25  C   UNL     1      43.443 -19.296   2.758  1.00  0.00     0.409 C 
HETATM   26  F   UNL     1      42.734 -20.190   2.033  1.00  0.00    -0.169 F 
HETATM   27  F   UNL     1      44.451 -18.860   1.954  1.00  0.00    -0.169 F 
HETATM   28  F   UNL     1      44.035 -19.949   3.778  1.00  0.00    -0.169 F 
ENDBRANCH   4  25
BRANCH   6  29
HETATM   29  C   UNL     1      43.396 -15.219   5.592  1.00  0.00     0.075 A 
HETATM   30  O   UNL     1      43.166 -13.876   5.669  1.00  0.00    -0.325 OA
HETATM   31  C   UNL     1      43.862 -13.414   6.739  1.00  0.00     0.142 A 
HETATM   32  C   UNL     1      44.537 -14.443   7.355  1.00  0.00     0.027 A 
HETATM   33  C   UNL     1      44.238 -15.611   6.613  1.00  0.00     0.037 A 
ENDBRANCH   6  29
TORSDOF 6
ENDMDL
MODEL 6
REMARK VINA RESULT:      -8.1      4.026      8.512
REMARK  6 active torsions:
REMARK  status: ('A' for Active; 'I' for Inactive)
REMARK    1  A    between atoms: C_2  and  O_3 
REMARK    2  A    between atoms: C_2  and  C_4 
REMARK    3  A    between atoms: C_7  and  N_8 
REMARK       I    between atoms: N_8  and  C_9 
REMARK    4  A    between atoms: C_9  and  C_10 
REMARK    5  A    between atoms: C_13  and  C_14 
REMARK    6  A    between atoms: C_19  and  C_20 
ROOT
HETATM    1  C   UNL     1      41.617 -15.503   1.026  1.00  0.00     0.096 C 
HETATM    2  C   UNL     1      40.890 -14.537   1.697  1.00  0.00     0.138 C 
HETATM    3  N   UNL     1      39.988 -14.043   0.781  1.00  0.00    -0.240 N 
HETATM    4  C   UNL     1      39.045 -12.972   1.047  1.00  0.00     0.221 C 
HETATM    5  C   UNL     1      38.938 -12.700   2.557  1.00  0.00     0.068 C 
HETATM    6  C   UNL     1      40.327 -12.721   3.207  1.00  0.00     0.143 C 
HETATM    7  N   UNL     1      40.938 -14.042   2.968  1.00  0.00    -0.363 N 
HETATM    8  N   UNL     1      40.203 -14.483  -0.467  1.00  0.00    -0.181 NA
HETATM    9  C   UNL     1      41.167 -15.395  -0.313  1.00  0.00     0.160 C 
HETATM   10  H   UNL     1      41.828 -14.121   3.467  1.00  0.00     0.162 HD
ENDROOT
BRANCH   1  11
HETATM   11  C   UNL     1      42.646 -16.410   1.509  1.00  0.00     0.261 C 
HETATM   12  N   UNL     1      42.141 -17.557   2.095  1.00  0.00    -0.323 N 
HETATM   13  H   UNL     1      41.136 -17.667   2.041  1.00  0.00     0.169 HD
HETATM   14  O   UNL     1      43.829 -16.144   1.340  1.00  0.00    -0.267 OA
BRANCH  12  15
HETATM   15  C   UNL     1      42.870 -18.639   2.628  1.00  0.00     0.035 A 
HETATM   16  C   UNL     1      43.410 -18.658   3.914  1.00  0.00     0.030 A 
HETATM   17  C   UNL     1      44.145 -19.762   4.363  1.00  0.00     0.012 A 
HETATM   18  C   UNL     1      44.357 -20.872   3.536  1.00  0.00    -0.030 A 
HETATM   19  C   UNL     1      43.793 -20.860   2.254  1.00  0.00     0.012 A 
HETATM   20  C   UNL     1      43.059 -19.755   1.805  1.00  0.00     0.030 A 
BRANCH  18  21
HETATM   21  C   UNL     1      45.155 -22.051   4.049  1.00  0.00     0.147 C 
HETATM   22  C   UNL     1      44.891 -22.307   5.527  1.00  0.00     0.044 C 
BRANCH  21  23
HETATM   23  O   UNL     1      44.832 -23.226   3.307  1.00  0.00    -0.391 OA
HETATM   24  H   UNL     1      44.181 -22.966   2.633  1.00  0.00     0.210 HD
ENDBRANCH  21  23
ENDBRANCH  18  21
ENDBRANCH  12  15
ENDBRANCH   1  11
BRANCH   4  25
HETATM   25  C   UNL     1      37.671 -13.289   0.493  1.00  0.00     0.409 C 
HETATM   26  F   UNL     1      37.258 -14.532   0.827  1.00  0.00    -0.169 F 
HETATM   27  F   UNL     1      36.760 -12.425   1.018  1.00  0.00    -0.169 F 
HETATM   28  F   UNL     1      37.583 -13.157  -0.846  1.00  0.00    -0.169 F 
ENDBRANCH   4  25
BRANCH   6  29
HETATM   29  C   UNL     1      40.217 -12.368   4.655  1.00  0.00     0.075 A 
HETATM   30  O   UNL     1      41.266 -11.678   5.191  1.00  0.00    -0.325 OA
HETATM   31  C   UNL     1      40.964 -11.444   6.493  1.00  0.00     0.142 A 
HETATM   32  C   UNL     1      39.733 -11.971   6.804  1.00  0.00     0.027 A 
HETATM   33  C   UNL     1      39.248 -12.571   5.617  1.00  0.00     0.037 A 
ENDBRANCH   6  29
TORSDOF 6
ENDMDL
MODEL 7
REMARK VINA RESULT:      -7.8      4.070      9.170
REMARK  6 active torsions:
REMARK  status: ('A' for Active; 'I' for Inactive)
REMARK    1  A    between atoms: C_2  and  O_3 
REMARK    2  A    between atoms: C_2  and  C_4 
REMARK    3  A    between atoms: C_7  and  N_8 
REMARK       I    between atoms: N_8  and  C_9 
REMARK    4  A    between atoms: C_9  and  C_10 
REMARK    5  A    between atoms: C_13  and  C_14 
REMARK    6  A    between atoms: C_19  and  C_20 
ROOT
HETATM    1  C   UNL     1      39.998 -14.865   1.086  1.00  0.00     0.096 C 
HETATM    2  C   UNL     1      39.770 -13.975   0.052  1.00  0.00     0.138 C 
HETATM    3  N   UNL     1      38.470 -13.547   0.205  1.00  0.00    -0.240 N 
HETATM    4  C   UNL     1      37.793 -12.629  -0.692  1.00  0.00     0.221 C 
HETATM    5  C   UNL     1      38.799 -11.933  -1.624  1.00  0.00     0.068 C 
HETATM    6  C   UNL     1      39.837 -12.936  -2.141  1.00  0.00     0.143 C 
HETATM    7  N   UNL     1      40.536 -13.528  -0.985  1.00  0.00    -0.363 N 
HETATM    8  N   UNL     1      37.793 -14.228   1.141  1.00  0.00    -0.181 NA
HETATM    9  C   UNL     1      38.728 -15.002   1.699  1.00  0.00     0.160 C 
HETATM   10  H   UNL     1      41.299 -14.134  -1.298  1.00  0.00     0.162 HD
ENDROOT
BRANCH   1  11
HETATM   11  C   UNL     1      41.212 -15.565   1.474  1.00  0.00     0.261 C 
HETATM   12  N   UNL     1      40.976 -16.737   2.168  1.00  0.00    -0.323 N 
HETATM   13  H   UNL     1      40.004 -17.009   2.248  1.00  0.00     0.169 HD
HETATM   14  O   UNL     1      42.306 -15.126   1.145  1.00  0.00    -0.267 OA
BRANCH  12  15
HETATM   15  C   UNL     1      41.932 -17.655   2.651  1.00  0.00     0.035 A 
HETATM   16  C   UNL     1      42.582 -18.597   1.854  1.00  0.00     0.030 A 
HETATM   17  C   UNL     1      43.501 -19.492   2.414  1.00  0.00     0.012 A 
HETATM   18  C   UNL     1      43.790 -19.467   3.784  1.00  0.00    -0.030 A 
HETATM   19  C   UNL     1      43.152 -18.504   4.578  1.00  0.00     0.012 A 
HETATM   20  C   UNL     1      42.233 -17.609   4.017  1.00  0.00     0.030 A 
BRANCH  18  21
HETATM   21  C   UNL     1      44.787 -20.447   4.361  1.00  0.00     0.147 C 
HETATM   22  C   UNL     1      44.426 -20.841   5.788  1.00  0.00     0.044 C 
BRANCH  21  23
HETATM   23  O   UNL     1      44.848 -21.623   3.556  1.00  0.00    -0.391 OA
HETATM   24  H   UNL     1      44.224 -21.496   2.821  1.00  0.00     0.210 HD
ENDBRANCH  21  23
ENDBRANCH  18  21
ENDBRANCH  12  15
ENDBRANCH   1  11
BRANCH   4  25
HETATM   25  C   UNL     1      37.004 -11.585   0.070  1.00  0.00     0.409 C 
HETATM   26  F   UNL     1      37.673 -11.124   1.151  1.00  0.00    -0.169 F 
HETATM   27  F   UNL     1      36.781 -10.509  -0.733  1.00  0.00    -0.169 F 
HETATM   28  F   UNL     1      35.789 -12.009   0.471  1.00  0.00    -0.169 F 
ENDBRANCH   4  25
BRANCH   6  29
HETATM   29  C   UNL     1      40.753 -12.265  -3.113  1.00  0.00     0.075 A 
HETATM   30  O   UNL     1      40.161 -11.480  -4.059  1.00  0.00    -0.325 OA
HETATM   31  C   UNL     1      41.156 -10.955  -4.820  1.00  0.00     0.142 A 
HETATM   32  C   UNL     1      42.382 -11.391  -4.376  1.00  0.00     0.027 A 
HETATM   33  C   UNL     1      42.124 -12.240  -3.272  1.00  0.00     0.037 A 
ENDBRANCH   6  29
TORSDOF 6
ENDMDL
MODEL 8
REMARK VINA RESULT:      -7.8      4.336      7.985
REMARK  6 active torsions:
REMARK  status: ('A' for Active; 'I' for Inactive)
REMARK    1  A    between atoms: C_2  and  O_3 
REMARK    2  A    between atoms: C_2  and  C_4 
REMARK    3  A    between atoms: C_7  and  N_8 
REMARK       I    between atoms: N_8  and  C_9 
REMARK    4  A    between atoms: C_9  and  C_10 
REMARK    5  A    between atoms: C_13  and  C_14 
REMARK    6  A    between atoms: C_19  and  C_20 
ROOT
HETATM    1  C   UNL     1      40.926 -14.394   3.946  1.00  0.00     0.096 C 
HETATM    2  C   UNL     1      41.289 -15.449   3.130  1.00  0.00     0.138 C 
HETATM    3  N   UNL     1      40.684 -15.209   1.916  1.00  0.00    -0.240 N 
HETATM    4  C   UNL     1      40.761 -16.092   0.766  1.00  0.00     0.221 C 
HETATM    5  C   UNL     1      41.871 -17.140   0.956  1.00  0.00     0.068 C 
HETATM    6  C   UNL     1      41.853 -17.691   2.387  1.00  0.00     0.143 C 
HETATM    7  N   UNL     1      42.044 -16.569   3.325  1.00  0.00    -0.363 N 
HETATM    8  N   UNL     1      39.818 -14.186   1.947  1.00  0.00    -0.181 NA
HETATM    9  C   UNL     1      39.991 -13.670   3.167  1.00  0.00     0.160 C 
HETATM   10  H   UNL     1      42.129 -16.914   4.285  1.00  0.00     0.162 HD
ENDROOT
BRANCH   1  11
HETATM   11  C   UNL     1      41.332 -14.075   5.305  1.00  0.00     0.261 C 
HETATM   12  N   UNL     1      42.603 -13.539   5.392  1.00  0.00    -0.323 N 
HETATM   13  H   UNL     1      43.060 -13.356   4.506  1.00  0.00     0.169 HD
HETATM   14  O   UNL     1      40.554 -14.246   6.236  1.00  0.00    -0.267 OA
BRANCH  12  15
HETATM   15  C   UNL     1      43.272 -13.098   6.552  1.00  0.00     0.035 A 
HETATM   16  C   UNL     1      44.429 -13.691   7.058  1.00  0.00     0.030 A 
HETATM   17  C   UNL     1      45.021 -13.210   8.233  1.00  0.00     0.012 A 
HETATM   18  C   UNL     1      44.469 -12.127   8.928  1.00  0.00    -0.030 A 
HETATM   19  C   UNL     1      43.321 -11.519   8.403  1.00  0.00     0.012 A 
HETATM   20  C   UNL     1      42.729 -12.001   7.229  1.00  0.00     0.030 A 
BRANCH  18  21
HETATM   21  C   UNL     1      45.130 -11.630  10.194  1.00  0.00     0.147 C 
HETATM   22  C   UNL     1      44.273 -10.590  10.904  1.00  0.00     0.044 C 
BRANCH  21  23
HETATM   23  O   UNL     1      45.376 -12.717  11.084  1.00  0.00    -0.391 OA
HETATM   24  H   UNL     1      46.117 -12.454  11.655  1.00  0.00     0.210 HD
ENDBRANCH  21  23
ENDBRANCH  18  21
ENDBRANCH  12  15
ENDBRANCH   1  11
BRANCH   4  25
HETATM   25  C   UNL     1      41.008 -15.321  -0.513  1.00  0.00     0.409 C 
HETATM   26  F   UNL     1      42.033 -14.446  -0.396  1.00  0.00    -0.169 F 
HETATM   27  F   UNL     1      41.353 -16.187  -1.506  1.00  0.00    -0.169 F 
HETATM   28  F   UNL     1      39.927 -14.651  -0.960  1.00  0.00    -0.169 F 
ENDBRANCH   4  25
BRANCH   6  29
HETATM   29  C   UNL     1      42.878 -18.769   2.530  1.00  0.00     0.075 A 
HETATM   30  O   UNL     1      42.688 -19.889   1.772  1.00  0.00    -0.325 OA
HETATM   31  C   UNL     1      43.724 -20.726   2.033  1.00  0.00     0.142 A 
HETATM   32  C   UNL     1      44.581 -20.161   2.948  1.00  0.00     0.027 A 
HETATM   33  C   UNL     1      44.035 -18.896   3.272  1.00  0.00     0.037 A 
ENDBRANCH   6  29
TORSDOF 6
ENDMDL
MODEL 9
REMARK VINA RESULT:      -7.7      3.659      7.940
REMARK  6 active torsions:
REMARK  status: ('A' for Active; 'I' for Inactive)
REMARK    1  A    between atoms: C_2  and  O_3 
REMARK    2  A    between atoms: C_2  and  C_4 
REMARK    3  A    between atoms: C_7  and  N_8 
REMARK       I    between atoms: N_8  and  C_9 
REMARK    4  A    between atoms: C_9  and  C_10 
REMARK    5  A    between atoms: C_13  and  C_14 
REMARK    6  A    between atoms: C_19  and  C_20 
ROOT
HETATM    1  C   UNL     1      40.594 -14.915   3.096  1.00  0.00     0.096 C 
HETATM    2  C   UNL     1      40.784 -13.753   2.370  1.00  0.00     0.138 C 
HETATM    3  N   UNL     1      40.331 -12.730   3.174  1.00  0.00    -0.240 N 
HETATM    4  C   UNL     1      40.303 -11.331   2.790  1.00  0.00     0.221 C 
HETATM    5  C   UNL     1      41.150 -11.092   1.529  1.00  0.00     0.068 C 
HETATM    6  C   UNL     1      40.914 -12.207   0.503  1.00  0.00     0.143 C 
HETATM    7  N   UNL     1      41.270 -13.498   1.121  1.00  0.00    -0.363 N 
HETATM    8  N   UNL     1      39.701 -13.160   4.276  1.00  0.00    -0.181 NA
HETATM    9  C   UNL     1      39.892 -14.482   4.247  1.00  0.00     0.160 C 
HETATM   10  H   UNL     1      41.211 -14.253   0.433  1.00  0.00     0.162 HD
ENDROOT
BRANCH   1  11
HETATM   11  C   UNL     1      40.960 -16.287   2.787  1.00  0.00     0.261 C 
HETATM   12  N   UNL     1      42.244 -16.619   3.178  1.00  0.00    -0.323 N 
HETATM   13  H   UNL     1      42.738 -15.906   3.701  1.00  0.00     0.169 HD
HETATM   14  O   UNL     1      40.144 -17.039   2.269  1.00  0.00    -0.267 OA
BRANCH  12  15
HETATM   15  C   UNL     1      42.883 -17.869   3.051  1.00  0.00     0.035 A 
HETATM   16  C   UNL     1      42.860 -18.644   1.890  1.00  0.00     0.030 A 
HETATM   17  C   UNL     1      43.499 -19.889   1.851  1.00  0.00     0.012 A 
HETATM   18  C   UNL     1      44.175 -20.389   2.971  1.00  0.00    -0.030 A 
HETATM   19  C   UNL     1      44.216 -19.598   4.127  1.00  0.00     0.012 A 
HETATM   20  C   UNL     1      43.577 -18.353   4.166  1.00  0.00     0.030 A 
BRANCH  18  21
HETATM   21  C   UNL     1      44.856 -21.737   2.899  1.00  0.00     0.147 C 
HETATM   22  C   UNL     1      44.606 -22.560   4.157  1.00  0.00     0.044 C 
BRANCH  21  23
HETATM   23  O   UNL     1      44.390 -22.467   1.765  1.00  0.00    -0.391 OA
HETATM   24  H   UNL     1      44.342 -23.401   2.030  1.00  0.00     0.210 HD
ENDBRANCH  21  23
ENDBRANCH  18  21
ENDBRANCH  12  15
ENDBRANCH   1  11
BRANCH   4  25
HETATM   25  C   UNL     1      40.798 -10.436   3.908  1.00  0.00     0.409 C 
HETATM   26  F   UNL     1      41.216  -9.233   3.454  1.00  0.00    -0.169 F 
HETATM   27  F   UNL     1      39.778 -10.188   4.775  1.00  0.00    -0.169 F 
HETATM   28  F   UNL     1      41.788 -10.983   4.641  1.00  0.00    -0.169 F 
ENDBRANCH   4  25
BRANCH   6  29
HETATM   29  C   UNL     1      41.675 -11.915  -0.750  1.00  0.00     0.075 A 
HETATM   30  O   UNL     1      42.095 -12.997  -1.468  1.00  0.00    -0.325 OA
HETATM   31  C   UNL     1      42.741 -12.521  -2.563  1.00  0.00     0.142 A 
HETATM   32  C   UNL     1      42.742 -11.146  -2.562  1.00  0.00     0.027 A 
HETATM   33  C   UNL     1      42.053 -10.752  -1.389  1.00  0.00     0.037 A 
ENDBRANCH   6  29
TORSDOF 6
ENDMDL
MODEL 10
REMARK VINA RESULT:      -7.7      2.692      4.618
REMARK  6 active torsions:
REMARK  status: ('A' for Active; 'I' for Inactive)
REMARK    1  A    between atoms: C_2  and  O_3 
REMARK    2  A    between atoms: C_2  and  C_4 
REMARK    3  A    between atoms: C_7  and  N_8 
REMARK       I    between atoms: N_8  and  C_9 
REMARK    4  A    between atoms: C_9  and  C_10 
REMARK    5  A    between atoms: C_13  and  C_14 
REMARK    6  A    between atoms: C_19  and  C_20 
ROOT
HETATM    1  C   UNL     1      41.276 -16.186   1.391  1.00  0.00     0.096 C 
HETATM    2  C   UNL     1      41.985 -16.386   2.562  1.00  0.00     0.138 C 
HETATM    3  N   UNL     1      42.253 -17.736   2.611  1.00  0.00    -0.240 N 
HETATM    4  C   UNL     1      42.948 -18.400   3.699  1.00  0.00     0.221 C 
HETATM    5  C   UNL     1      43.642 -17.374   4.611  1.00  0.00     0.068 C 
HETATM    6  C   UNL     1      42.726 -16.171   4.864  1.00  0.00     0.143 C 
HETATM    7  N   UNL     1      42.388 -15.555   3.566  1.00  0.00    -0.363 N 
HETATM    8  N   UNL     1      41.619 -18.439   1.663  1.00  0.00    -0.181 NA
HETATM    9  C   UNL     1      41.055 -17.496   0.902  1.00  0.00     0.160 C 
HETATM   10  H   UNL     1      41.852 -14.695   3.706  1.00  0.00     0.162 HD
ENDROOT
BRANCH   1  11
HETATM   11  C   UNL     1      40.800 -14.956   0.779  1.00  0.00     0.261 C 
HETATM   12  N   UNL     1      40.292 -15.132  -0.495  1.00  0.00    -0.323 N 
HETATM   13  H   UNL     1      40.234 -16.092  -0.812  1.00  0.00     0.169 HD
HETATM   14  O   UNL     1      40.832 -13.904   1.406  1.00  0.00    -0.267 OA
BRANCH  12  15
HETATM   15  C   UNL     1      39.728 -14.152  -1.336  1.00  0.00     0.035 A 
HETATM   16  C   UNL     1      38.400 -13.728  -1.259  1.00  0.00     0.030 A 
HETATM   17  C   UNL     1      37.906 -12.767  -2.150  1.00  0.00     0.012 A 
HETATM   18  C   UNL     1      38.726 -12.209  -3.138  1.00  0.00    -0.030 A 
HETATM   19  C   UNL     1      40.065 -12.620  -3.196  1.00  0.00     0.012 A 
HETATM   20  C   UNL     1      40.559 -13.581  -2.307  1.00  0.00     0.030 A 
BRANCH  18  21
HETATM   21  C   UNL     1      38.165 -11.173  -4.086  1.00  0.00     0.147 C 
HETATM   22  C   UNL     1      39.269 -10.465  -4.861  1.00  0.00     0.044 C 
BRANCH  21  23
HETATM   23  O   UNL     1      37.265 -11.783  -5.009  1.00  0.00    -0.391 OA
HETATM   24  H   UNL     1      37.414 -11.360  -5.871  1.00  0.00     0.210 HD
ENDBRANCH  21  23
ENDBRANCH  18  21
ENDBRANCH  12  15
ENDBRANCH   1  11
BRANCH   4  25
HETATM   25  C   UNL     1      43.970 -19.392   3.185  1.00  0.00     0.409 C 
HETATM   26  F   UNL     1      43.395 -20.512   2.692  1.00  0.00    -0.169 F 
HETATM   27  F   UNL     1      44.668 -18.833   2.158  1.00  0.00    -0.169 F 
HETATM   28  F   UNL     1      44.886 -19.753   4.106  1.00  0.00    -0.169 F 
ENDBRANCH   4  25
BRANCH   6  29
HETATM   29  C   UNL     1      43.377 -15.226   5.821  1.00  0.00     0.075 A 
HETATM   30  O   UNL     1      42.894 -13.950   5.835  1.00  0.00    -0.325 OA
HETATM   31  C   UNL     1      43.600 -13.267   6.772  1.00  0.00     0.142 A 
HETATM   32  C   UNL     1      44.531 -14.087   7.365  1.00  0.00     0.027 A 
HETATM   33  C   UNL     1      44.390 -15.355   6.750  1.00  0.00     0.037 A 
ENDBRANCH   6  29
TORSDOF 6
ENDMDL
