MODEL 1
REMARK VINA RESULT:      -8.9      0.000      0.000
REMARK  3 active torsions:
REMARK  status: ('A' for Active; 'I' for Inactive)
REMARK    1  A    between atoms: C_5  and  C_6 
REMARK       I    between atoms: C_6  and  N_7 
REMARK    2  A    between atoms: N_7  and  C_8 
REMARK    3  A    between atoms: C_15  and  C_16 
REMARK       I    between atoms: C_16  and  N_17 
ROOT
HETATM    1  C   UNL     1      41.357 -15.553  -0.805  1.00  0.00     0.035 A 
HETATM    2  C   UNL     1      41.864 -14.264  -0.564  1.00  0.00     0.046 A 
HETATM    3  C   UNL     1      41.979 -13.346  -1.628  1.00  0.00     0.030 A 
HETATM    4  C   UNL     1      41.586 -13.742  -2.898  1.00  0.00     0.063 A 
HETATM    5  N   UNL     1      41.815 -12.661  -3.703  1.00  0.00    -0.277 N 
HETATM    6  H   UNL     1      41.647 -12.593  -4.700  1.00  0.00     0.189 HD
HETATM    7  N   UNL     1      42.318 -11.590  -3.065  1.00  0.00    -0.168 NA
HETATM    8  C   UNL     1      42.424 -11.999  -1.781  1.00  0.00     0.156 A 
HETATM    9  C   UNL     1      41.075 -15.011  -3.173  1.00  0.00     0.034 A 
HETATM   10  C   UNL     1      40.966 -15.906  -2.099  1.00  0.00     0.032 A 
ENDROOT
BRANCH   1  11
HETATM   11  N   UNL     1      41.279 -16.419   0.305  1.00  0.00    -0.326 N 
HETATM   12  C   UNL     1      42.321 -17.059   0.969  1.00  0.00     0.240 C 
HETATM   13  O   UNL     1      43.508 -16.977   0.663  1.00  0.00    -0.272 OA
HETATM   14  H   UNL     1      40.361 -16.518   0.729  1.00  0.00     0.169 HD
BRANCH  12  15
HETATM   15  C   UNL     1      41.820 -17.938   2.144  1.00  0.00     0.172 C 
HETATM   16  C   UNL     1      42.855 -18.945   2.627  1.00  0.00    -0.029 A 
HETATM   17  C   UNL     1      43.684 -18.737   3.750  1.00  0.00    -0.050 A 
HETATM   18  C   UNL     1      43.018 -20.127   1.875  1.00  0.00     0.009 A 
HETATM   19  C   UNL     1      44.630 -19.720   4.097  1.00  0.00     0.007 A 
HETATM   20  C   UNL     1      43.564 -17.537   4.664  1.00  0.00     0.049 C 
HETATM   21  C   UNL     1      44.773 -20.882   3.341  1.00  0.00     0.001 A 
HETATM   22  C   UNL     1      43.967 -21.086   2.229  1.00  0.00     0.001 A 
HETATM   23  C   UNL     1      42.806 -16.339   4.108  1.00  0.00     0.080 C 
HETATM   24  S   UNL     1      41.186 -16.856   3.482  1.00  0.00    -0.149 SA
ENDBRANCH  12  15
ENDBRANCH   1  11
BRANCH   8  25
HETATM   25  C   UNL     1      42.938 -11.109  -0.731  1.00  0.00     0.270 C 
HETATM   26  N   UNL     1      42.179 -11.090   0.407  1.00  0.00    -0.365 N 
HETATM   27  H   UNL     1      41.350 -11.671   0.447  1.00  0.00     0.159 HD
HETATM   28  H   UNL     1      42.455 -10.513   1.185  1.00  0.00     0.159 HD
HETATM   29  O   UNL     1      43.956 -10.431  -0.834  1.00  0.00    -0.266 OA
ENDBRANCH   8  25
TORSDOF 3
ENDMDL
MODEL 2
REMARK VINA RESULT:      -8.9      1.756      2.786
REMARK  3 active torsions:
REMARK  status: ('A' for Active; 'I' for Inactive)
REMARK    1  A    between atoms: C_5  and  C_6 
REMARK       I    between atoms: C_6  and  N_7 
REMARK    2  A    between atoms: N_7  and  C_8 
REMARK    3  A    between atoms: C_15  and  C_16 
REMARK       I    between atoms: C_16  and  N_17 
ROOT
HETATM    1  C   UNL     1      41.817 -14.644   1.371  1.00  0.00     0.035 A 
HETATM    2  C   UNL     1      41.511 -14.765   0.005  1.00  0.00     0.046 A 
HETATM    3  C   UNL     1      41.544 -13.626  -0.825  1.00  0.00     0.030 A 
HETATM    4  C   UNL     1      41.880 -12.402  -0.265  1.00  0.00     0.063 A 
HETATM    5  N   UNL     1      41.823 -11.504  -1.294  1.00  0.00    -0.277 N 
HETATM    6  H   UNL     1      42.006 -10.507  -1.249  1.00  0.00     0.189 HD
HETATM    7  N   UNL     1      41.485 -12.038  -2.480  1.00  0.00    -0.168 NA
HETATM    8  C   UNL     1      41.310 -13.350  -2.204  1.00  0.00     0.156 A 
HETATM    9  C   UNL     1      42.194 -12.245   1.085  1.00  0.00     0.034 A 
HETATM   10  C   UNL     1      42.158 -13.393   1.891  1.00  0.00     0.032 A 
ENDROOT
BRANCH   1  11
HETATM   11  N   UNL     1      41.756 -15.825   2.140  1.00  0.00    -0.326 N 
HETATM   12  C   UNL     1      42.806 -16.658   2.517  1.00  0.00     0.240 C 
HETATM   13  O   UNL     1      43.983 -16.493   2.209  1.00  0.00    -0.272 OA
HETATM   14  H   UNL     1      40.852 -16.048   2.543  1.00  0.00     0.169 HD
BRANCH  12  15
HETATM   15  C   UNL     1      42.325 -17.868   3.359  1.00  0.00     0.172 C 
HETATM   16  C   UNL     1      43.192 -19.107   3.184  1.00  0.00    -0.029 A 
HETATM   17  C   UNL     1      44.212 -19.482   4.084  1.00  0.00    -0.050 A 
HETATM   18  C   UNL     1      42.987 -19.890   2.029  1.00  0.00     0.009 A 
HETATM   19  C   UNL     1      44.977 -20.632   3.815  1.00  0.00     0.007 A 
HETATM   20  C   UNL     1      44.488 -18.753   5.381  1.00  0.00     0.049 C 
HETATM   21  C   UNL     1      44.755 -21.394   2.669  1.00  0.00     0.001 A 
HETATM   22  C   UNL     1      43.760 -21.023   1.774  1.00  0.00     0.001 A 
HETATM   23  C   UNL     1      43.916 -17.347   5.500  1.00  0.00     0.080 C 
HETATM   24  S   UNL     1      42.147 -17.354   5.111  1.00  0.00    -0.149 SA
ENDBRANCH  12  15
ENDBRANCH   1  11
BRANCH   8  25
HETATM   25  C   UNL     1      40.930 -14.310  -3.250  1.00  0.00     0.270 C 
HETATM   26  N   UNL     1      39.721 -14.050  -3.835  1.00  0.00    -0.365 N 
HETATM   27  H   UNL     1      39.195 -13.243  -3.521  1.00  0.00     0.159 HD
HETATM   28  H   UNL     1      39.377 -14.650  -4.567  1.00  0.00     0.159 HD
HETATM   29  O   UNL     1      41.615 -15.269  -3.593  1.00  0.00    -0.266 OA
ENDBRANCH   8  25
TORSDOF 3
ENDMDL
MODEL 3
REMARK VINA RESULT:      -8.5      3.318      7.737
REMARK  3 active torsions:
REMARK  status: ('A' for Active; 'I' for Inactive)
REMARK    1  A    between atoms: C_5  and  C_6 
REMARK       I    between atoms: C_6  and  N_7 
REMARK    2  A    between atoms: N_7  and  C_8 
REMARK    3  A    between atoms: C_15  and  C_16 
REMARK       I    between atoms: C_16  and  N_17 
ROOT
HETATM    1  C   UNL     1      43.350 -17.267   1.897  1.00  0.00     0.035 A 
HETATM    2  C   UNL     1      43.408 -16.957   3.266  1.00  0.00     0.046 A 
HETATM    3  C   UNL     1      43.769 -17.953   4.197  1.00  0.00     0.030 A 
HETATM    4  C   UNL     1      44.060 -19.227   3.731  1.00  0.00     0.063 A 
HETATM    5  N   UNL     1      44.364 -19.959   4.845  1.00  0.00    -0.277 N 
HETATM    6  H   UNL     1      44.623 -20.939   4.882  1.00  0.00     0.189 HD
HETATM    7  N   UNL     1      44.304 -19.270   5.997  1.00  0.00    -0.168 NA
HETATM    8  C   UNL     1      43.938 -18.027   5.610  1.00  0.00     0.156 A 
HETATM    9  C   UNL     1      44.017 -19.570   2.380  1.00  0.00     0.034 A 
HETATM   10  C   UNL     1      43.658 -18.563   1.472  1.00  0.00     0.032 A 
ENDROOT
BRANCH   1  11
HETATM   11  N   UNL     1      42.974 -16.223   1.026  1.00  0.00    -0.326 N 
HETATM   12  C   UNL     1      41.689 -15.835   0.657  1.00  0.00     0.240 C 
HETATM   13  O   UNL     1      40.653 -16.378   1.032  1.00  0.00    -0.272 OA
HETATM   14  H   UNL     1      43.725 -15.623   0.700  1.00  0.00     0.169 HD
BRANCH  12  15
HETATM   15  C   UNL     1      41.695 -14.640  -0.331  1.00  0.00     0.172 C 
HETATM   16  C   UNL     1      40.614 -14.734  -1.398  1.00  0.00    -0.029 A 
HETATM   17  C   UNL     1      39.377 -14.061  -1.321  1.00  0.00    -0.050 A 
HETATM   18  C   UNL     1      40.855 -15.583  -2.499  1.00  0.00     0.009 A 
HETATM   19  C   UNL     1      38.432 -14.238  -2.349  1.00  0.00     0.007 A 
HETATM   20  C   UNL     1      39.027 -13.084  -0.219  1.00  0.00     0.049 C 
HETATM   21  C   UNL     1      38.692 -15.080  -3.429  1.00  0.00     0.001 A 
HETATM   22  C   UNL     1      39.903 -15.753  -3.505  1.00  0.00     0.001 A 
HETATM   23  C   UNL     1      39.878 -13.156   1.042  1.00  0.00     0.080 C 
HETATM   24  S   UNL     1      41.638 -13.071   0.618  1.00  0.00    -0.149 SA
ENDBRANCH  12  15
ENDBRANCH   1  11
BRANCH   8  25
HETATM   25  C   UNL     1      43.759 -16.941   6.584  1.00  0.00     0.270 C 
HETATM   26  N   UNL     1      42.671 -17.095   7.399  1.00  0.00    -0.365 N 
HETATM   27  H   UNL     1      42.089 -17.917   7.281  1.00  0.00     0.159 HD
HETATM   28  H   UNL     1      42.469 -16.404   8.104  1.00  0.00     0.159 HD
HETATM   29  O   UNL     1      44.503 -15.971   6.686  1.00  0.00    -0.266 OA
ENDBRANCH   8  25
TORSDOF 3
ENDMDL
MODEL 4
REMARK VINA RESULT:      -8.3      3.751      8.202
REMARK  3 active torsions:
REMARK  status: ('A' for Active; 'I' for Inactive)
REMARK    1  A    between atoms: C_5  and  C_6 
REMARK       I    between atoms: C_6  and  N_7 
REMARK    2  A    between atoms: N_7  and  C_8 
REMARK    3  A    between atoms: C_15  and  C_16 
REMARK       I    between atoms: C_16  and  N_17 
ROOT
HETATM    1  C   UNL     1      43.529 -17.978   2.646  1.00  0.00     0.035 A 
HETATM    2  C   UNL     1      43.605 -18.162   4.037  1.00  0.00     0.046 A 
HETATM    3  C   UNL     1      44.015 -19.406   4.559  1.00  0.00     0.030 A 
HETATM    4  C   UNL     1      44.334 -20.428   3.677  1.00  0.00     0.063 A 
HETATM    5  N   UNL     1      44.682 -21.490   4.463  1.00  0.00    -0.277 N 
HETATM    6  H   UNL     1      44.971 -22.412   4.154  1.00  0.00     0.189 HD
HETATM    7  N   UNL     1      44.626 -21.248   5.783  1.00  0.00    -0.168 NA
HETATM    8  C   UNL     1      44.215 -19.961   5.857  1.00  0.00     0.156 A 
HETATM    9  C   UNL     1      44.273 -20.281   2.291  1.00  0.00     0.034 A 
HETATM   10  C   UNL     1      43.867 -19.033   1.794  1.00  0.00     0.032 A 
ENDROOT
BRANCH   1  11
HETATM   11  N   UNL     1      43.104 -16.710   2.197  1.00  0.00    -0.326 N 
HETATM   12  C   UNL     1      41.887 -16.370   1.613  1.00  0.00     0.240 C 
HETATM   13  O   UNL     1      40.975 -17.158   1.374  1.00  0.00    -0.272 OA
HETATM   14  H   UNL     1      43.723 -15.933   2.407  1.00  0.00     0.169 HD
BRANCH  12  15
HETATM   15  C   UNL     1      41.808 -14.865   1.251  1.00  0.00     0.172 C 
HETATM   16  C   UNL     1      40.743 -14.551   0.209  1.00  0.00    -0.029 A 
HETATM   17  C   UNL     1      39.458 -14.064   0.525  1.00  0.00    -0.050 A 
HETATM   18  C   UNL     1      41.055 -14.810  -1.142  1.00  0.00     0.009 A 
HETATM   19  C   UNL     1      38.535 -13.833  -0.512  1.00  0.00     0.007 A 
HETATM   20  C   UNL     1      39.028 -13.698   1.929  1.00  0.00     0.049 C 
HETATM   21  C   UNL     1      38.865 -14.093  -1.841  1.00  0.00     0.001 A 
HETATM   22  C   UNL     1      40.125 -14.583  -2.157  1.00  0.00     0.001 A 
HETATM   23  C   UNL     1      39.874 -14.261   3.063  1.00  0.00     0.080 C 
HETATM   24  S   UNL     1      41.624 -13.881   2.789  1.00  0.00    -0.149 SA
ENDBRANCH  12  15
ENDBRANCH   1  11
BRANCH   8  25
HETATM   25  C   UNL     1      44.024 -19.289   7.150  1.00  0.00     0.270 C 
HETATM   26  N   UNL     1      43.636 -20.124   8.162  1.00  0.00    -0.365 N 
HETATM   27  H   UNL     1      43.515 -21.110   7.958  1.00  0.00     0.159 HD
HETATM   28  H   UNL     1      43.485 -19.756   9.087  1.00  0.00     0.159 HD
HETATM   29  O   UNL     1      44.193 -18.089   7.339  1.00  0.00    -0.266 OA
ENDBRANCH   8  25
TORSDOF 3
ENDMDL
MODEL 5
REMARK VINA RESULT:      -8.1      0.872      1.145
REMARK  3 active torsions:
REMARK  status: ('A' for Active; 'I' for Inactive)
REMARK    1  A    between atoms: C_5  and  C_6 
REMARK       I    between atoms: C_6  and  N_7 
REMARK    2  A    between atoms: N_7  and  C_8 
REMARK    3  A    between atoms: C_15  and  C_16 
REMARK       I    between atoms: C_16  and  N_17 
ROOT
HETATM    1  C   UNL     1      41.384 -15.245  -0.513  1.00  0.00     0.035 A 
HETATM    2  C   UNL     1      41.840 -13.916  -0.484  1.00  0.00     0.046 A 
HETATM    3  C   UNL     1      41.982 -13.197  -1.688  1.00  0.00     0.030 A 
HETATM    4  C   UNL     1      41.666 -13.826  -2.883  1.00  0.00     0.063 A 
HETATM    5  N   UNL     1      41.904 -12.897  -3.857  1.00  0.00    -0.277 N 
HETATM    6  H   UNL     1      41.785 -13.014  -4.858  1.00  0.00     0.189 HD
HETATM    7  N   UNL     1      42.342 -11.712  -3.400  1.00  0.00    -0.168 NA
HETATM    8  C   UNL     1      42.394 -11.883  -2.059  1.00  0.00     0.156 A 
HETATM    9  C   UNL     1      41.207 -15.142  -2.950  1.00  0.00     0.034 A 
HETATM   10  C   UNL     1      41.070 -15.837  -1.739  1.00  0.00     0.032 A 
ENDROOT
BRANCH   1  11
HETATM   11  N   UNL     1      41.274 -15.903   0.730  1.00  0.00    -0.326 N 
HETATM   12  C   UNL     1      42.288 -16.491   1.481  1.00  0.00     0.240 C 
HETATM   13  O   UNL     1      43.470 -16.544   1.152  1.00  0.00    -0.272 OA
HETATM   14  H   UNL     1      40.362 -15.866   1.175  1.00  0.00     0.169 HD
BRANCH  12  15
HETATM   15  C   UNL     1      41.757 -17.123   2.794  1.00  0.00     0.172 C 
HETATM   16  C   UNL     1      42.826 -17.873   3.577  1.00  0.00    -0.029 A 
HETATM   17  C   UNL     1      43.525 -17.324   4.673  1.00  0.00    -0.050 A 
HETATM   18  C   UNL     1      43.161 -19.173   3.144  1.00  0.00     0.009 A 
HETATM   19  C   UNL     1      44.516 -18.092   5.311  1.00  0.00     0.007 A 
HETATM   20  C   UNL     1      43.216 -15.964   5.260  1.00  0.00     0.049 C 
HETATM   21  C   UNL     1      44.830 -19.376   4.868  1.00  0.00     0.001 A 
HETATM   22  C   UNL     1      44.152 -19.917   3.783  1.00  0.00     0.001 A 
HETATM   23  C   UNL     1      42.412 -15.015   4.381  1.00  0.00     0.080 C 
HETATM   24  S   UNL     1      40.908 -15.833   3.786  1.00  0.00    -0.149 SA
ENDBRANCH  12  15
ENDBRANCH   1  11
BRANCH   8  25
HETATM   25  C   UNL     1      42.829 -10.802  -1.164  1.00  0.00     0.270 C 
HETATM   26  N   UNL     1      41.825  -9.954  -0.784  1.00  0.00    -0.365 N 
HETATM   27  H   UNL     1      40.888 -10.126  -1.130  1.00  0.00     0.159 HD
HETATM   28  H   UNL     1      42.024  -9.184  -0.166  1.00  0.00     0.159 HD
HETATM   29  O   UNL     1      43.981 -10.647  -0.772  1.00  0.00    -0.266 OA
ENDBRANCH   8  25
TORSDOF 3
ENDMDL
MODEL 6
REMARK VINA RESULT:      -7.9      3.314      7.496
REMARK  3 active torsions:
REMARK  status: ('A' for Active; 'I' for Inactive)
REMARK    1  A    between atoms: C_5  and  C_6 
REMARK       I    between atoms: C_6  and  N_7 
REMARK    2  A    between atoms: N_7  and  C_8 
REMARK    3  A    between atoms: C_15  and  C_16 
REMARK       I    between atoms: C_16  and  N_17 
ROOT
HETATM    1  C   UNL     1      42.644 -16.451   1.469  1.00  0.00     0.035 A 
HETATM    2  C   UNL     1      42.947 -15.717   2.628  1.00  0.00     0.046 A 
HETATM    3  C   UNL     1      43.208 -16.391   3.839  1.00  0.00     0.030 A 
HETATM    4  C   UNL     1      43.158 -17.778   3.854  1.00  0.00     0.063 A 
HETATM    5  N   UNL     1      43.445 -18.136   5.142  1.00  0.00    -0.277 N 
HETATM    6  H   UNL     1      43.492 -19.076   5.520  1.00  0.00     0.189 HD
HETATM    7  N   UNL     1      43.685 -17.103   5.967  1.00  0.00    -0.168 NA
HETATM    8  C   UNL     1      43.542 -16.017   5.173  1.00  0.00     0.156 A 
HETATM    9  C   UNL     1      42.865 -18.540   2.723  1.00  0.00     0.034 A 
HETATM   10  C   UNL     1      42.613 -17.847   1.530  1.00  0.00     0.032 A 
ENDROOT
BRANCH   1  11
HETATM   11  N   UNL     1      42.387 -15.709   0.298  1.00  0.00    -0.326 N 
HETATM   12  C   UNL     1      41.184 -15.140  -0.109  1.00  0.00     0.240 C 
HETATM   13  O   UNL     1      40.122 -15.220   0.504  1.00  0.00    -0.272 OA
HETATM   14  H   UNL     1      43.195 -15.483  -0.273  1.00  0.00     0.169 HD
BRANCH  12  15
HETATM   15  C   UNL     1      41.310 -14.405  -1.468  1.00  0.00     0.172 C 
HETATM   16  C   UNL     1      40.160 -14.697  -2.421  1.00  0.00    -0.029 A 
HETATM   17  C   UNL     1      39.049 -13.844  -2.594  1.00  0.00    -0.050 A 
HETATM   18  C   UNL     1      40.194 -15.915  -3.132  1.00  0.00     0.009 A 
HETATM   19  C   UNL     1      38.023 -14.222  -3.480  1.00  0.00     0.007 A 
HETATM   20  C   UNL     1      38.928 -12.490  -1.929  1.00  0.00     0.049 C 
HETATM   21  C   UNL     1      38.078 -15.429  -4.174  1.00  0.00     0.001 A 
HETATM   22  C   UNL     1      39.163 -16.277  -4.000  1.00  0.00     0.001 A 
HETATM   23  C   UNL     1      39.838 -12.241  -0.734  1.00  0.00     0.080 C 
HETATM   24  S   UNL     1      41.558 -12.612  -1.166  1.00  0.00    -0.149 SA
ENDBRANCH  12  15
ENDBRANCH   1  11
BRANCH   8  25
HETATM   25  C   UNL     1      43.728 -14.656   5.695  1.00  0.00     0.270 C 
HETATM   26  N   UNL     1      43.245 -14.472   6.961  1.00  0.00    -0.365 N 
HETATM   27  H   UNL     1      42.812 -15.257   7.434  1.00  0.00     0.159 HD
HETATM   28  H   UNL     1      43.330 -13.573   7.406  1.00  0.00     0.159 HD
HETATM   29  O   UNL     1      44.267 -13.744   5.076  1.00  0.00    -0.266 OA
ENDBRANCH   8  25
TORSDOF 3
ENDMDL
MODEL 7
REMARK VINA RESULT:      -7.9      4.743      6.217
REMARK  3 active torsions:
REMARK  status: ('A' for Active; 'I' for Inactive)
REMARK    1  A    between atoms: C_5  and  C_6 
REMARK       I    between atoms: C_6  and  N_7 
REMARK    2  A    between atoms: N_7  and  C_8 
REMARK    3  A    between atoms: C_15  and  C_16 
REMARK       I    between atoms: C_16  and  N_17 
ROOT
HETATM    1  C   UNL     1      41.007 -13.094   4.700  1.00  0.00     0.035 A 
HETATM    2  C   UNL     1      41.361 -12.534   5.939  1.00  0.00     0.046 A 
HETATM    3  C   UNL     1      41.478 -11.135   6.069  1.00  0.00     0.030 A 
HETATM    4  C   UNL     1      41.238 -10.340   4.958  1.00  0.00     0.063 A 
HETATM    5  N   UNL     1      41.430  -9.055   5.384  1.00  0.00    -0.277 N 
HETATM    6  H   UNL     1      41.343  -8.207   4.834  1.00  0.00     0.189 HD
HETATM    7  N   UNL     1      41.766  -8.943   6.680  1.00  0.00    -0.168 NA
HETATM    8  C   UNL     1      41.799 -10.223   7.117  1.00  0.00     0.156 A 
HETATM    9  C   UNL     1      40.881 -10.860   3.714  1.00  0.00     0.034 A 
HETATM   10  C   UNL     1      40.768 -12.254   3.609  1.00  0.00     0.032 A 
ENDROOT
BRANCH   1  11
HETATM   11  N   UNL     1      40.917 -14.501   4.644  1.00  0.00    -0.326 N 
HETATM   12  C   UNL     1      41.909 -15.410   4.287  1.00  0.00     0.240 C 
HETATM   13  O   UNL     1      43.048 -15.110   3.936  1.00  0.00    -0.272 OA
HETATM   14  H   UNL     1      40.054 -14.907   4.991  1.00  0.00     0.169 HD
BRANCH  12  15
HETATM   15  C   UNL     1      41.412 -16.877   4.344  1.00  0.00     0.172 C 
HETATM   16  C   UNL     1      42.414 -17.876   3.783  1.00  0.00    -0.029 A 
HETATM   17  C   UNL     1      43.295 -18.635   4.582  1.00  0.00    -0.050 A 
HETATM   18  C   UNL     1      42.491 -18.007   2.381  1.00  0.00     0.009 A 
HETATM   19  C   UNL     1      44.205 -19.510   3.961  1.00  0.00     0.007 A 
HETATM   20  C   UNL     1      43.269 -18.620   6.095  1.00  0.00     0.049 C 
HETATM   21  C   UNL     1      44.262 -19.626   2.574  1.00  0.00     0.001 A 
HETATM   22  C   UNL     1      43.405 -18.874   1.782  1.00  0.00     0.001 A 
HETATM   23  C   UNL     1      42.549 -17.447   6.746  1.00  0.00     0.080 C 
HETATM   24  S   UNL     1      40.883 -17.271   6.056  1.00  0.00    -0.149 SA
ENDBRANCH  12  15
ENDBRANCH   1  11
BRANCH   8  25
HETATM   25  C   UNL     1      42.130 -10.550   8.510  1.00  0.00     0.270 C 
HETATM   26  N   UNL     1      41.059 -10.964   9.256  1.00  0.00    -0.365 N 
HETATM   27  H   UNL     1      40.150 -11.017   8.811  1.00  0.00     0.159 HD
HETATM   28  H   UNL     1      41.188 -11.216  10.222  1.00  0.00     0.159 HD
HETATM   29  O   UNL     1      43.255 -10.473   8.993  1.00  0.00    -0.266 OA
ENDBRANCH   8  25
TORSDOF 3
ENDMDL
MODEL 8
REMARK VINA RESULT:      -7.9      4.436      8.305
REMARK  3 active torsions:
REMARK  status: ('A' for Active; 'I' for Inactive)
REMARK    1  A    between atoms: C_5  and  C_6 
REMARK       I    between atoms: C_6  and  N_7 
REMARK    2  A    between atoms: N_7  and  C_8 
REMARK    3  A    between atoms: C_15  and  C_16 
REMARK       I    between atoms: C_16  and  N_17 
ROOT
HETATM    1  C   UNL     1      41.867 -17.533   3.109  1.00  0.00     0.035 A 
HETATM    2  C   UNL     1      42.409 -17.985   4.324  1.00  0.00     0.046 A 
HETATM    3  C   UNL     1      43.420 -18.968   4.319  1.00  0.00     0.030 A 
HETATM    4  C   UNL     1      43.858 -19.469   3.101  1.00  0.00     0.063 A 
HETATM    5  N   UNL     1      44.819 -20.390   3.412  1.00  0.00    -0.277 N 
HETATM    6  H   UNL     1      45.354 -20.959   2.766  1.00  0.00     0.189 HD
HETATM    7  N   UNL     1      45.051 -20.529   4.729  1.00  0.00    -0.168 NA
HETATM    8  C   UNL     1      44.193 -19.654   5.301  1.00  0.00     0.156 A 
HETATM    9  C   UNL     1      43.346 -19.041   1.876  1.00  0.00     0.034 A 
HETATM   10  C   UNL     1      42.344 -18.060   1.906  1.00  0.00     0.032 A 
ENDROOT
BRANCH   1  11
HETATM   11  N   UNL     1      40.855 -16.555   3.193  1.00  0.00    -0.326 N 
HETATM   12  C   UNL     1      41.002 -15.174   3.288  1.00  0.00     0.240 C 
HETATM   13  O   UNL     1      42.077 -14.581   3.336  1.00  0.00    -0.272 OA
HETATM   14  H   UNL     1      39.903 -16.888   3.079  1.00  0.00     0.169 HD
BRANCH  12  15
HETATM   15  C   UNL     1      39.639 -14.440   3.367  1.00  0.00     0.172 C 
HETATM   16  C   UNL     1      39.669 -13.209   4.262  1.00  0.00    -0.029 A 
HETATM   17  C   UNL     1      39.820 -11.892   3.778  1.00  0.00    -0.050 A 
HETATM   18  C   UNL     1      39.585 -13.412   5.655  1.00  0.00     0.009 A 
HETATM   19  C   UNL     1      39.864 -10.824   4.693  1.00  0.00     0.007 A 
HETATM   20  C   UNL     1      39.865 -11.546   2.305  1.00  0.00     0.049 C 
HETATM   21  C   UNL     1      39.778 -11.047   6.066  1.00  0.00     0.001 A 
HETATM   22  C   UNL     1      39.639 -12.341   6.548  1.00  0.00     0.001 A 
HETATM   23  C   UNL     1      40.164 -12.694   1.351  1.00  0.00     0.080 C 
HETATM   24  S   UNL     1      39.044 -14.083   1.668  1.00  0.00    -0.149 SA
ENDBRANCH  12  15
ENDBRANCH   1  11
BRANCH   8  25
HETATM   25  C   UNL     1      44.128 -19.486   6.759  1.00  0.00     0.270 C 
HETATM   26  N   UNL     1      44.659 -18.308   7.211  1.00  0.00    -0.365 N 
HETATM   27  H   UNL     1      45.042 -17.658   6.534  1.00  0.00     0.159 HD
HETATM   28  H   UNL     1      44.655 -18.100   8.196  1.00  0.00     0.159 HD
HETATM   29  O   UNL     1      43.644 -20.307   7.531  1.00  0.00    -0.266 OA
ENDBRANCH   8  25
TORSDOF 3
ENDMDL
MODEL 9
REMARK VINA RESULT:      -7.8      3.794      8.415
REMARK  3 active torsions:
REMARK  status: ('A' for Active; 'I' for Inactive)
REMARK    1  A    between atoms: C_5  and  C_6 
REMARK       I    between atoms: C_6  and  N_7 
REMARK    2  A    between atoms: N_7  and  C_8 
REMARK    3  A    between atoms: C_15  and  C_16 
REMARK       I    between atoms: C_16  and  N_17 
ROOT
HETATM    1  C   UNL     1      43.907 -17.697   4.296  1.00  0.00     0.035 A 
HETATM    2  C   UNL     1      43.942 -18.838   3.477  1.00  0.00     0.046 A 
HETATM    3  C   UNL     1      44.243 -20.096   4.039  1.00  0.00     0.030 A 
HETATM    4  C   UNL     1      44.500 -20.175   5.400  1.00  0.00     0.063 A 
HETATM    5  N   UNL     1      44.759 -21.495   5.644  1.00  0.00    -0.277 N 
HETATM    6  H   UNL     1      44.991 -21.919   6.536  1.00  0.00     0.189 HD
HETATM    7  N   UNL     1      44.686 -22.286   4.561  1.00  0.00    -0.168 NA
HETATM    8  C   UNL     1      44.367 -21.433   3.560  1.00  0.00     0.156 A 
HETATM    9  C   UNL     1      44.470 -19.064   6.244  1.00  0.00     0.034 A 
HETATM   10  C   UNL     1      44.165 -17.824   5.664  1.00  0.00     0.032 A 
ENDROOT
BRANCH   1  11
HETATM   11  N   UNL     1      43.607 -16.473   3.663  1.00  0.00    -0.326 N 
HETATM   12  C   UNL     1      42.367 -16.015   3.224  1.00  0.00     0.240 C 
HETATM   13  O   UNL     1      41.314 -16.642   3.308  1.00  0.00    -0.272 OA
HETATM   14  H   UNL     1      44.369 -15.805   3.600  1.00  0.00     0.169 HD
BRANCH  12  15
HETATM   15  C   UNL     1      42.455 -14.613   2.569  1.00  0.00     0.172 C 
HETATM   16  C   UNL     1      41.413 -14.390   1.482  1.00  0.00    -0.029 A 
HETATM   17  C   UNL     1      40.199 -13.702   1.691  1.00  0.00    -0.050 A 
HETATM   18  C   UNL     1      41.665 -14.947   0.211  1.00  0.00     0.009 A 
HETATM   19  C   UNL     1      39.289 -13.575   0.626  1.00  0.00     0.007 A 
HETATM   20  C   UNL     1      39.843 -13.016   2.992  1.00  0.00     0.049 C 
HETATM   21  C   UNL     1      39.558 -14.131  -0.624  1.00  0.00     0.001 A 
HETATM   22  C   UNL     1      40.747 -14.818  -0.832  1.00  0.00     0.001 A 
HETATM   23  C   UNL     1      40.642 -13.438   4.218  1.00  0.00     0.080 C 
HETATM   24  S   UNL     1      42.419 -13.329   3.879  1.00  0.00    -0.149 SA
ENDBRANCH  12  15
ENDBRANCH   1  11
BRANCH   8  25
HETATM   25  C   UNL     1      44.184 -21.903   2.180  1.00  0.00     0.270 C 
HETATM   26  N   UNL     1      42.976 -21.570   1.632  1.00  0.00    -0.365 N 
HETATM   27  H   UNL     1      42.318 -21.040   2.193  1.00  0.00     0.159 HD
HETATM   28  H   UNL     1      42.760 -21.844   0.687  1.00  0.00     0.159 HD
HETATM   29  O   UNL     1      45.021 -22.538   1.547  1.00  0.00    -0.266 OA
ENDBRANCH   8  25
TORSDOF 3
ENDMDL
MODEL 10
REMARK VINA RESULT:      -7.8      3.126      8.042
REMARK  3 active torsions:
REMARK  status: ('A' for Active; 'I' for Inactive)
REMARK    1  A    between atoms: C_5  and  C_6 
REMARK       I    between atoms: C_6  and  N_7 
REMARK    2  A    between atoms: N_7  and  C_8 
REMARK    3  A    between atoms: C_15  and  C_16 
REMARK       I    between atoms: C_16  and  N_17 
ROOT
HETATM    1  C   UNL     1      43.088 -16.108   2.706  1.00  0.00     0.035 A 
HETATM    2  C   UNL     1      43.372 -17.465   2.478  1.00  0.00     0.046 A 
HETATM    3  C   UNL     1      43.697 -18.305   3.563  1.00  0.00     0.030 A 
HETATM    4  C   UNL     1      43.730 -17.764   4.840  1.00  0.00     0.063 A 
HETATM    5  N   UNL     1      44.073 -18.800   5.664  1.00  0.00    -0.277 N 
HETATM    6  H   UNL     1      44.195 -18.768   6.670  1.00  0.00     0.189 HD
HETATM    7  N   UNL     1      44.261 -19.972   5.035  1.00  0.00    -0.168 NA
HETATM    8  C   UNL     1      44.031 -19.681   3.734  1.00  0.00     0.156 A 
HETATM    9  C   UNL     1      43.450 -16.423   5.104  1.00  0.00     0.034 A 
HETATM   10  C   UNL     1      43.125 -15.607   4.010  1.00  0.00     0.032 A 
ENDROOT
BRANCH   1  11
HETATM   11  N   UNL     1      42.779 -15.327   1.572  1.00  0.00    -0.326 N 
HETATM   12  C   UNL     1      41.607 -15.334   0.821  1.00  0.00     0.240 C 
HETATM   13  O   UNL     1      40.640 -16.062   1.028  1.00  0.00    -0.272 OA
HETATM   14  H   UNL     1      43.454 -14.610   1.327  1.00  0.00     0.169 HD
BRANCH  12  15
HETATM   15  C   UNL     1      41.658 -14.329  -0.359  1.00  0.00     0.172 C 
HETATM   16  C   UNL     1      40.625 -14.615  -1.440  1.00  0.00    -0.029 A 
HETATM   17  C   UNL     1      39.387 -13.947  -1.536  1.00  0.00    -0.050 A 
HETATM   18  C   UNL     1      40.914 -15.641  -2.364  1.00  0.00     0.009 A 
HETATM   19  C   UNL     1      38.488 -14.307  -2.557  1.00  0.00     0.007 A 
HETATM   20  C   UNL     1      38.990 -12.795  -0.638  1.00  0.00     0.049 C 
HETATM   21  C   UNL     1      38.794 -15.322  -3.462  1.00  0.00     0.001 A 
HETATM   22  C   UNL     1      40.007 -15.991  -3.365  1.00  0.00     0.001 A 
HETATM   23  C   UNL     1      39.784 -12.641   0.652  1.00  0.00     0.080 C 
HETATM   24  S   UNL     1      41.561 -12.619   0.298  1.00  0.00    -0.149 SA
ENDBRANCH  12  15
ENDBRANCH   1  11
BRANCH   8  25
HETATM   25  C   UNL     1      44.128 -20.708   2.688  1.00  0.00     0.270 C 
HETATM   26  N   UNL     1      44.578 -21.920   3.137  1.00  0.00    -0.365 N 
HETATM   27  H   UNL     1      44.800 -22.022   4.120  1.00  0.00     0.159 HD
HETATM   28  H   UNL     1      44.674 -22.690   2.494  1.00  0.00     0.159 HD
HETATM   29  O   UNL     1      43.838 -20.529   1.510  1.00  0.00    -0.266 OA
ENDBRANCH   8  25
TORSDOF 3
ENDMDL
