MODEL 1
REMARK VINA RESULT:      -8.7      0.000      0.000
REMARK  6 active torsions:
REMARK  status: ('A' for Active; 'I' for Inactive)
REMARK    1  A    between atoms: C_10  and  C_11 
REMARK       I    between atoms: C_11  and  N_12 
REMARK    2  A    between atoms: N_12  and  C_13 
REMARK    3  A    between atoms: C_13  and  C_14 
REMARK    4  A    between atoms: C_14  and  N_15 
REMARK    5  A    between atoms: C_14  and  C_19 
REMARK    6  A    between atoms: C_20  and  O_21 
ROOT
HETATM    1  C   UNL     1      44.761 -12.936   8.085  1.00  0.00     0.276 C 
HETATM    2  N   UNL     1      43.903 -13.938   7.652  1.00  0.00    -0.353 N 
HETATM    3  O   UNL     1      45.934 -12.917   7.722  1.00  0.00    -0.265 OA
HETATM    4  H   UNL     1      43.043 -14.028   8.190  1.00  0.00     0.162 HD
ENDROOT
BRANCH   2   5
HETATM    5  C   UNL     1      44.449 -15.084   6.930  1.00  0.00     0.161 C 
BRANCH   5   6
HETATM    6  C   UNL     1      43.448 -15.632   5.861  1.00  0.00     0.240 C 
BRANCH   6   7
HETATM    7  N   UNL     1      42.012 -15.481   6.416  1.00  0.00    -0.069 N 
HETATM    8  H   UNL     1      42.163 -15.077   7.351  1.00  0.00     0.279 HD
HETATM    9  C   UNL     1      41.212 -14.466   5.650  1.00  0.00     0.270 C 
HETATM   10  C   UNL     1      41.246 -16.754   6.598  1.00  0.00     0.270 C 
ENDBRANCH   6   7
BRANCH   6  11
HETATM   11  C   UNL     1      43.784 -17.007   5.313  1.00  0.00     0.007 A 
HETATM   12  C   UNL     1      43.369 -17.362   4.010  1.00  0.00     0.076 A 
HETATM   13  C   UNL     1      43.662 -18.628   3.494  1.00  0.00     0.037 A 
HETATM   14  C   UNL     1      44.390 -19.542   4.252  1.00  0.00     0.003 A 
HETATM   15  C   UNL     1      44.817 -19.202   5.530  1.00  0.00     0.001 A 
HETATM   16  C   UNL     1      44.516 -17.947   6.060  1.00  0.00     0.012 A 
BRANCH  12  17
HETATM   17  O   UNL     1      42.629 -16.432   3.326  1.00  0.00    -0.355 OA
HETATM   18  C   UNL     1      41.387 -16.897   2.796  1.00  0.00     0.210 C 
ENDBRANCH  12  17
ENDBRANCH   6  11
ENDBRANCH   5   6
ENDBRANCH   2   5
BRANCH   1  19
HETATM   19  C   UNL     1      44.151 -11.950   8.945  1.00  0.00     0.150 A 
HETATM   20  O   UNL     1      44.675 -11.772  10.199  1.00  0.00    -0.304 OA
HETATM   21  C   UNL     1      43.879 -10.874  10.842  1.00  0.00     0.087 A 
HETATM   22  C   UNL     1      44.036 -10.454  12.159  1.00  0.00     0.045 A 
HETATM   23  C   UNL     1      42.868 -10.436  10.000  1.00  0.00     0.007 A 
HETATM   24  C   UNL     1      43.104  -9.523  12.657  1.00  0.00    -0.053 A 
HETATM   25  C   UNL     1      42.055  -9.053  11.835  1.00  0.00    -0.055 A 
HETATM   26  C   UNL     1      43.227  -9.080  14.092  1.00  0.00     0.049 C 
HETATM   27  C   UNL     1      41.052  -8.049  12.340  1.00  0.00     0.049 C 
HETATM   28  C   UNL     1      41.946  -9.499  10.500  1.00  0.00     0.022 A 
HETATM   29  C   UNL     1      43.052 -11.124   8.762  1.00  0.00    -0.009 A 
HETATM   30  C   UNL     1      42.220 -10.993   7.538  1.00  0.00     0.052 C 
ENDBRANCH   1  19
TORSDOF 6
ENDMDL
MODEL 2
REMARK VINA RESULT:      -8.7      6.662     10.609
REMARK  6 active torsions:
REMARK  status: ('A' for Active; 'I' for Inactive)
REMARK    1  A    between atoms: C_10  and  C_11 
REMARK       I    between atoms: C_11  and  N_12 
REMARK    2  A    between atoms: N_12  and  C_13 
REMARK    3  A    between atoms: C_13  and  C_14 
REMARK    4  A    between atoms: C_14  and  N_15 
REMARK    5  A    between atoms: C_14  and  C_19 
REMARK    6  A    between atoms: C_20  and  O_21 
ROOT
HETATM    1  C   UNL     1      41.269 -15.870   1.582  1.00  0.00     0.276 C 
HETATM    2  N   UNL     1      41.805 -15.236   0.468  1.00  0.00    -0.353 N 
HETATM    3  O   UNL     1      40.167 -15.547   2.016  1.00  0.00    -0.265 OA
HETATM    4  H   UNL     1      42.805 -15.377   0.335  1.00  0.00     0.162 HD
ENDROOT
BRANCH   2   5
HETATM    5  C   UNL     1      41.148 -14.044  -0.061  1.00  0.00     0.161 C 
BRANCH   5   6
HETATM    6  C   UNL     1      41.349 -13.902  -1.604  1.00  0.00     0.240 C 
BRANCH   6   7
HETATM    7  N   UNL     1      41.700 -12.428  -1.916  1.00  0.00    -0.069 N 
HETATM    8  H   UNL     1      40.777 -11.974  -1.974  1.00  0.00     0.279 HD
HETATM    9  C   UNL     1      42.417 -11.762  -0.776  1.00  0.00     0.270 C 
HETATM   10  C   UNL     1      42.400 -12.186  -3.216  1.00  0.00     0.270 C 
ENDBRANCH   6   7
BRANCH   6  11
HETATM   11  C   UNL     1      40.238 -14.492  -2.453  1.00  0.00     0.007 A 
HETATM   12  C   UNL     1      39.023 -13.787  -2.606  1.00  0.00     0.076 A 
HETATM   13  C   UNL     1      37.986 -14.321  -3.377  1.00  0.00     0.037 A 
HETATM   14  C   UNL     1      38.153 -15.543  -4.024  1.00  0.00     0.003 A 
HETATM   15  C   UNL     1      39.348 -16.242  -3.895  1.00  0.00     0.001 A 
HETATM   16  C   UNL     1      40.382 -15.725  -3.115  1.00  0.00     0.012 A 
BRANCH  12  17
HETATM   17  O   UNL     1      38.908 -12.606  -1.918  1.00  0.00    -0.355 OA
HETATM   18  C   UNL     1      37.822 -12.531  -0.993  1.00  0.00     0.210 C 
ENDBRANCH  12  17
ENDBRANCH   6  11
ENDBRANCH   5   6
ENDBRANCH   2   5
BRANCH   1  19
HETATM   19  C   UNL     1      42.093 -16.919   2.133  1.00  0.00     0.150 A 
HETATM   20  O   UNL     1      42.337 -18.025   1.362  1.00  0.00    -0.304 OA
HETATM   21  C   UNL     1      43.045 -18.900   2.128  1.00  0.00     0.087 A 
HETATM   22  C   UNL     1      43.452 -20.171   1.734  1.00  0.00     0.045 A 
HETATM   23  C   UNL     1      43.300 -18.351   3.375  1.00  0.00     0.007 A 
HETATM   24  C   UNL     1      44.170 -20.939   2.671  1.00  0.00    -0.053 A 
HETATM   25  C   UNL     1      44.448 -20.421   3.956  1.00  0.00    -0.055 A 
HETATM   26  C   UNL     1      44.590 -22.334   2.286  1.00  0.00     0.049 C 
HETATM   27  C   UNL     1      45.223 -21.219   4.972  1.00  0.00     0.049 C 
HETATM   28  C   UNL     1      44.025 -19.120   4.303  1.00  0.00     0.022 A 
HETATM   29  C   UNL     1      42.694 -17.058   3.376  1.00  0.00    -0.009 A 
HETATM   30  C   UNL     1      42.693 -16.075   4.490  1.00  0.00     0.052 C 
ENDBRANCH   1  19
TORSDOF 6
ENDMDL
MODEL 3
REMARK VINA RESULT:      -8.5      6.037      9.866
REMARK  6 active torsions:
REMARK  status: ('A' for Active; 'I' for Inactive)
REMARK    1  A    between atoms: C_10  and  C_11 
REMARK       I    between atoms: C_11  and  N_12 
REMARK    2  A    between atoms: N_12  and  C_13 
REMARK    3  A    between atoms: C_13  and  C_14 
REMARK    4  A    between atoms: C_14  and  N_15 
REMARK    5  A    between atoms: C_14  and  C_19 
REMARK    6  A    between atoms: C_20  and  O_21 
ROOT
HETATM    1  C   UNL     1      39.715 -14.845   2.620  1.00  0.00     0.276 C 
HETATM    2  N   UNL     1      38.915 -15.205   1.543  1.00  0.00    -0.353 N 
HETATM    3  O   UNL     1      39.530 -13.783   3.208  1.00  0.00    -0.265 OA
HETATM    4  H   UNL     1      39.289 -15.954   0.963  1.00  0.00     0.162 HD
ENDROOT
BRANCH   2   5
HETATM    5  C   UNL     1      37.989 -14.226   0.981  1.00  0.00     0.161 C 
BRANCH   5   6
HETATM    6  C   UNL     1      38.655 -13.373  -0.147  1.00  0.00     0.240 C 
BRANCH   6   7
HETATM    7  N   UNL     1      37.851 -12.060  -0.302  1.00  0.00    -0.069 N 
HETATM    8  H   UNL     1      37.145 -12.299  -1.012  1.00  0.00     0.279 HD
HETATM    9  C   UNL     1      37.086 -11.712   0.943  1.00  0.00     0.270 C 
HETATM   10  C   UNL     1      38.620 -10.883  -0.815  1.00  0.00     0.270 C 
ENDBRANCH   6   7
BRANCH   6  11
HETATM   11  C   UNL     1      38.925 -14.118  -1.441  1.00  0.00     0.007 A 
HETATM   12  C   UNL     1      40.210 -14.649  -1.689  1.00  0.00     0.076 A 
HETATM   13  C   UNL     1      40.478 -15.330  -2.880  1.00  0.00     0.037 A 
HETATM   14  C   UNL     1      39.470 -15.513  -3.823  1.00  0.00     0.003 A 
HETATM   15  C   UNL     1      38.196 -15.009  -3.588  1.00  0.00     0.001 A 
HETATM   16  C   UNL     1      37.923 -14.314  -2.409  1.00  0.00     0.012 A 
BRANCH  12  17
HETATM   17  O   UNL     1      41.168 -14.408  -0.737  1.00  0.00    -0.355 OA
HETATM   18  C   UNL     1      42.027 -13.295  -0.990  1.00  0.00     0.210 C 
ENDBRANCH  12  17
ENDBRANCH   6  11
ENDBRANCH   5   6
ENDBRANCH   2   5
BRANCH   1  19
HETATM   19  C   UNL     1      40.720 -15.817   2.976  1.00  0.00     0.150 A 
HETATM   20  O   UNL     1      41.151 -16.688   2.009  1.00  0.00    -0.304 OA
HETATM   21  C   UNL     1      42.013 -17.555   2.606  1.00  0.00     0.087 A 
HETATM   22  C   UNL     1      42.639 -18.630   1.981  1.00  0.00     0.045 A 
HETATM   23  C   UNL     1      42.179 -17.227   3.942  1.00  0.00     0.007 A 
HETATM   24  C   UNL     1      43.494 -19.427   2.766  1.00  0.00    -0.053 A 
HETATM   25  C   UNL     1      43.688 -19.132   4.134  1.00  0.00    -0.055 A 
HETATM   26  C   UNL     1      44.154 -20.621   2.126  1.00  0.00     0.049 C 
HETATM   27  C   UNL     1      44.606 -19.962   4.993  1.00  0.00     0.049 C 
HETATM   28  C   UNL     1      43.042 -18.022   4.719  1.00  0.00     0.022 A 
HETATM   29  C   UNL     1      41.351 -16.089   4.181  1.00  0.00    -0.009 A 
HETATM   30  C   UNL     1      41.184 -15.362   5.466  1.00  0.00     0.052 C 
ENDBRANCH   1  19
TORSDOF 6
ENDMDL
MODEL 4
REMARK VINA RESULT:      -8.4      5.226      9.059
REMARK  6 active torsions:
REMARK  status: ('A' for Active; 'I' for Inactive)
REMARK    1  A    between atoms: C_10  and  C_11 
REMARK       I    between atoms: C_11  and  N_12 
REMARK    2  A    between atoms: N_12  and  C_13 
REMARK    3  A    between atoms: C_13  and  C_14 
REMARK    4  A    between atoms: C_14  and  N_15 
REMARK    5  A    between atoms: C_14  and  C_19 
REMARK    6  A    between atoms: C_20  and  O_21 
ROOT
HETATM    1  C   UNL     1      43.236 -15.193   4.467  1.00  0.00     0.276 C 
HETATM    2  N   UNL     1      42.848 -14.616   3.265  1.00  0.00    -0.353 N 
HETATM    3  O   UNL     1      43.217 -14.542   5.509  1.00  0.00    -0.265 OA
HETATM    4  H   UNL     1      43.134 -15.127   2.433  1.00  0.00     0.162 HD
ENDROOT
BRANCH   2   5
HETATM    5  C   UNL     1      42.615 -13.175   3.206  1.00  0.00     0.161 C 
BRANCH   5   6
HETATM    6  C   UNL     1      41.399 -12.817   2.292  1.00  0.00     0.240 C 
BRANCH   6   7
HETATM    7  N   UNL     1      40.103 -12.965   3.126  1.00  0.00    -0.069 N 
HETATM    8  H   UNL     1      39.916 -13.976   3.091  1.00  0.00     0.279 HD
HETATM    9  C   UNL     1      40.320 -12.632   4.575  1.00  0.00     0.270 C 
HETATM   10  C   UNL     1      38.896 -12.267   2.582  1.00  0.00     0.270 C 
ENDBRANCH   6   7
BRANCH   6  11
HETATM   11  C   UNL     1      41.379 -13.517   0.946  1.00  0.00     0.007 A 
HETATM   12  C   UNL     1      40.871 -14.831   0.846  1.00  0.00     0.076 A 
HETATM   13  C   UNL     1      40.855 -15.493  -0.385  1.00  0.00     0.037 A 
HETATM   14  C   UNL     1      41.317 -14.851  -1.532  1.00  0.00     0.003 A 
HETATM   15  C   UNL     1      41.807 -13.552  -1.452  1.00  0.00     0.001 A 
HETATM   16  C   UNL     1      41.842 -12.889  -0.225  1.00  0.00     0.012 A 
BRANCH  12  17
HETATM   17  O   UNL     1      40.461 -15.421   2.014  1.00  0.00    -0.355 OA
HETATM   18  C   UNL     1      40.359 -16.846   1.986  1.00  0.00     0.210 C 
ENDBRANCH  12  17
ENDBRANCH   6  11
ENDBRANCH   5   6
ENDBRANCH   2   5
BRANCH   1  19
HETATM   19  C   UNL     1      43.621 -16.581   4.373  1.00  0.00     0.150 A 
HETATM   20  O   UNL     1      43.563 -17.188   3.146  1.00  0.00    -0.304 OA
HETATM   21  C   UNL     1      43.874 -18.500   3.333  1.00  0.00     0.087 A 
HETATM   22  C   UNL     1      43.882 -19.476   2.341  1.00  0.00     0.045 A 
HETATM   23  C   UNL     1      44.175 -18.739   4.664  1.00  0.00     0.007 A 
HETATM   24  C   UNL     1      44.221 -20.787   2.727  1.00  0.00    -0.053 A 
HETATM   25  C   UNL     1      44.531 -21.077   4.075  1.00  0.00    -0.055 A 
HETATM   26  C   UNL     1      44.200 -21.873   1.682  1.00  0.00     0.049 C 
HETATM   27  C   UNL     1      44.907 -22.469   4.511  1.00  0.00     0.049 C 
HETATM   28  C   UNL     1      44.522 -20.049   5.041  1.00  0.00     0.022 A 
HETATM   29  C   UNL     1      44.025 -17.490   5.340  1.00  0.00    -0.009 A 
HETATM   30  C   UNL     1      44.238 -17.228   6.787  1.00  0.00     0.052 C 
ENDBRANCH   1  19
TORSDOF 6
ENDMDL
MODEL 5
REMARK VINA RESULT:      -8.3      6.139     10.017
REMARK  6 active torsions:
REMARK  status: ('A' for Active; 'I' for Inactive)
REMARK    1  A    between atoms: C_10  and  C_11 
REMARK       I    between atoms: C_11  and  N_12 
REMARK    2  A    between atoms: N_12  and  C_13 
REMARK    3  A    between atoms: C_13  and  C_14 
REMARK    4  A    between atoms: C_14  and  N_15 
REMARK    5  A    between atoms: C_14  and  C_19 
REMARK    6  A    between atoms: C_20  and  O_21 
ROOT
HETATM    1  C   UNL     1      40.975 -15.635   2.943  1.00  0.00     0.276 C 
HETATM    2  N   UNL     1      40.089 -15.816   1.889  1.00  0.00    -0.353 N 
HETATM    3  O   UNL     1      40.968 -14.594   3.595  1.00  0.00    -0.265 OA
HETATM    4  H   UNL     1      40.329 -16.575   1.253  1.00  0.00     0.162 HD
ENDROOT
BRANCH   2   5
HETATM    5  C   UNL     1      39.290 -14.685   1.425  1.00  0.00     0.161 C 
BRANCH   5   6
HETATM    6  C   UNL     1      40.045 -13.839   0.350  1.00  0.00     0.240 C 
BRANCH   6   7
HETATM    7  N   UNL     1      39.651 -12.354   0.535  1.00  0.00    -0.069 N 
HETATM    8  H   UNL     1      38.928 -12.211  -0.184  1.00  0.00     0.279 HD
HETATM    9  C   UNL     1      38.978 -12.106   1.855  1.00  0.00     0.270 C 
HETATM   10  C   UNL     1      40.737 -11.356   0.281  1.00  0.00     0.270 C 
ENDBRANCH   6   7
BRANCH   6  11
HETATM   11  C   UNL     1      39.935 -14.360  -1.071  1.00  0.00     0.007 A 
HETATM   12  C   UNL     1      38.808 -14.027  -1.855  1.00  0.00     0.076 A 
HETATM   13  C   UNL     1      38.687 -14.507  -3.163  1.00  0.00     0.037 A 
HETATM   14  C   UNL     1      39.692 -15.298  -3.713  1.00  0.00     0.003 A 
HETATM   15  C   UNL     1      40.814 -15.623  -2.960  1.00  0.00     0.001 A 
HETATM   16  C   UNL     1      40.936 -15.162  -1.648  1.00  0.00     0.012 A 
BRANCH  12  17
HETATM   17  O   UNL     1      37.838 -13.272  -1.246  1.00  0.00    -0.355 OA
HETATM   18  C   UNL     1      37.285 -12.219  -2.038  1.00  0.00     0.210 C 
ENDBRANCH  12  17
ENDBRANCH   6  11
ENDBRANCH   5   6
ENDBRANCH   2   5
BRANCH   1  19
HETATM   19  C   UNL     1      41.846 -16.757   3.198  1.00  0.00     0.150 A 
HETATM   20  O   UNL     1      42.115 -17.617   2.164  1.00  0.00    -0.304 OA
HETATM   21  C   UNL     1      42.867 -18.631   2.673  1.00  0.00     0.087 A 
HETATM   22  C   UNL     1      43.313 -19.740   1.960  1.00  0.00     0.045 A 
HETATM   23  C   UNL     1      43.124 -18.414   4.018  1.00  0.00     0.007 A 
HETATM   24  C   UNL     1      44.074 -20.696   2.660  1.00  0.00    -0.053 A 
HETATM   25  C   UNL     1      44.356 -20.517   4.033  1.00  0.00    -0.055 A 
HETATM   26  C   UNL     1      44.538 -21.926   1.924  1.00  0.00     0.049 C 
HETATM   27  C   UNL     1      45.177 -21.520   4.802  1.00  0.00     0.049 C 
HETATM   28  C   UNL     1      43.893 -19.368   4.709  1.00  0.00     0.022 A 
HETATM   29  C   UNL     1      42.473 -17.190   4.358  1.00  0.00    -0.009 A 
HETATM   30  C   UNL     1      42.455 -16.530   5.688  1.00  0.00     0.052 C 
ENDBRANCH   1  19
TORSDOF 6
ENDMDL
MODEL 6
REMARK VINA RESULT:      -8.3      5.681      9.786
REMARK  6 active torsions:
REMARK  status: ('A' for Active; 'I' for Inactive)
REMARK    1  A    between atoms: C_10  and  C_11 
REMARK       I    between atoms: C_11  and  N_12 
REMARK    2  A    between atoms: N_12  and  C_13 
REMARK    3  A    between atoms: C_13  and  C_14 
REMARK    4  A    between atoms: C_14  and  N_15 
REMARK    5  A    between atoms: C_14  and  C_19 
REMARK    6  A    between atoms: C_20  and  O_21 
ROOT
HETATM    1  C   UNL     1      42.849 -14.716   3.177  1.00  0.00     0.276 C 
HETATM    2  N   UNL     1      41.468 -14.573   3.118  1.00  0.00    -0.353 N 
HETATM    3  O   UNL     1      43.584 -13.741   3.040  1.00  0.00    -0.265 OA
HETATM    4  H   UNL     1      40.954 -15.442   2.982  1.00  0.00     0.162 HD
ENDROOT
BRANCH   2   5
HETATM    5  C   UNL     1      40.899 -13.300   2.687  1.00  0.00     0.161 C 
BRANCH   5   6
HETATM    6  C   UNL     1      40.028 -13.455   1.399  1.00  0.00     0.240 C 
BRANCH   6   7
HETATM    7  N   UNL     1      40.955 -13.334   0.166  1.00  0.00    -0.069 N 
HETATM    8  H   UNL     1      40.323 -12.994  -0.571  1.00  0.00     0.279 HD
HETATM    9  C   UNL     1      41.997 -12.266   0.344  1.00  0.00     0.270 C 
HETATM   10  C   UNL     1      41.564 -14.612  -0.319  1.00  0.00     0.270 C 
ENDBRANCH   6   7
BRANCH   6  11
HETATM   11  C   UNL     1      38.784 -12.586   1.355  1.00  0.00     0.007 A 
HETATM   12  C   UNL     1      37.749 -12.889   0.442  1.00  0.00     0.076 A 
HETATM   13  C   UNL     1      36.602 -12.093   0.383  1.00  0.00     0.037 A 
HETATM   14  C   UNL     1      36.458 -11.007   1.244  1.00  0.00     0.003 A 
HETATM   15  C   UNL     1      37.461 -10.705   2.158  1.00  0.00     0.001 A 
HETATM   16  C   UNL     1      38.617 -11.484   2.213  1.00  0.00     0.012 A 
BRANCH  12  17
HETATM   17  O   UNL     1      37.964 -13.950  -0.400  1.00  0.00    -0.355 OA
HETATM   18  C   UNL     1      38.008 -13.635  -1.793  1.00  0.00     0.210 C 
ENDBRANCH  12  17
ENDBRANCH   6  11
ENDBRANCH   5   6
ENDBRANCH   2   5
BRANCH   1  19
HETATM   19  C   UNL     1      43.306 -16.061   3.431  1.00  0.00     0.150 A 
HETATM   20  O   UNL     1      43.416 -16.919   2.367  1.00  0.00    -0.304 OA
HETATM   21  C   UNL     1      43.766 -18.135   2.869  1.00  0.00     0.087 A 
HETATM   22  C   UNL     1      43.932 -19.298   2.123  1.00  0.00     0.045 A 
HETATM   23  C   UNL     1      43.925 -18.062   4.244  1.00  0.00     0.007 A 
HETATM   24  C   UNL     1      44.286 -20.469   2.821  1.00  0.00    -0.053 A 
HETATM   25  C   UNL     1      44.454 -20.441   4.224  1.00  0.00    -0.055 A 
HETATM   26  C   UNL     1      44.435 -21.752   2.044  1.00  0.00     0.049 C 
HETATM   27  C   UNL     1      44.843 -21.677   4.991  1.00  0.00     0.049 C 
HETATM   28  C   UNL     1      44.288 -19.233   4.934  1.00  0.00     0.022 A 
HETATM   29  C   UNL     1      43.640 -16.711   4.609  1.00  0.00    -0.009 A 
HETATM   30  C   UNL     1      43.675 -16.131   5.977  1.00  0.00     0.052 C 
ENDBRANCH   1  19
TORSDOF 6
ENDMDL
MODEL 7
REMARK VINA RESULT:      -8.3      4.548      8.907
REMARK  6 active torsions:
REMARK  status: ('A' for Active; 'I' for Inactive)
REMARK    1  A    between atoms: C_10  and  C_11 
REMARK       I    between atoms: C_11  and  N_12 
REMARK    2  A    between atoms: N_12  and  C_13 
REMARK    3  A    between atoms: C_13  and  C_14 
REMARK    4  A    between atoms: C_14  and  N_15 
REMARK    5  A    between atoms: C_14  and  C_19 
REMARK    6  A    between atoms: C_20  and  O_21 
ROOT
HETATM    1  C   UNL     1      43.369 -14.778   3.816  1.00  0.00     0.276 C 
HETATM    2  N   UNL     1      42.371 -14.423   4.714  1.00  0.00    -0.353 N 
HETATM    3  O   UNL     1      44.084 -13.921   3.304  1.00  0.00    -0.265 OA
HETATM    4  H   UNL     1      41.673 -15.144   4.886  1.00  0.00     0.162 HD
ENDROOT
BRANCH   2   5
HETATM    5  C   UNL     1      42.037 -13.012   4.890  1.00  0.00     0.161 C 
BRANCH   5   6
HETATM    6  C   UNL     1      40.757 -12.610   4.089  1.00  0.00     0.240 C 
BRANCH   6   7
HETATM    7  N   UNL     1      39.576 -12.498   5.082  1.00  0.00    -0.069 N 
HETATM    8  H   UNL     1      39.090 -13.398   4.972  1.00  0.00     0.279 HD
HETATM    9  C   UNL     1      40.039 -12.448   6.510  1.00  0.00     0.270 C 
HETATM   10  C   UNL     1      38.584 -11.415   4.794  1.00  0.00     0.270 C 
ENDBRANCH   6   7
BRANCH   6  11
HETATM   11  C   UNL     1      40.482 -13.450   2.855  1.00  0.00     0.007 A 
HETATM   12  C   UNL     1      41.031 -13.070   1.611  1.00  0.00     0.076 A 
HETATM   13  C   UNL     1      40.780 -13.827   0.463  1.00  0.00     0.037 A 
HETATM   14  C   UNL     1      40.004 -14.981   0.543  1.00  0.00     0.003 A 
HETATM   15  C   UNL     1      39.467 -15.377   1.763  1.00  0.00     0.001 A 
HETATM   16  C   UNL     1      39.700 -14.618   2.911  1.00  0.00     0.012 A 
BRANCH  12  17
HETATM   17  O   UNL     1      41.759 -11.907   1.591  1.00  0.00    -0.355 OA
HETATM   18  C   UNL     1      41.794 -11.219   0.340  1.00  0.00     0.210 C 
ENDBRANCH  12  17
ENDBRANCH   6  11
ENDBRANCH   5   6
ENDBRANCH   2   5
BRANCH   1  19
HETATM   19  C   UNL     1      43.490 -16.197   3.579  1.00  0.00     0.150 A 
HETATM   20  O   UNL     1      43.827 -17.004   4.635  1.00  0.00    -0.304 OA
HETATM   21  C   UNL     1      43.973 -18.265   4.144  1.00  0.00     0.087 A 
HETATM   22  C   UNL     1      44.361 -19.378   4.883  1.00  0.00     0.045 A 
HETATM   23  C   UNL     1      43.691 -18.290   2.787  1.00  0.00     0.007 A 
HETATM   24  C   UNL     1      44.469 -20.604   4.198  1.00  0.00    -0.053 A 
HETATM   25  C   UNL     1      44.195 -20.675   2.814  1.00  0.00    -0.055 A 
HETATM   26  C   UNL     1      44.925 -21.819   4.964  1.00  0.00     0.049 C 
HETATM   27  C   UNL     1      44.292 -21.976   2.060  1.00  0.00     0.049 C 
HETATM   28  C   UNL     1      43.791 -19.519   2.111  1.00  0.00     0.022 A 
HETATM   29  C   UNL     1      43.362 -16.950   2.421  1.00  0.00    -0.009 A 
HETATM   30  C   UNL     1      42.984 -16.462   1.070  1.00  0.00     0.052 C 
ENDBRANCH   1  19
TORSDOF 6
ENDMDL
MODEL 8
REMARK VINA RESULT:      -8.2      6.491     10.425
REMARK  6 active torsions:
REMARK  status: ('A' for Active; 'I' for Inactive)
REMARK    1  A    between atoms: C_10  and  C_11 
REMARK       I    between atoms: C_11  and  N_12 
REMARK    2  A    between atoms: N_12  and  C_13 
REMARK    3  A    between atoms: C_13  and  C_14 
REMARK    4  A    between atoms: C_14  and  N_15 
REMARK    5  A    between atoms: C_14  and  C_19 
REMARK    6  A    between atoms: C_20  and  O_21 
ROOT
HETATM    1  C   UNL     1      40.961 -15.793   1.769  1.00  0.00     0.276 C 
HETATM    2  N   UNL     1      41.454 -15.047   0.707  1.00  0.00    -0.353 N 
HETATM    3  O   UNL     1      39.839 -15.574   2.220  1.00  0.00    -0.265 OA
HETATM    4  H   UNL     1      42.461 -15.112   0.569  1.00  0.00     0.162 HD
ENDROOT
BRANCH   2   5
HETATM    5  C   UNL     1      40.720 -13.866   0.261  1.00  0.00     0.161 C 
BRANCH   5   6
HETATM    6  C   UNL     1      41.653 -12.621   0.109  1.00  0.00     0.240 C 
BRANCH   6   7
HETATM    7  N   UNL     1      41.184 -11.536   1.108  1.00  0.00    -0.069 N 
HETATM    8  H   UNL     1      41.856 -10.771   0.956  1.00  0.00     0.279 HD
HETATM    9  C   UNL     1      39.835 -10.980   0.749  1.00  0.00     0.270 C 
HETATM   10  C   UNL     1      41.251 -11.911   2.555  1.00  0.00     0.270 C 
ENDBRANCH   6   7
BRANCH   6  11
HETATM   11  C   UNL     1      41.854 -12.139  -1.315  1.00  0.00     0.007 A 
HETATM   12  C   UNL     1      42.783 -11.110  -1.583  1.00  0.00     0.076 A 
HETATM   13  C   UNL     1      42.973 -10.648  -2.889  1.00  0.00     0.037 A 
HETATM   14  C   UNL     1      42.264 -11.219  -3.943  1.00  0.00     0.003 A 
HETATM   15  C   UNL     1      41.356 -12.243  -3.698  1.00  0.00     0.001 A 
HETATM   16  C   UNL     1      41.148 -12.699  -2.396  1.00  0.00     0.012 A 
BRANCH  12  17
HETATM   17  O   UNL     1      43.426 -10.566  -0.500  1.00  0.00    -0.355 OA
HETATM   18  C   UNL     1      43.437  -9.140  -0.438  1.00  0.00     0.210 C 
ENDBRANCH  12  17
ENDBRANCH   6  11
ENDBRANCH   5   6
ENDBRANCH   2   5
BRANCH   1  19
HETATM   19  C   UNL     1      41.852 -16.822   2.249  1.00  0.00     0.150 A 
HETATM   20  O   UNL     1      42.110 -17.890   1.429  1.00  0.00    -0.304 OA
HETATM   21  C   UNL     1      42.886 -18.757   2.133  1.00  0.00     0.087 A 
HETATM   22  C   UNL     1      43.331 -19.995   1.678  1.00  0.00     0.045 A 
HETATM   23  C   UNL     1      43.170 -18.241   3.388  1.00  0.00     0.007 A 
HETATM   24  C   UNL     1      44.120 -20.763   2.556  1.00  0.00    -0.053 A 
HETATM   25  C   UNL     1      44.430 -20.277   3.847  1.00  0.00    -0.055 A 
HETATM   26  C   UNL     1      44.583 -22.123   2.105  1.00  0.00     0.049 C 
HETATM   27  C   UNL     1      45.281 -21.073   4.801  1.00  0.00     0.049 C 
HETATM   28  C   UNL     1      43.967 -19.008   4.257  1.00  0.00     0.022 A 
HETATM   29  C   UNL     1      42.510 -16.977   3.460  1.00  0.00    -0.009 A 
HETATM   30  C   UNL     1      42.514 -16.034   4.608  1.00  0.00     0.052 C 
ENDBRANCH   1  19
TORSDOF 6
ENDMDL
MODEL 9
REMARK VINA RESULT:      -8.2      6.568      9.840
REMARK  6 active torsions:
REMARK  status: ('A' for Active; 'I' for Inactive)
REMARK    1  A    between atoms: C_10  and  C_11 
REMARK       I    between atoms: C_11  and  N_12 
REMARK    2  A    between atoms: N_12  and  C_13 
REMARK    3  A    between atoms: C_13  and  C_14 
REMARK    4  A    between atoms: C_14  and  N_15 
REMARK    5  A    between atoms: C_14  and  C_19 
REMARK    6  A    between atoms: C_20  and  O_21 
ROOT
HETATM    1  C   UNL     1      42.731 -14.457   2.680  1.00  0.00     0.276 C 
HETATM    2  N   UNL     1      41.461 -14.051   2.292  1.00  0.00    -0.353 N 
HETATM    3  O   UNL     1      43.570 -13.632   3.035  1.00  0.00    -0.265 OA
HETATM    4  H   UNL     1      40.928 -14.749   1.776  1.00  0.00     0.162 HD
ENDROOT
BRANCH   2   5
HETATM    5  C   UNL     1      41.189 -12.628   2.110  1.00  0.00     0.161 C 
BRANCH   5   6
HETATM    6  C   UNL     1      41.309 -12.197   0.613  1.00  0.00     0.240 C 
BRANCH   6   7
HETATM    7  N   UNL     1      41.229 -10.653   0.543  1.00  0.00    -0.069 N 
HETATM    8  H   UNL     1      40.460 -10.488  -0.122  1.00  0.00     0.279 HD
HETATM    9  C   UNL     1      40.788 -10.049   1.845  1.00  0.00     0.270 C 
HETATM   10  C   UNL     1      42.442  -9.961   0.005  1.00  0.00     0.270 C 
ENDBRANCH   6   7
BRANCH   6  11
HETATM   11  C   UNL     1      40.389 -12.932  -0.343  1.00  0.00     0.007 A 
HETATM   12  C   UNL     1      40.921 -13.537  -1.504  1.00  0.00     0.076 A 
HETATM   13  C   UNL     1      40.085 -14.210  -2.399  1.00  0.00     0.037 A 
HETATM   14  C   UNL     1      38.720 -14.313  -2.141  1.00  0.00     0.003 A 
HETATM   15  C   UNL     1      38.183 -13.735  -0.996  1.00  0.00     0.001 A 
HETATM   16  C   UNL     1      39.007 -13.047  -0.104  1.00  0.00     0.012 A 
BRANCH  12  17
HETATM   17  O   UNL     1      42.266 -13.374  -1.719  1.00  0.00    -0.355 OA
HETATM   18  C   UNL     1      42.623 -12.731  -2.943  1.00  0.00     0.210 C 
ENDBRANCH  12  17
ENDBRANCH   6  11
ENDBRANCH   5   6
ENDBRANCH   2   5
BRANCH   1  19
HETATM   19  C   UNL     1      42.945 -15.884   2.647  1.00  0.00     0.150 A 
HETATM   20  O   UNL     1      43.480 -16.484   3.758  1.00  0.00    -0.304 OA
HETATM   21  C   UNL     1      43.673 -17.796   3.449  1.00  0.00     0.087 A 
HETATM   22  C   UNL     1      44.245 -18.746   4.290  1.00  0.00     0.045 A 
HETATM   23  C   UNL     1      43.228 -18.060   2.163  1.00  0.00     0.007 A 
HETATM   24  C   UNL     1      44.374 -20.057   3.792  1.00  0.00    -0.053 A 
HETATM   25  C   UNL     1      43.938 -20.370   2.484  1.00  0.00    -0.055 A 
HETATM   26  C   UNL     1      45.025 -21.098   4.665  1.00  0.00     0.049 C 
HETATM   27  C   UNL     1      44.054 -21.766   1.932  1.00  0.00     0.049 C 
HETATM   28  C   UNL     1      43.351 -19.373   1.675  1.00  0.00     0.022 A 
HETATM   29  C   UNL     1      42.742 -16.822   1.645  1.00  0.00    -0.009 A 
HETATM   30  C   UNL     1      42.158 -16.586   0.300  1.00  0.00     0.052 C 
ENDBRANCH   1  19
TORSDOF 6
ENDMDL
MODEL 10
REMARK VINA RESULT:      -8.1      6.370      9.728
REMARK  6 active torsions:
REMARK  status: ('A' for Active; 'I' for Inactive)
REMARK    1  A    between atoms: C_10  and  C_11 
REMARK       I    between atoms: C_11  and  N_12 
REMARK    2  A    between atoms: N_12  and  C_13 
REMARK    3  A    between atoms: C_13  and  C_14 
REMARK    4  A    between atoms: C_14  and  N_15 
REMARK    5  A    between atoms: C_14  and  C_19 
REMARK    6  A    between atoms: C_20  and  O_21 
ROOT
HETATM    1  C   UNL     1      41.461 -14.966   3.149  1.00  0.00     0.276 C 
HETATM    2  N   UNL     1      42.067 -14.025   2.327  1.00  0.00    -0.353 N 
HETATM    3  O   UNL     1      40.550 -14.641   3.906  1.00  0.00    -0.265 OA
HETATM    4  H   UNL     1      42.962 -14.312   1.935  1.00  0.00     0.162 HD
ENDROOT
BRANCH   2   5
HETATM    5  C   UNL     1      41.759 -12.610   2.511  1.00  0.00     0.161 C 
BRANCH   5   6
HETATM    6  C   UNL     1      40.963 -12.023   1.301  1.00  0.00     0.240 C 
BRANCH   6   7
HETATM    7  N   UNL     1      39.457 -12.032   1.659  1.00  0.00    -0.069 N 
HETATM    8  H   UNL     1      39.192 -13.019   1.530  1.00  0.00     0.279 HD
HETATM    9  C   UNL     1      39.217 -11.724   3.110  1.00  0.00     0.270 C 
HETATM   10  C   UNL     1      38.572 -11.211   0.774  1.00  0.00     0.270 C 
ENDBRANCH   6   7
BRANCH   6  11
HETATM   11  C   UNL     1      41.307 -12.626  -0.048  1.00  0.00     0.007 A 
HETATM   12  C   UNL     1      42.396 -12.116  -0.787  1.00  0.00     0.076 A 
HETATM   13  C   UNL     1      42.721 -12.654  -2.035  1.00  0.00     0.037 A 
HETATM   14  C   UNL     1      41.986 -13.720  -2.550  1.00  0.00     0.003 A 
HETATM   15  C   UNL     1      40.919 -14.243  -1.829  1.00  0.00     0.001 A 
HETATM   16  C   UNL     1      40.578 -13.701  -0.588  1.00  0.00     0.012 A 
BRANCH  12  17
HETATM   17  O   UNL     1      43.060 -11.046  -0.242  1.00  0.00    -0.355 OA
HETATM   18  C   UNL     1      43.558 -10.086  -1.175  1.00  0.00     0.210 C 
ENDBRANCH  12  17
ENDBRANCH   6  11
ENDBRANCH   5   6
ENDBRANCH   2   5
BRANCH   1  19
HETATM   19  C   UNL     1      41.974 -16.308   3.010  1.00  0.00     0.150 A 
HETATM   20  O   UNL     1      42.668 -16.849   4.061  1.00  0.00    -0.304 OA
HETATM   21  C   UNL     1      43.125 -18.065   3.655  1.00  0.00     0.087 A 
HETATM   22  C   UNL     1      43.920 -18.922   4.411  1.00  0.00     0.045 A 
HETATM   23  C   UNL     1      42.696 -18.336   2.365  1.00  0.00     0.007 A 
HETATM   24  C   UNL     1      44.306 -20.139   3.817  1.00  0.00    -0.053 A 
HETATM   25  C   UNL     1      43.895 -20.454   2.502  1.00  0.00    -0.055 A 
HETATM   26  C   UNL     1      45.198 -21.069   4.597  1.00  0.00     0.049 C 
HETATM   27  C   UNL     1      44.286 -21.753   1.848  1.00  0.00     0.049 C 
HETATM   28  C   UNL     1      43.077 -19.557   1.781  1.00  0.00     0.022 A 
HETATM   29  C   UNL     1      41.936 -17.201   1.949  1.00  0.00    -0.009 A 
HETATM   30  C   UNL     1      41.262 -17.011   0.639  1.00  0.00     0.052 C 
ENDBRANCH   1  19
TORSDOF 6
ENDMDL
