MODEL 1
REMARK VINA RESULT:      -9.0      0.000      0.000
REMARK  3 active torsions:
REMARK  status: ('A' for Active; 'I' for Inactive)
REMARK    1  A    between atoms: C_5  and  C_6 
REMARK       I    between atoms: C_6  and  N_7 
REMARK    2  A    between atoms: N_7  and  C_8 
REMARK    3  A    between atoms: C_13  and  C_14 
ROOT
HETATM    1  C   UNL     1      43.031 -17.824   6.766  1.00  0.00     0.137 A 
HETATM    2  N   UNL     1      43.137 -17.123   7.942  1.00  0.00    -0.262 N 
HETATM    3  H   UNL     1      42.677 -16.242   8.160  1.00  0.00     0.191 HD
HETATM    4  N   UNL     1      43.909 -17.726   8.866  1.00  0.00    -0.185 NA
HETATM    5  C   UNL     1      44.332 -18.829   8.242  1.00  0.00     0.155 A 
HETATM    6  C   UNL     1      43.832 -18.938   6.924  1.00  0.00     0.039 A 
ENDROOT
BRANCH   1   7
HETATM    7  N   UNL     1      42.240 -17.426   5.702  1.00  0.00    -0.307 N 
HETATM    8  C   UNL     1      42.371 -16.180   5.116  1.00  0.00     0.258 C 
HETATM    9  O   UNL     1      43.170 -15.321   5.484  1.00  0.00    -0.267 OA
HETATM   10  H   UNL     1      41.505 -18.056   5.402  1.00  0.00     0.170 HD
BRANCH   8  11
HETATM   11  C   UNL     1      41.420 -15.874   4.018  1.00  0.00     0.044 A 
HETATM   12  C   UNL     1      41.361 -16.621   2.814  1.00  0.00     0.008 A 
HETATM   13  C   UNL     1      40.387 -16.272   1.871  1.00  0.00     0.043 A 
HETATM   14  C   UNL     1      42.102 -17.698   2.238  1.00  0.00     0.032 A 
HETATM   15  C   UNL     1      39.495 -15.207   2.054  1.00  0.00     0.030 A 
HETATM   16  N   UNL     1      40.505 -17.142   0.810  1.00  0.00    -0.365 N 
HETATM   17  C   UNL     1      39.600 -14.461   3.228  1.00  0.00     0.003 A 
HETATM   18  C   UNL     1      40.546 -14.786   4.196  1.00  0.00     0.018 A 
HETATM   19  H   UNL     1      39.918 -17.122  -0.014  1.00  0.00     0.165 HD
HETATM   20  C   UNL     1      41.541 -18.006   1.021  1.00  0.00     0.089 A 
ENDBRANCH   8  11
ENDBRANCH   1   7
BRANCH   6  21
HETATM   21  C   UNL     1      44.065 -19.953   5.918  1.00  0.00    -0.018 A 
HETATM   22  C   UNL     1      44.136 -19.594   4.564  1.00  0.00     0.052 A 
HETATM   23  C   UNL     1      44.349 -20.595   3.641  1.00  0.00     0.105 A 
HETATM   24  C   UNL     1      44.503 -21.907   4.017  1.00  0.00     0.105 A 
HETATM   25  O   UNL     1      44.431 -20.426   2.294  1.00  0.00    -0.323 OA
HETATM   26  O   UNL     1      44.703 -22.731   2.954  1.00  0.00    -0.323 OA
HETATM   27  C   UNL     1      44.454 -22.294   5.339  1.00  0.00     0.040 A 
HETATM   28  C   UNL     1      44.662 -21.785   1.866  1.00  0.00     0.352 A 
HETATM   29  C   UNL     1      44.235 -21.300   6.301  1.00  0.00     0.015 A 
ENDBRANCH   6  21
TORSDOF 3
ENDMDL
MODEL 2
REMARK VINA RESULT:      -8.9      2.840      7.546
REMARK  3 active torsions:
REMARK  status: ('A' for Active; 'I' for Inactive)
REMARK    1  A    between atoms: C_5  and  C_6 
REMARK       I    between atoms: C_6  and  N_7 
REMARK    2  A    between atoms: N_7  and  C_8 
REMARK    3  A    between atoms: C_13  and  C_14 
ROOT
HETATM    1  C   UNL     1      41.863 -16.221   1.235  1.00  0.00     0.137 A 
HETATM    2  N   UNL     1      41.739 -16.467  -0.111  1.00  0.00    -0.262 N 
HETATM    3  H   UNL     1      41.978 -17.333  -0.588  1.00  0.00     0.191 HD
HETATM    4  N   UNL     1      41.216 -15.437  -0.805  1.00  0.00    -0.185 NA
HETATM    5  C   UNL     1      41.034 -14.498   0.128  1.00  0.00     0.155 A 
HETATM    6  C   UNL     1      41.433 -14.920   1.416  1.00  0.00     0.039 A 
ENDROOT
BRANCH   1   7
HETATM    7  N   UNL     1      42.317 -17.156   2.149  1.00  0.00    -0.307 N 
HETATM    8  C   UNL     1      43.634 -17.576   2.176  1.00  0.00     0.258 C 
HETATM    9  O   UNL     1      44.504 -17.183   1.402  1.00  0.00    -0.267 OA
HETATM   10  H   UNL     1      41.632 -17.582   2.763  1.00  0.00     0.170 HD
BRANCH   8  11
HETATM   11  C   UNL     1      43.963 -18.621   3.178  1.00  0.00     0.044 A 
HETATM   12  C   UNL     1      44.103 -19.993   2.848  1.00  0.00     0.008 A 
HETATM   13  C   UNL     1      44.467 -20.881   3.868  1.00  0.00     0.043 A 
HETATM   14  C   UNL     1      43.931 -20.789   1.674  1.00  0.00     0.032 A 
HETATM   15  C   UNL     1      44.668 -20.477   5.195  1.00  0.00     0.030 A 
HETATM   16  N   UNL     1      44.567 -22.137   3.311  1.00  0.00    -0.365 N 
HETATM   17  C   UNL     1      44.483 -19.129   5.502  1.00  0.00     0.003 A 
HETATM   18  C   UNL     1      44.136 -18.213   4.513  1.00  0.00     0.018 A 
HETATM   19  H   UNL     1      44.822 -22.971   3.824  1.00  0.00     0.165 HD
HETATM   20  C   UNL     1      44.241 -22.092   1.986  1.00  0.00     0.089 A 
ENDBRANCH   8  11
ENDBRANCH   1   7
BRANCH   6  21
HETATM   21  C   UNL     1      41.424 -14.209   2.677  1.00  0.00    -0.018 A 
HETATM   22  C   UNL     1      40.238 -14.114   3.419  1.00  0.00     0.052 A 
HETATM   23  C   UNL     1      40.273 -13.418   4.608  1.00  0.00     0.105 A 
HETATM   24  C   UNL     1      41.428 -12.839   5.074  1.00  0.00     0.105 A 
HETATM   25  O   UNL     1      39.217 -13.219   5.441  1.00  0.00    -0.323 OA
HETATM   26  O   UNL     1      41.246 -12.203   6.262  1.00  0.00    -0.323 OA
HETATM   27  C   UNL     1      42.615 -12.924   4.379  1.00  0.00     0.040 A 
HETATM   28  C   UNL     1      39.843 -12.453   6.492  1.00  0.00     0.352 A 
HETATM   29  C   UNL     1      42.611 -13.622   3.165  1.00  0.00     0.015 A 
ENDBRANCH   6  21
TORSDOF 3
ENDMDL
MODEL 3
REMARK VINA RESULT:      -8.7      2.489      7.604
REMARK  3 active torsions:
REMARK  status: ('A' for Active; 'I' for Inactive)
REMARK    1  A    between atoms: C_5  and  C_6 
REMARK       I    between atoms: C_6  and  N_7 
REMARK    2  A    between atoms: N_7  and  C_8 
REMARK    3  A    between atoms: C_13  and  C_14 
ROOT
HETATM    1  C   UNL     1      41.996 -15.855   0.256  1.00  0.00     0.137 A 
HETATM    2  N   UNL     1      41.697 -15.900  -1.083  1.00  0.00    -0.262 N 
HETATM    3  H   UNL     1      41.985 -16.622  -1.740  1.00  0.00     0.191 HD
HETATM    4  N   UNL     1      40.920 -14.882  -1.501  1.00  0.00    -0.185 NA
HETATM    5  C   UNL     1      40.748 -14.152  -0.395  1.00  0.00     0.155 A 
HETATM    6  C   UNL     1      41.408 -14.698   0.730  1.00  0.00     0.039 A 
ENDROOT
BRANCH   1   7
HETATM    7  N   UNL     1      42.727 -16.829   0.915  1.00  0.00    -0.307 N 
HETATM    8  C   UNL     1      42.130 -17.753   1.753  1.00  0.00     0.258 C 
HETATM    9  O   UNL     1      40.926 -17.789   2.001  1.00  0.00    -0.267 OA
HETATM   10  H   UNL     1      43.735 -16.804   0.819  1.00  0.00     0.170 HD
BRANCH   8  11
HETATM   11  C   UNL     1      43.046 -18.704   2.431  1.00  0.00     0.044 A 
HETATM   12  C   UNL     1      43.579 -18.478   3.725  1.00  0.00     0.008 A 
HETATM   13  C   UNL     1      44.391 -19.471   4.285  1.00  0.00     0.043 A 
HETATM   14  C   UNL     1      43.536 -17.416   4.681  1.00  0.00     0.032 A 
HETATM   15  C   UNL     1      44.721 -20.655   3.612  1.00  0.00     0.030 A 
HETATM   16  N   UNL     1      44.765 -19.045   5.541  1.00  0.00    -0.365 N 
HETATM   17  C   UNL     1      44.219 -20.836   2.323  1.00  0.00     0.003 A 
HETATM   18  C   UNL     1      43.395 -19.878   1.739  1.00  0.00     0.018 A 
HETATM   19  H   UNL     1      45.351 -19.574   6.173  1.00  0.00     0.165 HD
HETATM   20  C   UNL     1      44.255 -17.802   5.788  1.00  0.00     0.089 A 
ENDBRANCH   8  11
ENDBRANCH   1   7
BRANCH   6  21
HETATM   21  C   UNL     1      41.493 -14.210   2.090  1.00  0.00    -0.018 A 
HETATM   22  C   UNL     1      40.350 -14.202   2.903  1.00  0.00     0.052 A 
HETATM   23  C   UNL     1      40.475 -13.719   4.188  1.00  0.00     0.105 A 
HETATM   24  C   UNL     1      41.676 -13.268   4.679  1.00  0.00     0.105 A 
HETATM   25  O   UNL     1      39.471 -13.627   5.101  1.00  0.00    -0.323 OA
HETATM   26  O   UNL     1      41.581 -12.837   5.965  1.00  0.00    -0.323 OA
HETATM   27  C   UNL     1      42.822 -13.276   3.914  1.00  0.00     0.040 A 
HETATM   28  C   UNL     1      40.182 -13.073   6.228  1.00  0.00     0.352 A 
HETATM   29  C   UNL     1      42.727 -13.756   2.602  1.00  0.00     0.015 A 
ENDBRANCH   6  21
TORSDOF 3
ENDMDL
MODEL 4
REMARK VINA RESULT:      -8.7      1.023      2.039
REMARK  3 active torsions:
REMARK  status: ('A' for Active; 'I' for Inactive)
REMARK    1  A    between atoms: C_5  and  C_6 
REMARK       I    between atoms: C_6  and  N_7 
REMARK    2  A    between atoms: N_7  and  C_8 
REMARK    3  A    between atoms: C_13  and  C_14 
ROOT
HETATM    1  C   UNL     1      42.969 -17.812   6.730  1.00  0.00     0.137 A 
HETATM    2  N   UNL     1      43.081 -17.089   7.891  1.00  0.00    -0.262 N 
HETATM    3  H   UNL     1      42.601 -16.218   8.107  1.00  0.00     0.191 HD
HETATM    4  N   UNL     1      43.892 -17.654   8.807  1.00  0.00    -0.185 NA
HETATM    5  C   UNL     1      44.333 -18.754   8.190  1.00  0.00     0.155 A 
HETATM    6  C   UNL     1      43.806 -18.900   6.886  1.00  0.00     0.039 A 
ENDROOT
BRANCH   1   7
HETATM    7  N   UNL     1      42.143 -17.454   5.678  1.00  0.00    -0.307 N 
HETATM    8  C   UNL     1      42.354 -16.306   4.936  1.00  0.00     0.258 C 
HETATM    9  O   UNL     1      43.263 -15.504   5.143  1.00  0.00    -0.267 OA
HETATM   10  H   UNL     1      41.326 -18.029   5.507  1.00  0.00     0.170 HD
BRANCH   8  11
HETATM   11  C   UNL     1      41.358 -16.026   3.873  1.00  0.00     0.044 A 
HETATM   12  C   UNL     1      40.640 -14.806   3.787  1.00  0.00     0.008 A 
HETATM   13  C   UNL     1      39.763 -14.634   2.709  1.00  0.00     0.043 A 
HETATM   14  C   UNL     1      40.533 -13.621   4.577  1.00  0.00     0.032 A 
HETATM   15  C   UNL     1      39.545 -15.621   1.737  1.00  0.00     0.030 A 
HETATM   16  N   UNL     1      39.206 -13.379   2.820  1.00  0.00    -0.365 N 
HETATM   17  C   UNL     1      40.232 -16.828   1.868  1.00  0.00     0.003 A 
HETATM   18  C   UNL     1      41.123 -17.031   2.917  1.00  0.00     0.018 A 
HETATM   19  H   UNL     1      38.538 -12.990   2.168  1.00  0.00     0.165 HD
HETATM   20  C   UNL     1      39.663 -12.760   3.949  1.00  0.00     0.089 A 
ENDBRANCH   8  11
ENDBRANCH   1   7
BRANCH   6  21
HETATM   21  C   UNL     1      44.045 -19.924   5.892  1.00  0.00    -0.018 A 
HETATM   22  C   UNL     1      44.102 -19.581   4.533  1.00  0.00     0.052 A 
HETATM   23  C   UNL     1      44.322 -20.591   3.621  1.00  0.00     0.105 A 
HETATM   24  C   UNL     1      44.495 -21.896   4.012  1.00  0.00     0.105 A 
HETATM   25  O   UNL     1      44.393 -20.438   2.271  1.00  0.00    -0.323 OA
HETATM   26  O   UNL     1      44.698 -22.730   2.958  1.00  0.00    -0.323 OA
HETATM   27  C   UNL     1      44.459 -22.267   5.339  1.00  0.00     0.040 A 
HETATM   28  C   UNL     1      44.639 -21.798   1.858  1.00  0.00     0.352 A 
HETATM   29  C   UNL     1      44.234 -21.264   6.290  1.00  0.00     0.015 A 
ENDBRANCH   6  21
TORSDOF 3
ENDMDL
MODEL 5
REMARK VINA RESULT:      -8.6      2.654      6.937
REMARK  3 active torsions:
REMARK  status: ('A' for Active; 'I' for Inactive)
REMARK    1  A    between atoms: C_5  and  C_6 
REMARK       I    between atoms: C_6  and  N_7 
REMARK    2  A    between atoms: N_7  and  C_8 
REMARK    3  A    between atoms: C_13  and  C_14 
ROOT
HETATM    1  C   UNL     1      42.931 -16.165   1.742  1.00  0.00     0.137 A 
HETATM    2  N   UNL     1      42.473 -15.806   0.499  1.00  0.00    -0.262 N 
HETATM    3  H   UNL     1      42.494 -16.382  -0.339  1.00  0.00     0.191 HD
HETATM    4  N   UNL     1      41.924 -14.576   0.457  1.00  0.00    -0.185 NA
HETATM    5  C   UNL     1      42.070 -14.131   1.708  1.00  0.00     0.155 A 
HETATM    6  C   UNL     1      42.706 -15.069   2.553  1.00  0.00     0.039 A 
ENDROOT
BRANCH   1   7
HETATM    7  N   UNL     1      43.475 -17.404   2.034  1.00  0.00    -0.307 N 
HETATM    8  C   UNL     1      42.737 -18.570   1.938  1.00  0.00     0.258 C 
HETATM    9  O   UNL     1      41.553 -18.617   1.608  1.00  0.00    -0.267 OA
HETATM   10  H   UNL     1      44.423 -17.429   2.391  1.00  0.00     0.170 HD
BRANCH   8  11
HETATM   11  C   UNL     1      43.438 -19.817   2.331  1.00  0.00     0.044 A 
HETATM   12  C   UNL     1      43.924 -20.052   3.642  1.00  0.00     0.008 A 
HETATM   13  C   UNL     1      44.522 -21.289   3.910  1.00  0.00     0.043 A 
HETATM   14  C   UNL     1      44.005 -19.302   4.856  1.00  0.00     0.032 A 
HETATM   15  C   UNL     1      44.686 -22.284   2.937  1.00  0.00     0.030 A 
HETATM   16  N   UNL     1      44.888 -21.296   5.239  1.00  0.00    -0.365 N 
HETATM   17  C   UNL     1      44.237 -22.013   1.645  1.00  0.00     0.003 A 
HETATM   18  C   UNL     1      43.623 -20.801   1.343  1.00  0.00     0.018 A 
HETATM   19  H   UNL     1      45.338 -22.074   5.704  1.00  0.00     0.165 HD
HETATM   20  C   UNL     1      44.582 -20.098   5.818  1.00  0.00     0.089 A 
ENDBRANCH   8  11
ENDBRANCH   1   7
BRANCH   6  21
HETATM   21  C   UNL     1      43.069 -14.971   3.951  1.00  0.00    -0.018 A 
HETATM   22  C   UNL     1      44.034 -14.038   4.360  1.00  0.00     0.052 A 
HETATM   23  C   UNL     1      44.355 -13.987   5.699  1.00  0.00     0.105 A 
HETATM   24  C   UNL     1      43.751 -14.807   6.622  1.00  0.00     0.105 A 
HETATM   25  O   UNL     1      45.273 -13.157   6.263  1.00  0.00    -0.323 OA
HETATM   26  O   UNL     1      44.211 -14.596   7.883  1.00  0.00    -0.323 OA
HETATM   27  C   UNL     1      42.790 -15.725   6.257  1.00  0.00     0.040 A 
HETATM   28  C   UNL     1      45.171 -13.543   7.649  1.00  0.00     0.352 A 
HETATM   29  C   UNL     1      42.444 -15.803   4.903  1.00  0.00     0.015 A 
ENDBRANCH   6  21
TORSDOF 3
ENDMDL
MODEL 6
REMARK VINA RESULT:      -8.5      2.750      6.554
REMARK  3 active torsions:
REMARK  status: ('A' for Active; 'I' for Inactive)
REMARK    1  A    between atoms: C_5  and  C_6 
REMARK       I    between atoms: C_6  and  N_7 
REMARK    2  A    between atoms: N_7  and  C_8 
REMARK    3  A    between atoms: C_13  and  C_14 
ROOT
HETATM    1  C   UNL     1      43.808 -16.014   5.468  1.00  0.00     0.137 A 
HETATM    2  N   UNL     1      44.401 -15.982   6.706  1.00  0.00    -0.262 N 
HETATM    3  H   UNL     1      44.934 -16.734   7.137  1.00  0.00     0.191 HD
HETATM    4  N   UNL     1      44.256 -14.806   7.347  1.00  0.00    -0.185 NA
HETATM    5  C   UNL     1      43.519 -14.082   6.500  1.00  0.00     0.155 A 
HETATM    6  C   UNL     1      43.194 -14.786   5.318  1.00  0.00     0.039 A 
ENDROOT
BRANCH   1   7
HETATM    7  N   UNL     1      43.883 -17.096   4.607  1.00  0.00    -0.307 N 
HETATM    8  C   UNL     1      43.575 -18.381   5.015  1.00  0.00     0.258 C 
HETATM    9  O   UNL     1      43.229 -18.683   6.155  1.00  0.00    -0.267 OA
HETATM   10  H   UNL     1      44.241 -16.929   3.674  1.00  0.00     0.170 HD
BRANCH   8  11
HETATM   11  C   UNL     1      43.750 -19.446   3.996  1.00  0.00     0.044 A 
HETATM   12  C   UNL     1      44.273 -20.729   4.299  1.00  0.00     0.008 A 
HETATM   13  C   UNL     1      44.343 -21.671   3.266  1.00  0.00     0.043 A 
HETATM   14  C   UNL     1      44.820 -21.367   5.455  1.00  0.00     0.032 A 
HETATM   15  C   UNL     1      43.950 -21.391   1.950  1.00  0.00     0.030 A 
HETATM   16  N   UNL     1      44.853 -22.835   3.798  1.00  0.00    -0.365 N 
HETATM   17  C   UNL     1      43.479 -20.109   1.669  1.00  0.00     0.003 A 
HETATM   18  C   UNL     1      43.379 -19.150   2.672  1.00  0.00     0.018 A 
HETATM   19  H   UNL     1      45.005 -23.686   3.272  1.00  0.00     0.165 HD
HETATM   20  C   UNL     1      45.147 -22.660   5.120  1.00  0.00     0.089 A 
ENDBRANCH   8  11
ENDBRANCH   1   7
BRANCH   6  21
HETATM   21  C   UNL     1      42.405 -14.377   4.175  1.00  0.00    -0.018 A 
HETATM   22  C   UNL     1      42.971 -13.550   3.193  1.00  0.00     0.052 A 
HETATM   23  C   UNL     1      42.179 -13.177   2.128  1.00  0.00     0.105 A 
HETATM   24  C   UNL     1      40.878 -13.603   2.008  1.00  0.00     0.105 A 
HETATM   25  O   UNL     1      42.561 -12.374   1.100  1.00  0.00    -0.323 OA
HETATM   26  O   UNL     1      40.277 -13.122   0.888  1.00  0.00    -0.323 OA
HETATM   27  C   UNL     1      40.295 -14.428   2.946  1.00  0.00     0.040 A 
HETATM   28  C   UNL     1      41.351 -12.349   0.313  1.00  0.00     0.352 A 
HETATM   29  C   UNL     1      41.072 -14.820   4.042  1.00  0.00     0.015 A 
ENDBRANCH   6  21
TORSDOF 3
ENDMDL
MODEL 7
REMARK VINA RESULT:      -8.5      2.604      4.685
REMARK  3 active torsions:
REMARK  status: ('A' for Active; 'I' for Inactive)
REMARK    1  A    between atoms: C_5  and  C_6 
REMARK       I    between atoms: C_6  and  N_7 
REMARK    2  A    between atoms: N_7  and  C_8 
REMARK    3  A    between atoms: C_13  and  C_14 
ROOT
HETATM    1  C   UNL     1      43.311 -19.642   2.580  1.00  0.00     0.137 A 
HETATM    2  N   UNL     1      43.657 -20.677   1.747  1.00  0.00    -0.262 N 
HETATM    3  H   UNL     1      43.324 -20.821   0.797  1.00  0.00     0.191 HD
HETATM    4  N   UNL     1      44.550 -21.531   2.285  1.00  0.00    -0.185 NA
HETATM    5  C   UNL     1      44.749 -21.037   3.509  1.00  0.00     0.155 A 
HETATM    6  C   UNL     1      43.993 -19.869   3.760  1.00  0.00     0.039 A 
ENDROOT
BRANCH   1   7
HETATM    7  N   UNL     1      42.459 -18.613   2.216  1.00  0.00    -0.307 N 
HETATM    8  C   UNL     1      42.875 -17.566   1.413  1.00  0.00     0.258 C 
HETATM    9  O   UNL     1      44.015 -17.442   0.970  1.00  0.00    -0.267 OA
HETATM   10  H   UNL     1      41.528 -18.611   2.615  1.00  0.00     0.170 HD
BRANCH   8  11
HETATM   11  C   UNL     1      41.867 -16.509   1.149  1.00  0.00     0.044 A 
HETATM   12  C   UNL     1      41.192 -15.806   2.179  1.00  0.00     0.008 A 
HETATM   13  C   UNL     1      40.300 -14.793   1.810  1.00  0.00     0.043 A 
HETATM   14  C   UNL     1      41.146 -15.873   3.606  1.00  0.00     0.032 A 
HETATM   15  C   UNL     1      40.025 -14.468   0.474  1.00  0.00     0.030 A 
HETATM   16  N   UNL     1      39.792 -14.242   2.966  1.00  0.00    -0.365 N 
HETATM   17  C   UNL     1      40.670 -15.203  -0.522  1.00  0.00     0.003 A 
HETATM   18  C   UNL     1      41.575 -16.207  -0.194  1.00  0.00     0.018 A 
HETATM   19  H   UNL     1      39.125 -13.482   2.992  1.00  0.00     0.165 HD
HETATM   20  C   UNL     1      40.296 -14.890   4.057  1.00  0.00     0.089 A 
ENDBRANCH   8  11
ENDBRANCH   1   7
BRANCH   6  21
HETATM   21  C   UNL     1      43.904 -19.052   4.951  1.00  0.00    -0.018 A 
HETATM   22  C   UNL     1      44.018 -17.657   4.853  1.00  0.00     0.052 A 
HETATM   23  C   UNL     1      43.938 -16.920   6.015  1.00  0.00     0.105 A 
HETATM   24  C   UNL     1      43.739 -17.514   7.238  1.00  0.00     0.105 A 
HETATM   25  O   UNL     1      44.041 -15.567   6.104  1.00  0.00    -0.323 OA
HETATM   26  O   UNL     1      43.690 -16.609   8.252  1.00  0.00    -0.323 OA
HETATM   27  C   UNL     1      43.608 -18.879   7.369  1.00  0.00     0.040 A 
HETATM   28  C   UNL     1      43.876 -15.376   7.524  1.00  0.00     0.352 A 
HETATM   29  C   UNL     1      43.689 -19.656   6.208  1.00  0.00     0.015 A 
ENDBRANCH   6  21
TORSDOF 3
ENDMDL
MODEL 8
REMARK VINA RESULT:      -8.5      2.698      6.195
REMARK  3 active torsions:
REMARK  status: ('A' for Active; 'I' for Inactive)
REMARK    1  A    between atoms: C_5  and  C_6 
REMARK       I    between atoms: C_6  and  N_7 
REMARK    2  A    between atoms: N_7  and  C_8 
REMARK    3  A    between atoms: C_13  and  C_14 
ROOT
HETATM    1  C   UNL     1      40.778 -15.518   5.264  1.00  0.00     0.137 A 
HETATM    2  N   UNL     1      40.362 -14.830   6.376  1.00  0.00    -0.262 N 
HETATM    3  H   UNL     1      40.449 -15.138   7.342  1.00  0.00     0.191 HD
HETATM    4  N   UNL     1      39.828 -13.624   6.101  1.00  0.00    -0.185 NA
HETATM    5  C   UNL     1      39.878 -13.563   4.767  1.00  0.00     0.155 A 
HETATM    6  C   UNL     1      40.444 -14.720   4.186  1.00  0.00     0.039 A 
ENDROOT
BRANCH   1   7
HETATM    7  N   UNL     1      41.412 -16.748   5.312  1.00  0.00    -0.307 N 
HETATM    8  C   UNL     1      42.765 -16.866   5.574  1.00  0.00     0.258 C 
HETATM    9  O   UNL     1      43.519 -15.915   5.770  1.00  0.00    -0.267 OA
HETATM   10  H   UNL     1      40.865 -17.568   5.078  1.00  0.00     0.170 HD
BRANCH   8  11
HETATM   11  C   UNL     1      43.316 -18.243   5.543  1.00  0.00     0.044 A 
HETATM   12  C   UNL     1      43.738 -18.882   4.349  1.00  0.00     0.008 A 
HETATM   13  C   UNL     1      44.291 -20.164   4.449  1.00  0.00     0.043 A 
HETATM   14  C   UNL     1      43.727 -18.563   2.957  1.00  0.00     0.032 A 
HETATM   15  C   UNL     1      44.415 -20.849   5.666  1.00  0.00     0.030 A 
HETATM   16  N   UNL     1      44.647 -20.565   3.181  1.00  0.00    -0.365 N 
HETATM   17  C   UNL     1      43.953 -20.216   6.821  1.00  0.00     0.003 A 
HETATM   18  C   UNL     1      43.412 -18.935   6.764  1.00  0.00     0.018 A 
HETATM   19  H   UNL     1      45.078 -21.454   2.961  1.00  0.00     0.165 HD
HETATM   20  C   UNL     1      44.308 -19.605   2.271  1.00  0.00     0.089 A 
ENDBRANCH   8  11
ENDBRANCH   1   7
BRANCH   6  21
HETATM   21  C   UNL     1      40.655 -15.059   2.795  1.00  0.00    -0.018 A 
HETATM   22  C   UNL     1      40.754 -14.042   1.834  1.00  0.00     0.052 A 
HETATM   23  C   UNL     1      40.944 -14.412   0.520  1.00  0.00     0.105 A 
HETATM   24  C   UNL     1      41.049 -15.730   0.145  1.00  0.00     0.105 A 
HETATM   25  O   UNL     1      41.048 -13.561  -0.536  1.00  0.00    -0.323 OA
HETATM   26  O   UNL     1      41.234 -15.875  -1.194  1.00  0.00    -0.323 OA
HETATM   27  C   UNL     1      40.972 -16.754   1.064  1.00  0.00     0.040 A 
HETATM   28  C   UNL     1      41.239 -14.495  -1.619  1.00  0.00     0.352 A 
HETATM   29  C   UNL     1      40.775 -16.410   2.407  1.00  0.00     0.015 A 
ENDBRANCH   6  21
TORSDOF 3
ENDMDL
MODEL 9
REMARK VINA RESULT:      -8.4      1.773      2.415
REMARK  3 active torsions:
REMARK  status: ('A' for Active; 'I' for Inactive)
REMARK    1  A    between atoms: C_5  and  C_6 
REMARK       I    between atoms: C_6  and  N_7 
REMARK    2  A    between atoms: N_7  and  C_8 
REMARK    3  A    between atoms: C_13  and  C_14 
ROOT
HETATM    1  C   UNL     1      42.908 -15.988   5.564  1.00  0.00     0.137 A 
HETATM    2  N   UNL     1      43.151 -15.282   6.716  1.00  0.00    -0.262 N 
HETATM    3  H   UNL     1      42.720 -14.400   6.984  1.00  0.00     0.191 HD
HETATM    4  N   UNL     1      44.025 -15.883   7.547  1.00  0.00    -0.185 NA
HETATM    5  C   UNL     1      44.371 -16.989   6.881  1.00  0.00     0.155 A 
HETATM    6  C   UNL     1      43.721 -17.102   5.631  1.00  0.00     0.039 A 
ENDROOT
BRANCH   1   7
HETATM    7  N   UNL     1      41.999 -15.593   4.597  1.00  0.00    -0.307 N 
HETATM    8  C   UNL     1      42.217 -14.491   3.791  1.00  0.00     0.258 C 
HETATM    9  O   UNL     1      43.207 -13.765   3.862  1.00  0.00    -0.267 OA
HETATM   10  H   UNL     1      41.122 -16.099   4.542  1.00  0.00     0.170 HD
BRANCH   8  11
HETATM   11  C   UNL     1      41.132 -14.158   2.835  1.00  0.00     0.044 A 
HETATM   12  C   UNL     1      41.060 -14.698   1.526  1.00  0.00     0.008 A 
HETATM   13  C   UNL     1      39.960 -14.352   0.731  1.00  0.00     0.043 A 
HETATM   14  C   UNL     1      41.883 -15.541   0.717  1.00  0.00     0.032 A 
HETATM   15  C   UNL     1      38.952 -13.480   1.162  1.00  0.00     0.030 A 
HETATM   16  N   UNL     1      40.093 -15.009  -0.472  1.00  0.00    -0.365 N 
HETATM   17  C   UNL     1      39.067 -12.929   2.439  1.00  0.00     0.003 A 
HETATM   18  C   UNL     1      40.138 -13.260   3.264  1.00  0.00     0.018 A 
HETATM   19  H   UNL     1      39.432 -14.944  -1.235  1.00  0.00     0.165 HD
HETATM   20  C   UNL     1      41.254 -15.728  -0.491  1.00  0.00     0.089 A 
ENDBRANCH   8  11
ENDBRANCH   1   7
BRANCH   6  21
HETATM   21  C   UNL     1      43.834 -18.121   4.610  1.00  0.00    -0.018 A 
HETATM   22  C   UNL     1      44.181 -19.433   4.964  1.00  0.00     0.052 A 
HETATM   23  C   UNL     1      44.287 -20.368   3.956  1.00  0.00     0.105 A 
HETATM   24  C   UNL     1      44.051 -20.046   2.641  1.00  0.00     0.105 A 
HETATM   25  O   UNL     1      44.625 -21.675   4.120  1.00  0.00    -0.323 OA
HETATM   26  O   UNL     1      44.209 -21.111   1.811  1.00  0.00    -0.323 OA
HETATM   27  C   UNL     1      43.693 -18.771   2.259  1.00  0.00     0.040 A 
HETATM   28  C   UNL     1      44.566 -22.142   2.756  1.00  0.00     0.352 A 
HETATM   29  C   UNL     1      43.581 -17.798   3.259  1.00  0.00     0.015 A 
ENDBRANCH   6  21
TORSDOF 3
ENDMDL
MODEL 10
REMARK VINA RESULT:      -8.3      2.946      6.939
REMARK  3 active torsions:
REMARK  status: ('A' for Active; 'I' for Inactive)
REMARK    1  A    between atoms: C_5  and  C_6 
REMARK       I    between atoms: C_6  and  N_7 
REMARK    2  A    between atoms: N_7  and  C_8 
REMARK    3  A    between atoms: C_13  and  C_14 
ROOT
HETATM    1  C   UNL     1      40.627 -14.927   4.962  1.00  0.00     0.137 A 
HETATM    2  N   UNL     1      40.211 -14.642   6.239  1.00  0.00    -0.262 N 
HETATM    3  H   UNL     1      40.339 -15.231   7.059  1.00  0.00     0.191 HD
HETATM    4  N   UNL     1      39.615 -13.440   6.361  1.00  0.00    -0.185 NA
HETATM    5  C   UNL     1      39.624 -12.964   5.112  1.00  0.00     0.155 A 
HETATM    6  C   UNL     1      40.226 -13.853   4.192  1.00  0.00     0.039 A 
ENDROOT
BRANCH   1   7
HETATM    7  N   UNL     1      41.317 -16.076   4.616  1.00  0.00    -0.307 N 
HETATM    8  C   UNL     1      42.683 -16.073   4.399  1.00  0.00     0.258 C 
HETATM    9  O   UNL     1      43.396 -15.074   4.475  1.00  0.00    -0.267 OA
HETATM   10  H   UNL     1      40.778 -16.919   4.457  1.00  0.00     0.170 HD
BRANCH   8  11
HETATM   11  C   UNL     1      43.279 -17.368   3.984  1.00  0.00     0.044 A 
HETATM   12  C   UNL     1      43.608 -18.398   4.902  1.00  0.00     0.008 A 
HETATM   13  C   UNL     1      44.116 -19.598   4.389  1.00  0.00     0.043 A 
HETATM   14  C   UNL     1      43.592 -18.550   6.322  1.00  0.00     0.032 A 
HETATM   15  C   UNL     1      44.338 -19.809   3.021  1.00  0.00     0.030 A 
HETATM   16  N   UNL     1      44.334 -20.446   5.452  1.00  0.00    -0.365 N 
HETATM   17  C   UNL     1      44.045 -18.765   2.143  1.00  0.00     0.003 A 
HETATM   18  C   UNL     1      43.525 -17.563   2.613  1.00  0.00     0.018 A 
HETATM   19  H   UNL     1      44.695 -21.387   5.368  1.00  0.00     0.165 HD
HETATM   20  C   UNL     1      44.023 -19.821   6.625  1.00  0.00     0.089 A 
ENDBRANCH   8  11
ENDBRANCH   1   7
BRANCH   6  21
HETATM   21  C   UNL     1      40.414 -13.730   2.762  1.00  0.00    -0.018 A 
HETATM   22  C   UNL     1      41.457 -12.940   2.257  1.00  0.00     0.052 A 
HETATM   23  C   UNL     1      41.590 -12.844   0.889  1.00  0.00     0.105 A 
HETATM   24  C   UNL     1      40.746 -13.504   0.030  1.00  0.00     0.105 A 
HETATM   25  O   UNL     1      42.533 -12.115   0.234  1.00  0.00    -0.323 OA
HETATM   26  O   UNL     1      41.051 -13.276  -1.275  1.00  0.00    -0.323 OA
HETATM   27  C   UNL     1      39.719 -14.300   0.491  1.00  0.00     0.040 A 
HETATM   28  C   UNL     1      42.189 -12.399  -1.138  1.00  0.00     0.352 A 
HETATM   29  C   UNL     1      39.555 -14.415   1.876  1.00  0.00     0.015 A 
ENDBRANCH   6  21
TORSDOF 3
ENDMDL
