MODEL 1
REMARK VINA RESULT:      -8.9      0.000      0.000
REMARK  8 active torsions:
REMARK  status: ('A' for Active; 'I' for Inactive)
REMARK    1  A    between atoms: N_4  and  C_5 
REMARK    2  A    between atoms: C_5  and  C_6 
REMARK    3  A    between atoms: C_6  and  C_7 
REMARK    4  A    between atoms: C_7  and  N_8 
REMARK       I    between atoms: N_8  and  C_9 
REMARK       I    between atoms: C_9  and  N_10 
REMARK    5  A    between atoms: N_10  and  N_11 
REMARK       I    between atoms: N_11  and  C_12 
REMARK    6  A    between atoms: C_12  and  C_13 
REMARK    7  A    between atoms: C_13  and  O_14 
REMARK    8  A    between atoms: O_14  and  C_15 
ROOT
HETATM    1  N   UNL     1      43.610 -15.241   7.161  1.00  0.00    -0.341 N 
HETATM    2  C   UNL     1      44.269 -14.042   7.032  1.00  0.00     0.334 C 
HETATM    3  N   UNL     1      44.392 -13.401   8.250  1.00  0.00    -0.249 N 
HETATM    4  O   UNL     1      44.731 -13.621   5.981  1.00  0.00    -0.246 OA
HETATM    5  H   UNL     1      42.936 -15.325   7.908  1.00  0.00     0.164 HD
HETATM    6  H   UNL     1      44.306 -13.950   9.098  1.00  0.00     0.192 HD
ENDROOT
BRANCH   1   7
HETATM    7  C   UNL     1      43.544 -16.212   6.087  1.00  0.00     0.130 C 
BRANCH   7   8
HETATM    8  C   UNL     1      43.886 -17.652   6.505  1.00  0.00     0.019 C 
HETATM    9  C   UNL     1      43.693 -17.880   8.006  1.00  0.00     0.013 C 
BRANCH   8  10
HETATM   10  C   UNL     1      43.001 -18.648   5.730  1.00  0.00     0.156 C 
BRANCH  10  11
HETATM   11  N   UNL     1      43.493 -18.927   4.390  1.00  0.00    -0.274 N 
HETATM   12  N   UNL     1      43.143 -18.083   3.400  1.00  0.00    -0.177 NA
HETATM   13  C   UNL     1      43.773 -18.555   2.321  1.00  0.00     0.053 A 
HETATM   14  C   UNL     1      43.664 -17.855   1.019  1.00  0.00     0.072 C 
HETATM   15  C   UNL     1      44.509 -19.721   2.622  1.00  0.00     0.055 A 
HETATM   16  C   UNL     1      44.312 -19.944   3.970  1.00  0.00     0.028 A 
HETATM   17  C   UNL     1      44.852 -21.009   4.849  1.00  0.00     0.070 C 
ENDBRANCH  10  11
ENDBRANCH   8  10
ENDBRANCH   7   8
ENDBRANCH   1   7
BRANCH   3  18
HETATM   18  N   UNL     1      45.124 -12.214   8.340  1.00  0.00    -0.264 N 
HETATM   19  C   UNL     1      45.368 -11.518   9.502  1.00  0.00     0.260 C 
HETATM   20  O   UNL     1      46.104 -10.527   9.456  1.00  0.00    -0.269 OA
HETATM   21  H   UNL     1      45.708 -11.967   7.546  1.00  0.00     0.190 HD
BRANCH  19  22
HETATM   22  C   UNL     1      44.707 -11.965  10.803  1.00  0.00     0.280 C 
BRANCH  22  23
HETATM   23  O   UNL     1      43.352 -11.517  10.786  1.00  0.00    -0.342 OA
BRANCH  23  24
HETATM   24  C   UNL     1      42.931 -10.982  11.968  1.00  0.00     0.069 A 
HETATM   25  C   UNL     1      43.752 -10.006  12.535  1.00  0.00     0.038 A 
HETATM   26  C   UNL     1      43.391  -9.396  13.736  1.00  0.00     0.022 A 
HETATM   27  C   UNL     1      42.194  -9.752  14.353  1.00  0.00     0.011 A 
HETATM   28 BR   UNL     1      41.706  -8.937  15.987  1.00  0.00    -0.051 Br
HETATM   29  C   UNL     1      41.354 -10.703  13.774  1.00  0.00     0.022 A 
HETATM   30  C   UNL     1      41.721 -11.318  12.573  1.00  0.00     0.038 A 
ENDBRANCH  23  24
ENDBRANCH  22  23
ENDBRANCH  19  22
ENDBRANCH   3  18
TORSDOF 8
ENDMDL
MODEL 2
REMARK VINA RESULT:      -8.9      0.738      2.011
REMARK  8 active torsions:
REMARK  status: ('A' for Active; 'I' for Inactive)
REMARK    1  A    between atoms: N_4  and  C_5 
REMARK    2  A    between atoms: C_5  and  C_6 
REMARK    3  A    between atoms: C_6  and  C_7 
REMARK    4  A    between atoms: C_7  and  N_8 
REMARK       I    between atoms: N_8  and  C_9 
REMARK       I    between atoms: C_9  and  N_10 
REMARK    5  A    between atoms: N_10  and  N_11 
REMARK       I    between atoms: N_11  and  C_12 
REMARK    6  A    between atoms: C_12  and  C_13 
REMARK    7  A    between atoms: C_13  and  O_14 
REMARK    8  A    between atoms: O_14  and  C_15 
ROOT
HETATM    1  N   UNL     1      43.748 -14.987   7.017  1.00  0.00    -0.341 N 
HETATM    2  C   UNL     1      44.591 -13.907   7.120  1.00  0.00     0.334 C 
HETATM    3  N   UNL     1      44.469 -13.287   8.349  1.00  0.00    -0.249 N 
HETATM    4  O   UNL     1      45.384 -13.568   6.252  1.00  0.00    -0.246 OA
HETATM    5  H   UNL     1      42.889 -14.960   7.547  1.00  0.00     0.164 HD
HETATM    6  H   UNL     1      44.070 -13.812   9.119  1.00  0.00     0.192 HD
ENDROOT
BRANCH   1   7
HETATM    7  C   UNL     1      43.834 -15.940   5.928  1.00  0.00     0.130 C 
BRANCH   7   8
HETATM    8  C   UNL     1      43.547 -17.397   6.331  1.00  0.00     0.019 C 
HETATM    9  C   UNL     1      42.677 -17.490   7.587  1.00  0.00     0.013 C 
BRANCH   8  10
HETATM   10  C   UNL     1      42.836 -18.130   5.176  1.00  0.00     0.156 C 
BRANCH  10  11
HETATM   11  N   UNL     1      43.638 -19.199   4.600  1.00  0.00    -0.274 N 
HETATM   12  N   UNL     1      44.058 -20.184   5.417  1.00  0.00    -0.177 NA
HETATM   13  C   UNL     1      44.710 -21.029   4.612  1.00  0.00     0.053 A 
HETATM   14  C   UNL     1      45.292 -22.282   5.149  1.00  0.00     0.072 C 
HETATM   15  C   UNL     1      44.726 -20.564   3.280  1.00  0.00     0.055 A 
HETATM   16  C   UNL     1      44.025 -19.374   3.296  1.00  0.00     0.028 A 
HETATM   17  C   UNL     1      43.697 -18.447   2.186  1.00  0.00     0.070 C 
ENDBRANCH  10  11
ENDBRANCH   8  10
ENDBRANCH   7   8
ENDBRANCH   1   7
BRANCH   3  18
HETATM   18  N   UNL     1      45.319 -12.229   8.681  1.00  0.00    -0.264 N 
HETATM   19  C   UNL     1      44.949 -11.103   9.381  1.00  0.00     0.260 C 
HETATM   20  O   UNL     1      45.820 -10.282   9.685  1.00  0.00    -0.269 OA
HETATM   21  H   UNL     1      46.319 -12.397   8.611  1.00  0.00     0.190 HD
BRANCH  19  22
HETATM   22  C   UNL     1      43.481 -10.883   9.736  1.00  0.00     0.280 C 
BRANCH  22  23
HETATM   23  O   UNL     1      43.171 -11.704  10.861  1.00  0.00    -0.342 OA
BRANCH  23  24
HETATM   24  C   UNL     1      42.881 -11.002  11.995  1.00  0.00     0.069 A 
HETATM   25  C   UNL     1      41.662 -11.294  12.611  1.00  0.00     0.038 A 
HETATM   26  C   UNL     1      41.292 -10.633  13.782  1.00  0.00     0.022 A 
HETATM   27  C   UNL     1      42.157  -9.696  14.343  1.00  0.00     0.011 A 
HETATM   28 BR   UNL     1      41.655  -8.790  15.924  1.00  0.00    -0.051 Br
HETATM   29  C   UNL     1      43.390  -9.425  13.750  1.00  0.00     0.022 A 
HETATM   30  C   UNL     1      43.756 -10.084  12.573  1.00  0.00     0.038 A 
ENDBRANCH  23  24
ENDBRANCH  22  23
ENDBRANCH  19  22
ENDBRANCH   3  18
TORSDOF 8
ENDMDL
MODEL 3
REMARK VINA RESULT:      -8.5      1.244      1.662
REMARK  8 active torsions:
REMARK  status: ('A' for Active; 'I' for Inactive)
REMARK    1  A    between atoms: N_4  and  C_5 
REMARK    2  A    between atoms: C_5  and  C_6 
REMARK    3  A    between atoms: C_6  and  C_7 
REMARK    4  A    between atoms: C_7  and  N_8 
REMARK       I    between atoms: N_8  and  C_9 
REMARK       I    between atoms: C_9  and  N_10 
REMARK    5  A    between atoms: N_10  and  N_11 
REMARK       I    between atoms: N_11  and  C_12 
REMARK    6  A    between atoms: C_12  and  C_13 
REMARK    7  A    between atoms: C_13  and  O_14 
REMARK    8  A    between atoms: O_14  and  C_15 
ROOT
HETATM    1  N   UNL     1      42.575 -14.716   6.444  1.00  0.00    -0.341 N 
HETATM    2  C   UNL     1      43.614 -13.819   6.500  1.00  0.00     0.334 C 
HETATM    3  N   UNL     1      43.937 -13.503   7.806  1.00  0.00    -0.249 N 
HETATM    4  O   UNL     1      44.210 -13.394   5.520  1.00  0.00    -0.246 OA
HETATM    5  H   UNL     1      41.903 -14.699   7.198  1.00  0.00     0.164 HD
HETATM    6  H   UNL     1      43.652 -14.137   8.543  1.00  0.00     0.192 HD
ENDROOT
BRANCH   1   7
HETATM    7  C   UNL     1      42.187 -15.382   5.216  1.00  0.00     0.130 C 
BRANCH   7   8
HETATM    8  C   UNL     1      42.524 -16.882   5.170  1.00  0.00     0.019 C 
HETATM    9  C   UNL     1      41.272 -17.753   5.050  1.00  0.00     0.013 C 
BRANCH   8  10
HETATM   10  C   UNL     1      43.453 -17.174   3.975  1.00  0.00     0.156 C 
BRANCH  10  11
HETATM   11  N   UNL     1      44.002 -18.521   3.995  1.00  0.00    -0.274 N 
HETATM   12  N   UNL     1      43.748 -19.323   2.942  1.00  0.00    -0.177 NA
HETATM   13  C   UNL     1      44.412 -20.450   3.214  1.00  0.00     0.053 A 
HETATM   14  C   UNL     1      44.408 -21.576   2.251  1.00  0.00     0.072 C 
HETATM   15  C   UNL     1      45.071 -20.373   4.459  1.00  0.00     0.055 A 
HETATM   16  C   UNL     1      44.790 -19.113   4.949  1.00  0.00     0.028 A 
HETATM   17  C   UNL     1      45.228 -18.459   6.205  1.00  0.00     0.070 C 
ENDBRANCH  10  11
ENDBRANCH   8  10
ENDBRANCH   7   8
ENDBRANCH   1   7
BRANCH   3  18
HETATM   18  N   UNL     1      45.038 -12.683   8.071  1.00  0.00    -0.264 N 
HETATM   19  C   UNL     1      45.037 -11.603   8.924  1.00  0.00     0.260 C 
HETATM   20  O   UNL     1      46.101 -11.014   9.136  1.00  0.00    -0.269 OA
HETATM   21  H   UNL     1      45.953 -13.034   7.805  1.00  0.00     0.190 HD
BRANCH  19  22
HETATM   22  C   UNL     1      43.727 -11.144   9.560  1.00  0.00     0.280 C 
BRANCH  22  23
HETATM   23  O   UNL     1      43.481 -11.960  10.704  1.00  0.00    -0.342 OA
BRANCH  23  24
HETATM   24  C   UNL     1      43.051 -11.265  11.797  1.00  0.00     0.069 A 
HETATM   25  C   UNL     1      43.871 -10.222  12.231  1.00  0.00     0.038 A 
HETATM   26  C   UNL     1      43.501  -9.452  13.334  1.00  0.00     0.022 A 
HETATM   27  C   UNL     1      42.297  -9.717  13.983  1.00  0.00     0.011 A 
HETATM   28 BR   UNL     1      41.796  -8.684  15.483  1.00  0.00    -0.051 Br
HETATM   29  C   UNL     1      41.458 -10.737  13.531  1.00  0.00     0.022 A 
HETATM   30  C   UNL     1      41.834 -11.512  12.431  1.00  0.00     0.038 A 
ENDBRANCH  23  24
ENDBRANCH  22  23
ENDBRANCH  19  22
ENDBRANCH   3  18
TORSDOF 8
ENDMDL
MODEL 4
REMARK VINA RESULT:      -8.3      1.836      2.772
REMARK  8 active torsions:
REMARK  status: ('A' for Active; 'I' for Inactive)
REMARK    1  A    between atoms: N_4  and  C_5 
REMARK    2  A    between atoms: C_5  and  C_6 
REMARK    3  A    between atoms: C_6  and  C_7 
REMARK    4  A    between atoms: C_7  and  N_8 
REMARK       I    between atoms: N_8  and  C_9 
REMARK       I    between atoms: C_9  and  N_10 
REMARK    5  A    between atoms: N_10  and  N_11 
REMARK       I    between atoms: N_11  and  C_12 
REMARK    6  A    between atoms: C_12  and  C_13 
REMARK    7  A    between atoms: C_13  and  O_14 
REMARK    8  A    between atoms: O_14  and  C_15 
ROOT
HETATM    1  N   UNL     1      43.652 -14.989   7.011  1.00  0.00    -0.341 N 
HETATM    2  C   UNL     1      44.570 -13.972   7.113  1.00  0.00     0.334 C 
HETATM    3  N   UNL     1      44.395 -13.251   8.279  1.00  0.00    -0.249 N 
HETATM    4  O   UNL     1      45.459 -13.763   6.299  1.00  0.00    -0.246 OA
HETATM    5  H   UNL     1      42.756 -14.856   7.457  1.00  0.00     0.164 HD
HETATM    6  H   UNL     1      43.891 -13.682   9.045  1.00  0.00     0.192 HD
ENDROOT
BRANCH   1   7
HETATM    7  C   UNL     1      43.751 -16.028   6.005  1.00  0.00     0.130 C 
BRANCH   7   8
HETATM    8  C   UNL     1      42.929 -17.292   6.310  1.00  0.00     0.019 C 
HETATM    9  C   UNL     1      43.129 -17.782   7.746  1.00  0.00     0.013 C 
BRANCH   8  10
HETATM   10  C   UNL     1      41.430 -17.011   6.083  1.00  0.00     0.156 C 
BRANCH  10  11
HETATM   11  N   UNL     1      41.138 -16.521   4.744  1.00  0.00    -0.274 N 
HETATM   12  N   UNL     1      41.375 -17.344   3.704  1.00  0.00    -0.177 NA
HETATM   13  C   UNL     1      40.969 -16.655   2.634  1.00  0.00     0.053 A 
HETATM   14  C   UNL     1      41.034 -17.258   1.282  1.00  0.00     0.072 C 
HETATM   15  C   UNL     1      40.495 -15.376   2.994  1.00  0.00     0.055 A 
HETATM   16  C   UNL     1      40.614 -15.310   4.368  1.00  0.00     0.028 A 
HETATM   17  C   UNL     1      40.254 -14.220   5.305  1.00  0.00     0.070 C 
ENDBRANCH  10  11
ENDBRANCH   8  10
ENDBRANCH   7   8
ENDBRANCH   1   7
BRANCH   3  18
HETATM   18  N   UNL     1      45.299 -12.238   8.612  1.00  0.00    -0.264 N 
HETATM   19  C   UNL     1      45.001 -11.123   9.361  1.00  0.00     0.260 C 
HETATM   20  O   UNL     1      45.914 -10.346   9.657  1.00  0.00    -0.269 OA
HETATM   21  H   UNL     1      46.288 -12.441   8.497  1.00  0.00     0.190 HD
BRANCH  19  22
HETATM   22  C   UNL     1      43.557 -10.858   9.780  1.00  0.00     0.280 C 
BRANCH  22  23
HETATM   23  O   UNL     1      43.268 -11.679  10.911  1.00  0.00    -0.342 OA
BRANCH  23  24
HETATM   24  C   UNL     1      42.932 -10.977  12.032  1.00  0.00     0.069 A 
HETATM   25  C   UNL     1      41.715 -11.310  12.631  1.00  0.00     0.038 A 
HETATM   26  C   UNL     1      41.299 -10.652  13.788  1.00  0.00     0.022 A 
HETATM   27  C   UNL     1      42.118  -9.677  14.354  1.00  0.00     0.011 A 
HETATM   28 BR   UNL     1      41.555  -8.775  15.916  1.00  0.00    -0.051 Br
HETATM   29  C   UNL     1      43.350  -9.365  13.778  1.00  0.00     0.022 A 
HETATM   30  C   UNL     1      43.762 -10.021  12.615  1.00  0.00     0.038 A 
ENDBRANCH  23  24
ENDBRANCH  22  23
ENDBRANCH  19  22
ENDBRANCH   3  18
TORSDOF 8
ENDMDL
MODEL 5
REMARK VINA RESULT:      -8.2      6.400      9.507
REMARK  8 active torsions:
REMARK  status: ('A' for Active; 'I' for Inactive)
REMARK    1  A    between atoms: N_4  and  C_5 
REMARK    2  A    between atoms: C_5  and  C_6 
REMARK    3  A    between atoms: C_6  and  C_7 
REMARK    4  A    between atoms: C_7  and  N_8 
REMARK       I    between atoms: N_8  and  C_9 
REMARK       I    between atoms: C_9  and  N_10 
REMARK    5  A    between atoms: N_10  and  N_11 
REMARK       I    between atoms: N_11  and  C_12 
REMARK    6  A    between atoms: C_12  and  C_13 
REMARK    7  A    between atoms: C_13  and  O_14 
REMARK    8  A    between atoms: O_14  and  C_15 
ROOT
HETATM    1  N   UNL     1      40.614 -16.068   3.758  1.00  0.00    -0.341 N 
HETATM    2  C   UNL     1      40.952 -15.615   5.010  1.00  0.00     0.334 C 
HETATM    3  N   UNL     1      41.586 -16.596   5.747  1.00  0.00    -0.249 N 
HETATM    4  O   UNL     1      40.760 -14.472   5.403  1.00  0.00    -0.246 OA
HETATM    5  H   UNL     1      40.426 -17.055   3.654  1.00  0.00     0.164 HD
HETATM    6  H   UNL     1      42.014 -17.372   5.255  1.00  0.00     0.192 HD
ENDROOT
BRANCH   1   7
HETATM    7  C   UNL     1      40.143 -15.183   2.711  1.00  0.00     0.130 C 
BRANCH   7   8
HETATM    8  C   UNL     1      40.941 -15.268   1.398  1.00  0.00     0.019 C 
HETATM    9  C   UNL     1      41.253 -16.712   1.001  1.00  0.00     0.013 C 
BRANCH   8  10
HETATM   10  C   UNL     1      40.148 -14.597   0.258  1.00  0.00     0.156 C 
BRANCH  10  11
HETATM   11  N   UNL     1      40.999 -13.910  -0.702  1.00  0.00    -0.274 N 
HETATM   12  N   UNL     1      41.552 -12.739  -0.331  1.00  0.00    -0.177 NA
HETATM   13  C   UNL     1      42.306 -12.381  -1.374  1.00  0.00     0.053 A 
HETATM   14  C   UNL     1      43.119 -11.143  -1.326  1.00  0.00     0.072 C 
HETATM   15  C   UNL     1      42.211 -13.318  -2.425  1.00  0.00     0.055 A 
HETATM   16  C   UNL     1      41.356 -14.302  -1.967  1.00  0.00     0.028 A 
HETATM   17  C   UNL     1      40.899 -15.549  -2.624  1.00  0.00     0.070 C 
ENDBRANCH  10  11
ENDBRANCH   8  10
ENDBRANCH   7   8
ENDBRANCH   1   7
BRANCH   3  18
HETATM   18  N   UNL     1      42.099 -16.293   7.012  1.00  0.00    -0.264 N 
HETATM   19  C   UNL     1      43.133 -16.960   7.629  1.00  0.00     0.260 C 
HETATM   20  O   UNL     1      43.548 -16.536   8.712  1.00  0.00    -0.269 OA
HETATM   21  H   UNL     1      41.859 -15.389   7.406  1.00  0.00     0.190 HD
BRANCH  19  22
HETATM   22  C   UNL     1      43.717 -18.213   6.983  1.00  0.00     0.280 C 
BRANCH  22  23
HETATM   23  O   UNL     1      44.316 -17.833   5.744  1.00  0.00    -0.342 OA
BRANCH  23  24
HETATM   24  C   UNL     1      44.291 -18.812   4.794  1.00  0.00     0.069 A 
HETATM   25  C   UNL     1      43.759 -18.459   3.553  1.00  0.00     0.038 A 
HETATM   26  C   UNL     1      43.707 -19.395   2.520  1.00  0.00     0.022 A 
HETATM   27  C   UNL     1      44.211 -20.677   2.731  1.00  0.00     0.011 A 
HETATM   28 BR   UNL     1      44.134 -21.952   1.338  1.00  0.00    -0.051 Br
HETATM   29  C   UNL     1      44.775 -21.024   3.959  1.00  0.00     0.022 A 
HETATM   30  C   UNL     1      44.820 -20.086   4.994  1.00  0.00     0.038 A 
ENDBRANCH  23  24
ENDBRANCH  22  23
ENDBRANCH  19  22
ENDBRANCH   3  18
TORSDOF 8
ENDMDL
MODEL 6
REMARK VINA RESULT:      -8.1      4.712     10.354
REMARK  8 active torsions:
REMARK  status: ('A' for Active; 'I' for Inactive)
REMARK    1  A    between atoms: N_4  and  C_5 
REMARK    2  A    between atoms: C_5  and  C_6 
REMARK    3  A    between atoms: C_6  and  C_7 
REMARK    4  A    between atoms: C_7  and  N_8 
REMARK       I    between atoms: N_8  and  C_9 
REMARK       I    between atoms: C_9  and  N_10 
REMARK    5  A    between atoms: N_10  and  N_11 
REMARK       I    between atoms: N_11  and  C_12 
REMARK    6  A    between atoms: C_12  and  C_13 
REMARK    7  A    between atoms: C_13  and  O_14 
REMARK    8  A    between atoms: O_14  and  C_15 
ROOT
HETATM    1  N   UNL     1      41.315 -12.101   6.663  1.00  0.00    -0.341 N 
HETATM    2  C   UNL     1      40.555 -13.163   6.237  1.00  0.00     0.334 C 
HETATM    3  N   UNL     1      41.331 -14.287   6.028  1.00  0.00    -0.249 N 
HETATM    4  O   UNL     1      39.338 -13.131   6.108  1.00  0.00    -0.246 OA
HETATM    5  H   UNL     1      42.278 -12.067   6.362  1.00  0.00     0.164 HD
HETATM    6  H   UNL     1      42.238 -14.340   6.478  1.00  0.00     0.192 HD
ENDROOT
BRANCH   1   7
HETATM    7  C   UNL     1      40.726 -10.876   7.166  1.00  0.00     0.130 C 
BRANCH   7   8
HETATM    8  C   UNL     1      41.710  -9.950   7.901  1.00  0.00     0.019 C 
HETATM    9  C   UNL     1      41.209  -8.505   7.966  1.00  0.00     0.013 C 
BRANCH   8  10
HETATM   10  C   UNL     1      41.942 -10.463   9.336  1.00  0.00     0.156 C 
BRANCH  10  11
HETATM   11  N   UNL     1      43.323 -10.848   9.589  1.00  0.00    -0.274 N 
HETATM   12  N   UNL     1      43.982 -11.510   8.618  1.00  0.00    -0.177 NA
HETATM   13  C   UNL     1      45.214 -11.677   9.106  1.00  0.00     0.053 A 
HETATM   14  C   UNL     1      46.261 -12.341   8.294  1.00  0.00     0.072 C 
HETATM   15  C   UNL     1      45.332 -11.140  10.405  1.00  0.00     0.055 A 
HETATM   16  C   UNL     1      44.091 -10.608  10.699  1.00  0.00     0.028 A 
HETATM   17  C   UNL     1      43.623  -9.895  11.911  1.00  0.00     0.070 C 
ENDBRANCH  10  11
ENDBRANCH   8  10
ENDBRANCH   7   8
ENDBRANCH   1   7
BRANCH   3  18
HETATM   18  N   UNL     1      40.723 -15.499   5.691  1.00  0.00    -0.264 N 
HETATM   19  C   UNL     1      41.347 -16.726   5.685  1.00  0.00     0.260 C 
HETATM   20  O   UNL     1      40.672 -17.734   5.451  1.00  0.00    -0.269 OA
HETATM   21  H   UNL     1      39.708 -15.521   5.673  1.00  0.00     0.190 HD
BRANCH  19  22
HETATM   22  C   UNL     1      42.851 -16.810   5.936  1.00  0.00     0.280 C 
BRANCH  22  23
HETATM   23  O   UNL     1      43.518 -16.618   4.689  1.00  0.00    -0.342 OA
BRANCH  23  24
HETATM   24  C   UNL     1      43.701 -17.767   3.977  1.00  0.00     0.069 A 
HETATM   25  C   UNL     1      44.201 -18.862   4.683  1.00  0.00     0.038 A 
HETATM   26  C   UNL     1      44.407 -20.080   4.035  1.00  0.00     0.022 A 
HETATM   27  C   UNL     1      44.088 -20.200   2.685  1.00  0.00     0.011 A 
HETATM   28 BR   UNL     1      44.375 -21.845   1.800  1.00  0.00    -0.051 Br
HETATM   29  C   UNL     1      43.557 -19.118   1.982  1.00  0.00     0.022 A 
HETATM   30  C   UNL     1      43.358 -17.897   2.632  1.00  0.00     0.038 A 
ENDBRANCH  23  24
ENDBRANCH  22  23
ENDBRANCH  19  22
ENDBRANCH   3  18
TORSDOF 8
ENDMDL
MODEL 7
REMARK VINA RESULT:      -8.0      5.767      7.635
REMARK  8 active torsions:
REMARK  status: ('A' for Active; 'I' for Inactive)
REMARK    1  A    between atoms: N_4  and  C_5 
REMARK    2  A    between atoms: C_5  and  C_6 
REMARK    3  A    between atoms: C_6  and  C_7 
REMARK    4  A    between atoms: C_7  and  N_8 
REMARK       I    between atoms: N_8  and  C_9 
REMARK       I    between atoms: C_9  and  N_10 
REMARK    5  A    between atoms: N_10  and  N_11 
REMARK       I    between atoms: N_11  and  C_12 
REMARK    6  A    between atoms: C_12  and  C_13 
REMARK    7  A    between atoms: C_13  and  O_14 
REMARK    8  A    between atoms: O_14  and  C_15 
ROOT
HETATM    1  N   UNL     1      41.607 -17.453   2.849  1.00  0.00    -0.341 N 
HETATM    2  C   UNL     1      40.730 -16.954   1.916  1.00  0.00     0.334 C 
HETATM    3  N   UNL     1      39.630 -16.373   2.517  1.00  0.00    -0.249 N 
HETATM    4  O   UNL     1      40.925 -16.977   0.708  1.00  0.00    -0.246 OA
HETATM    5  H   UNL     1      41.223 -17.761   3.730  1.00  0.00     0.164 HD
HETATM    6  H   UNL     1      39.704 -16.084   3.486  1.00  0.00     0.192 HD
ENDROOT
BRANCH   1   7
HETATM    7  C   UNL     1      42.938 -17.910   2.500  1.00  0.00     0.130 C 
BRANCH   7   8
HETATM    8  C   UNL     1      43.309 -19.288   3.072  1.00  0.00     0.019 C 
HETATM    9  C   UNL     1      43.594 -20.314   1.972  1.00  0.00     0.013 C 
BRANCH   8  10
HETATM   10  C   UNL     1      44.553 -19.165   3.974  1.00  0.00     0.156 C 
BRANCH  10  11
HETATM   11  N   UNL     1      44.233 -19.192   5.394  1.00  0.00    -0.274 N 
HETATM   12  N   UNL     1      43.982 -18.020   6.007  1.00  0.00    -0.177 NA
HETATM   13  C   UNL     1      43.675 -18.360   7.262  1.00  0.00     0.053 A 
HETATM   14  C   UNL     1      43.290 -17.323   8.250  1.00  0.00     0.072 C 
HETATM   15  C   UNL     1      43.756 -19.755   7.453  1.00  0.00     0.055 A 
HETATM   16  C   UNL     1      44.122 -20.276   6.228  1.00  0.00     0.028 A 
HETATM   17  C   UNL     1      44.338 -21.683   5.816  1.00  0.00     0.070 C 
ENDBRANCH  10  11
ENDBRANCH   8  10
ENDBRANCH   7   8
ENDBRANCH   1   7
BRANCH   3  18
HETATM   18  N   UNL     1      38.675 -15.718   1.735  1.00  0.00    -0.264 N 
HETATM   19  C   UNL     1      38.629 -14.361   1.510  1.00  0.00     0.260 C 
HETATM   20  O   UNL     1      37.783 -13.918   0.727  1.00  0.00    -0.269 OA
HETATM   21  H   UNL     1      38.119 -16.289   1.105  1.00  0.00     0.190 HD
BRANCH  19  22
HETATM   22  C   UNL     1      39.596 -13.439   2.249  1.00  0.00     0.280 C 
BRANCH  22  23
HETATM   23  O   UNL     1      39.523 -13.746   3.640  1.00  0.00    -0.342 OA
BRANCH  23  24
HETATM   24  C   UNL     1      40.738 -13.809   4.258  1.00  0.00     0.069 A 
HETATM   25  C   UNL     1      40.792 -14.533   5.449  1.00  0.00     0.038 A 
HETATM   26  C   UNL     1      41.998 -14.659   6.140  1.00  0.00     0.022 A 
HETATM   27  C   UNL     1      43.150 -14.075   5.619  1.00  0.00     0.011 A 
HETATM   28 BR   UNL     1      44.784 -14.233   6.556  1.00  0.00    -0.051 Br
HETATM   29  C   UNL     1      43.108 -13.378   4.411  1.00  0.00     0.022 A 
HETATM   30  C   UNL     1      41.898 -13.248   3.724  1.00  0.00     0.038 A 
ENDBRANCH  23  24
ENDBRANCH  22  23
ENDBRANCH  19  22
ENDBRANCH   3  18
TORSDOF 8
ENDMDL
MODEL 8
REMARK VINA RESULT:      -8.0      6.308      9.113
REMARK  8 active torsions:
REMARK  status: ('A' for Active; 'I' for Inactive)
REMARK    1  A    between atoms: N_4  and  C_5 
REMARK    2  A    between atoms: C_5  and  C_6 
REMARK    3  A    between atoms: C_6  and  C_7 
REMARK    4  A    between atoms: C_7  and  N_8 
REMARK       I    between atoms: N_8  and  C_9 
REMARK       I    between atoms: C_9  and  N_10 
REMARK    5  A    between atoms: N_10  and  N_11 
REMARK       I    between atoms: N_11  and  C_12 
REMARK    6  A    between atoms: C_12  and  C_13 
REMARK    7  A    between atoms: C_13  and  O_14 
REMARK    8  A    between atoms: O_14  and  C_15 
ROOT
HETATM    1  N   UNL     1      41.671 -14.905   4.077  1.00  0.00    -0.341 N 
HETATM    2  C   UNL     1      41.647 -15.226   5.412  1.00  0.00     0.334 C 
HETATM    3  N   UNL     1      42.923 -15.417   5.907  1.00  0.00    -0.249 N 
HETATM    4  O   UNL     1      40.629 -15.285   6.088  1.00  0.00    -0.246 OA
HETATM    5  H   UNL     1      42.437 -15.262   3.525  1.00  0.00     0.164 HD
HETATM    6  H   UNL     1      43.705 -15.017   5.400  1.00  0.00     0.192 HD
ENDROOT
BRANCH   1   7
HETATM    7  C   UNL     1      40.496 -14.437   3.368  1.00  0.00     0.130 C 
BRANCH   7   8
HETATM    8  C   UNL     1      40.787 -13.419   2.252  1.00  0.00     0.019 C 
HETATM    9  C   UNL     1      41.085 -12.023   2.803  1.00  0.00     0.013 C 
BRANCH   8  10
HETATM   10  C   UNL     1      41.989 -13.892   1.411  1.00  0.00     0.156 C 
BRANCH  10  11
HETATM   11  N   UNL     1      41.608 -14.395   0.100  1.00  0.00    -0.274 N 
HETATM   12  N   UNL     1      41.525 -13.513  -0.915  1.00  0.00    -0.177 NA
HETATM   13  C   UNL     1      41.214 -14.258  -1.979  1.00  0.00     0.053 A 
HETATM   14  C   UNL     1      41.075 -13.638  -3.318  1.00  0.00     0.072 C 
HETATM   15  C   UNL     1      41.074 -15.619  -1.633  1.00  0.00     0.055 A 
HETATM   16  C   UNL     1      41.333 -15.684  -0.278  1.00  0.00     0.028 A 
HETATM   17  C   UNL     1      41.356 -16.853   0.633  1.00  0.00     0.070 C 
ENDBRANCH  10  11
ENDBRANCH   8  10
ENDBRANCH   7   8
ENDBRANCH   1   7
BRANCH   3  18
HETATM   18  N   UNL     1      43.111 -15.650   7.272  1.00  0.00    -0.264 N 
HETATM   19  C   UNL     1      43.331 -16.882   7.844  1.00  0.00     0.260 C 
HETATM   20  O   UNL     1      43.569 -16.940   9.055  1.00  0.00    -0.269 OA
HETATM   21  H   UNL     1      43.332 -14.847   7.855  1.00  0.00     0.190 HD
BRANCH  19  22
HETATM   22  C   UNL     1      43.247 -18.140   6.984  1.00  0.00     0.280 C 
BRANCH  22  23
HETATM   23  O   UNL     1      44.468 -18.259   6.255  1.00  0.00    -0.342 OA
BRANCH  23  24
HETATM   24  C   UNL     1      44.364 -19.007   5.119  1.00  0.00     0.069 A 
HETATM   25  C   UNL     1      44.881 -20.302   5.178  1.00  0.00     0.038 A 
HETATM   26  C   UNL     1      44.804 -21.139   4.065  1.00  0.00     0.022 A 
HETATM   27  C   UNL     1      44.189 -20.680   2.902  1.00  0.00     0.011 A 
HETATM   28 BR   UNL     1      44.092 -21.807   1.388  1.00  0.00    -0.051 Br
HETATM   29  C   UNL     1      43.641 -19.398   2.849  1.00  0.00     0.022 A 
HETATM   30  C   UNL     1      43.724 -18.559   3.964  1.00  0.00     0.038 A 
ENDBRANCH  23  24
ENDBRANCH  22  23
ENDBRANCH  19  22
ENDBRANCH   3  18
TORSDOF 8
ENDMDL
MODEL 9
REMARK VINA RESULT:      -8.0      1.760      2.625
REMARK  8 active torsions:
REMARK  status: ('A' for Active; 'I' for Inactive)
REMARK    1  A    between atoms: N_4  and  C_5 
REMARK    2  A    between atoms: C_5  and  C_6 
REMARK    3  A    between atoms: C_6  and  C_7 
REMARK    4  A    between atoms: C_7  and  N_8 
REMARK       I    between atoms: N_8  and  C_9 
REMARK       I    between atoms: C_9  and  N_10 
REMARK    5  A    between atoms: N_10  and  N_11 
REMARK       I    between atoms: N_11  and  C_12 
REMARK    6  A    between atoms: C_12  and  C_13 
REMARK    7  A    between atoms: C_13  and  O_14 
REMARK    8  A    between atoms: O_14  and  C_15 
ROOT
HETATM    1  N   UNL     1      42.256 -13.297   5.358  1.00  0.00    -0.341 N 
HETATM    2  C   UNL     1      43.456 -13.405   6.020  1.00  0.00     0.334 C 
HETATM    3  N   UNL     1      43.314 -13.130   7.367  1.00  0.00    -0.249 N 
HETATM    4  O   UNL     1      44.504 -13.749   5.492  1.00  0.00    -0.246 OA
HETATM    5  H   UNL     1      41.576 -12.650   5.728  1.00  0.00     0.164 HD
HETATM    6  H   UNL     1      42.392 -13.200   7.782  1.00  0.00     0.192 HD
ENDROOT
BRANCH   1   7
HETATM    7  C   UNL     1      42.079 -13.747   3.991  1.00  0.00     0.130 C 
BRANCH   7   8
HETATM    8  C   UNL     1      41.893 -15.266   3.838  1.00  0.00     0.019 C 
HETATM    9  C   UNL     1      40.628 -15.618   3.051  1.00  0.00     0.013 C 
BRANCH   8  10
HETATM   10  C   UNL     1      43.113 -15.875   3.120  1.00  0.00     0.156 C 
BRANCH  10  11
HETATM   11  N   UNL     1      43.539 -17.143   3.693  1.00  0.00    -0.274 N 
HETATM   12  N   UNL     1      43.705 -17.208   5.028  1.00  0.00    -0.177 NA
HETATM   13  C   UNL     1      44.038 -18.481   5.260  1.00  0.00     0.053 A 
HETATM   14  C   UNL     1      44.266 -18.959   6.644  1.00  0.00     0.072 C 
HETATM   15  C   UNL     1      44.110 -19.222   4.062  1.00  0.00     0.055 A 
HETATM   16  C   UNL     1      43.783 -18.333   3.057  1.00  0.00     0.028 A 
HETATM   17  C   UNL     1      43.671 -18.547   1.595  1.00  0.00     0.070 C 
ENDBRANCH  10  11
ENDBRANCH   8  10
ENDBRANCH   7   8
ENDBRANCH   1   7
BRANCH   3  18
HETATM   18  N   UNL     1      44.405 -13.288   8.227  1.00  0.00    -0.264 N 
HETATM   19  C   UNL     1      44.751 -12.420   9.237  1.00  0.00     0.260 C 
HETATM   20  O   UNL     1      45.689 -12.722   9.982  1.00  0.00    -0.269 OA
HETATM   21  H   UNL     1      44.835 -14.207   8.268  1.00  0.00     0.190 HD
BRANCH  19  22
HETATM   22  C   UNL     1      43.994 -11.104   9.395  1.00  0.00     0.280 C 
BRANCH  22  23
HETATM   23  O   UNL     1      42.706 -11.397   9.933  1.00  0.00    -0.342 OA
BRANCH  23  24
HETATM   24  C   UNL     1      42.536 -10.979  11.221  1.00  0.00     0.069 A 
HETATM   25  C   UNL     1      43.526 -10.142  11.738  1.00  0.00     0.038 A 
HETATM   26  C   UNL     1      43.425  -9.658  13.042  1.00  0.00     0.022 A 
HETATM   27  C   UNL     1      42.318  -9.999  13.816  1.00  0.00     0.011 A 
HETATM   28 BR   UNL     1      42.182  -9.354  15.587  1.00  0.00    -0.051 Br
HETATM   29  C   UNL     1      41.309 -10.808  13.293  1.00  0.00     0.022 A 
HETATM   30  C   UNL     1      41.416 -11.297  11.988  1.00  0.00     0.038 A 
ENDBRANCH  23  24
ENDBRANCH  22  23
ENDBRANCH  19  22
ENDBRANCH   3  18
TORSDOF 8
ENDMDL
MODEL 10
REMARK VINA RESULT:      -7.9      3.052      3.872
REMARK  8 active torsions:
REMARK  status: ('A' for Active; 'I' for Inactive)
REMARK    1  A    between atoms: N_4  and  C_5 
REMARK    2  A    between atoms: C_5  and  C_6 
REMARK    3  A    between atoms: C_6  and  C_7 
REMARK    4  A    between atoms: C_7  and  N_8 
REMARK       I    between atoms: N_8  and  C_9 
REMARK       I    between atoms: C_9  and  N_10 
REMARK    5  A    between atoms: N_10  and  N_11 
REMARK       I    between atoms: N_11  and  C_12 
REMARK    6  A    between atoms: C_12  and  C_13 
REMARK    7  A    between atoms: C_13  and  O_14 
REMARK    8  A    between atoms: O_14  and  C_15 
ROOT
HETATM    1  N   UNL     1      42.134 -15.432   6.615  1.00  0.00    -0.341 N 
HETATM    2  C   UNL     1      41.244 -14.825   5.762  1.00  0.00     0.334 C 
HETATM    3  N   UNL     1      40.191 -14.257   6.452  1.00  0.00    -0.249 N 
HETATM    4  O   UNL     1      41.393 -14.755   4.549  1.00  0.00    -0.246 OA
HETATM    5  H   UNL     1      41.771 -15.799   7.483  1.00  0.00     0.164 HD
HETATM    6  H   UNL     1      40.311 -14.052   7.437  1.00  0.00     0.192 HD
ENDROOT
BRANCH   1   7
HETATM    7  C   UNL     1      43.431 -15.906   6.178  1.00  0.00     0.130 C 
BRANCH   7   8
HETATM    8  C   UNL     1      43.734 -17.368   6.548  1.00  0.00     0.019 C 
HETATM    9  C   UNL     1      43.528 -17.643   8.040  1.00  0.00     0.013 C 
BRANCH   8  10
HETATM   10  C   UNL     1      42.828 -18.314   5.736  1.00  0.00     0.156 C 
BRANCH  10  11
HETATM   11  N   UNL     1      43.378 -18.653   4.432  1.00  0.00    -0.274 N 
HETATM   12  N   UNL     1      43.077 -17.852   3.392  1.00  0.00    -0.177 NA
HETATM   13  C   UNL     1      43.752 -18.373   2.364  1.00  0.00     0.053 A 
HETATM   14  C   UNL     1      43.705 -17.730   1.029  1.00  0.00     0.072 C 
HETATM   15  C   UNL     1      44.467 -19.527   2.748  1.00  0.00     0.055 A 
HETATM   16  C   UNL     1      44.208 -19.691   4.095  1.00  0.00     0.028 A 
HETATM   17  C   UNL     1      44.703 -20.719   5.042  1.00  0.00     0.070 C 
ENDBRANCH  10  11
ENDBRANCH   8  10
ENDBRANCH   7   8
ENDBRANCH   1   7
BRANCH   3  18
HETATM   18  N   UNL     1      39.234 -13.504   5.765  1.00  0.00    -0.264 N 
HETATM   19  C   UNL     1      39.187 -12.129   5.722  1.00  0.00     0.260 C 
HETATM   20  O   UNL     1      38.340 -11.587   5.005  1.00  0.00    -0.269 OA
HETATM   21  H   UNL     1      38.678 -13.987   5.065  1.00  0.00     0.190 HD
BRANCH  19  22
HETATM   22  C   UNL     1      40.154 -11.313   6.576  1.00  0.00     0.280 C 
BRANCH  22  23
HETATM   23  O   UNL     1      39.614 -11.225   7.893  1.00  0.00    -0.342 OA
BRANCH  23  24
HETATM   24  C   UNL     1      40.540 -10.936   8.853  1.00  0.00     0.069 A 
HETATM   25  C   UNL     1      40.128 -11.089  10.178  1.00  0.00     0.038 A 
HETATM   26  C   UNL     1      41.015 -10.827  11.223  1.00  0.00     0.022 A 
HETATM   27  C   UNL     1      42.320 -10.435  10.932  1.00  0.00     0.011 A 
HETATM   28 BR   UNL     1      43.522 -10.068  12.343  1.00  0.00    -0.051 Br
HETATM   29  C   UNL     1      42.746 -10.313   9.609  1.00  0.00     0.022 A 
HETATM   30  C   UNL     1      41.853 -10.569   8.564  1.00  0.00     0.038 A 
ENDBRANCH  23  24
ENDBRANCH  22  23
ENDBRANCH  19  22
ENDBRANCH   3  18
TORSDOF 8
ENDMDL
