MODEL 1
REMARK VINA RESULT:      -9.0      0.000      0.000
REMARK  7 active torsions:
REMARK  status: ('A' for Active; 'I' for Inactive)
REMARK    1  A    between atoms: C_2  and  O_3 
REMARK    2  A    between atoms: O_3  and  C_4 
REMARK    3  A    between atoms: C_5  and  N_6 
REMARK       I    between atoms: N_6  and  C_7 
REMARK    4  A    between atoms: C_7  and  C_8 
REMARK    5  A    between atoms: C_8  and  N_9 
REMARK    6  A    between atoms: C_20  and  C_21 
REMARK       I    between atoms: C_21  and  N_22 
REMARK    7  A    between atoms: N_22  and  C_23 
ROOT
HETATM    1  N   UNL     1      40.912 -15.401   2.893  1.00  0.00    -0.304 N 
HETATM    2  C   UNL     1      39.962 -14.380   3.009  1.00  0.00     0.259 C 
HETATM    3  O   UNL     1      38.878 -14.403   2.426  1.00  0.00    -0.270 OA
HETATM    4  C   UNL     1      40.438 -13.187   3.858  1.00  0.00     0.141 C 
HETATM    5  C   UNL     1      41.471 -12.366   3.068  1.00  0.00     0.057 C 
HETATM    6  C   UNL     1      39.244 -12.283   4.189  1.00  0.00     0.057 C 
HETATM    7  O   UNL     1      41.004 -13.572   5.111  1.00  0.00    -0.329 OA
HETATM    8  C   UNL     1      41.791 -14.692   5.061  1.00  0.00     0.097 A 
HETATM    9  C   UNL     1      41.814 -15.596   3.984  1.00  0.00     0.072 A 
HETATM   10  C   UNL     1      42.564 -14.905   6.206  1.00  0.00     0.040 A 
HETATM   11  C   UNL     1      43.400 -16.013   6.291  1.00  0.00     0.020 A 
HETATM   12  C   UNL     1      43.477 -16.901   5.216  1.00  0.00     0.034 A 
HETATM   13  C   UNL     1      42.683 -16.693   4.073  1.00  0.00     0.049 A 
ENDROOT
BRANCH   1  14
HETATM   14  C   UNL     1      40.637 -16.436   1.901  1.00  0.00     0.235 C 
BRANCH  14  15
HETATM   15  C   UNL     1      41.345 -16.170   0.556  1.00  0.00     0.240 C 
HETATM   16  N   UNL     1      40.683 -15.213  -0.193  1.00  0.00    -0.323 N 
HETATM   17  H   UNL     1      39.695 -15.050  -0.020  1.00  0.00     0.169 HD
HETATM   18  O   UNL     1      42.348 -16.780   0.195  1.00  0.00    -0.271 OA
BRANCH  16  19
HETATM   19  C   UNL     1      41.222 -14.426  -1.232  1.00  0.00     0.068 A 
HETATM   20  C   UNL     1      40.842 -14.739  -2.551  1.00  0.00     0.095 A 
HETATM   21  C   UNL     1      41.235 -13.910  -3.606  1.00  0.00     0.039 A 
HETATM   22  C   UNL     1      42.031 -12.791  -3.354  1.00  0.00     0.003 A 
HETATM   23  C   UNL     1      42.436 -12.500  -2.052  1.00  0.00     0.002 A 
HETATM   24  C   UNL     1      42.032 -13.315  -0.992  1.00  0.00     0.032 A 
BRANCH  20  25
HETATM   25  O   UNL     1      40.064 -15.864  -2.710  1.00  0.00    -0.349 OA
BRANCH  25  26
HETATM   26  C   UNL     1      39.322 -15.921  -3.932  1.00  0.00     0.171 C 
HETATM   27  C   UNL     1      37.919 -15.412  -3.656  1.00  0.00     0.034 C 
ENDBRANCH  25  26
ENDBRANCH  20  25
ENDBRANCH  16  19
ENDBRANCH  14  15
ENDBRANCH   1  14
BRANCH  12  28
HETATM   28  C   UNL     1      44.340 -18.114   5.260  1.00  0.00     0.252 C 
HETATM   29  N   UNL     1      43.983 -19.154   4.428  1.00  0.00    -0.352 N 
HETATM   30  H   UNL     1      43.136 -19.098   3.881  1.00  0.00     0.163 HD
HETATM   31  O   UNL     1      45.295 -18.154   6.026  1.00  0.00    -0.268 OA
BRANCH  29  32
HETATM   32  C   UNL     1      44.770 -20.366   4.353  1.00  0.00     0.084 C 
HETATM   33  C   UNL     1      44.453 -21.340   5.483  1.00  0.00     0.025 C 
HETATM   34  C   UNL     1      45.030 -22.648   4.970  1.00  0.00     0.002 C 
HETATM   35  C   UNL     1      44.714 -22.646   3.478  1.00  0.00     0.002 C 
HETATM   36  C   UNL     1      44.488 -21.183   3.089  1.00  0.00     0.025 C 
ENDBRANCH  29  32
ENDBRANCH  12  28
TORSDOF 7
ENDMDL
MODEL 2
REMARK VINA RESULT:      -8.8      1.126      1.675
REMARK  7 active torsions:
REMARK  status: ('A' for Active; 'I' for Inactive)
REMARK    1  A    between atoms: C_2  and  O_3 
REMARK    2  A    between atoms: O_3  and  C_4 
REMARK    3  A    between atoms: C_5  and  N_6 
REMARK       I    between atoms: N_6  and  C_7 
REMARK    4  A    between atoms: C_7  and  C_8 
REMARK    5  A    between atoms: C_8  and  N_9 
REMARK    6  A    between atoms: C_20  and  C_21 
REMARK       I    between atoms: C_21  and  N_22 
REMARK    7  A    between atoms: N_22  and  C_23 
ROOT
HETATM    1  N   UNL     1      41.021 -15.399   3.137  1.00  0.00    -0.304 N 
HETATM    2  C   UNL     1      40.127 -14.331   3.271  1.00  0.00     0.259 C 
HETATM    3  O   UNL     1      39.000 -14.331   2.775  1.00  0.00    -0.270 OA
HETATM    4  C   UNL     1      40.719 -13.120   4.017  1.00  0.00     0.141 C 
HETATM    5  C   UNL     1      41.721 -12.389   3.107  1.00  0.00     0.057 C 
HETATM    6  C   UNL     1      39.595 -12.146   4.389  1.00  0.00     0.057 C 
HETATM    7  O   UNL     1      41.366 -13.469   5.241  1.00  0.00    -0.329 OA
HETATM    8  C   UNL     1      42.098 -14.625   5.190  1.00  0.00     0.097 A 
HETATM    9  C   UNL     1      41.997 -15.582   4.163  1.00  0.00     0.072 A 
HETATM   10  C   UNL     1      42.949 -14.817   6.282  1.00  0.00     0.040 A 
HETATM   11  C   UNL     1      43.741 -15.958   6.361  1.00  0.00     0.020 A 
HETATM   12  C   UNL     1      43.694 -16.901   5.331  1.00  0.00     0.034 A 
HETATM   13  C   UNL     1      42.822 -16.712   4.243  1.00  0.00     0.049 A 
ENDROOT
BRANCH   1  14
HETATM   14  C   UNL     1      40.624 -16.468   2.224  1.00  0.00     0.235 C 
BRANCH  14  15
HETATM   15  C   UNL     1      41.191 -16.274   0.803  1.00  0.00     0.240 C 
HETATM   16  N   UNL     1      40.306 -15.596  -0.016  1.00  0.00    -0.323 N 
HETATM   17  H   UNL     1      39.316 -15.611   0.211  1.00  0.00     0.169 HD
HETATM   18  O   UNL     1      42.281 -16.718   0.450  1.00  0.00    -0.271 OA
BRANCH  16  19
HETATM   19  C   UNL     1      40.614 -14.886  -1.195  1.00  0.00     0.068 A 
HETATM   20  C   UNL     1      40.668 -13.481  -1.115  1.00  0.00     0.095 A 
HETATM   21  C   UNL     1      41.102 -12.735  -2.215  1.00  0.00     0.039 A 
HETATM   22  C   UNL     1      41.450 -13.382  -3.402  1.00  0.00     0.003 A 
HETATM   23  C   UNL     1      41.364 -14.771  -3.492  1.00  0.00     0.002 A 
HETATM   24  C   UNL     1      40.947 -15.522  -2.391  1.00  0.00     0.032 A 
BRANCH  20  25
HETATM   25  O   UNL     1      40.300 -12.925   0.090  1.00  0.00    -0.349 OA
BRANCH  25  26
HETATM   26  C   UNL     1      39.296 -11.909   0.008  1.00  0.00     0.171 C 
HETATM   27  C   UNL     1      37.945 -12.588  -0.124  1.00  0.00     0.034 C 
ENDBRANCH  25  26
ENDBRANCH  20  25
ENDBRANCH  16  19
ENDBRANCH  14  15
ENDBRANCH   1  14
BRANCH  12  28
HETATM   28  C   UNL     1      44.506 -18.149   5.373  1.00  0.00     0.252 C 
HETATM   29  N   UNL     1      44.126 -19.159   4.514  1.00  0.00    -0.352 N 
HETATM   30  H   UNL     1      43.295 -19.059   3.950  1.00  0.00     0.163 HD
HETATM   31  O   UNL     1      45.440 -18.242   6.160  1.00  0.00    -0.268 OA
BRANCH  29  32
HETATM   32  C   UNL     1      44.864 -20.401   4.436  1.00  0.00     0.084 C 
HETATM   33  C   UNL     1      44.499 -21.371   5.554  1.00  0.00     0.025 C 
HETATM   34  C   UNL     1      45.027 -22.697   5.035  1.00  0.00     0.002 C 
HETATM   35  C   UNL     1      44.723 -22.669   3.541  1.00  0.00     0.002 C 
HETATM   36  C   UNL     1      44.560 -21.195   3.162  1.00  0.00     0.025 C 
ENDBRANCH  29  32
ENDBRANCH  12  28
TORSDOF 7
ENDMDL
MODEL 3
REMARK VINA RESULT:      -8.6      3.233      7.916
REMARK  7 active torsions:
REMARK  status: ('A' for Active; 'I' for Inactive)
REMARK    1  A    between atoms: C_2  and  O_3 
REMARK    2  A    between atoms: O_3  and  C_4 
REMARK    3  A    between atoms: C_5  and  N_6 
REMARK       I    between atoms: N_6  and  C_7 
REMARK    4  A    between atoms: C_7  and  C_8 
REMARK    5  A    between atoms: C_8  and  N_9 
REMARK    6  A    between atoms: C_20  and  C_21 
REMARK       I    between atoms: C_21  and  N_22 
REMARK    7  A    between atoms: N_22  and  C_23 
ROOT
HETATM    1  N   UNL     1      41.375 -14.375   4.241  1.00  0.00    -0.304 N 
HETATM    2  C   UNL     1      40.534 -15.029   3.333  1.00  0.00     0.259 C 
HETATM    3  O   UNL     1      40.454 -16.255   3.255  1.00  0.00    -0.270 OA
HETATM    4  C   UNL     1      39.790 -14.074   2.381  1.00  0.00     0.141 C 
HETATM    5  C   UNL     1      40.770 -13.517   1.334  1.00  0.00     0.057 C 
HETATM    6  C   UNL     1      38.677 -14.836   1.654  1.00  0.00     0.057 C 
HETATM    7  O   UNL     1      39.155 -12.986   3.053  1.00  0.00    -0.329 OA
HETATM    8  C   UNL     1      39.881 -12.447   4.081  1.00  0.00     0.097 A 
HETATM    9  C   UNL     1      40.999 -13.066   4.670  1.00  0.00     0.072 A 
HETATM   10  C   UNL     1      39.398 -11.222   4.548  1.00  0.00     0.040 A 
HETATM   11  C   UNL     1      40.037 -10.571   5.599  1.00  0.00     0.020 A 
HETATM   12  C   UNL     1      41.176 -11.141   6.170  1.00  0.00     0.034 A 
HETATM   13  C   UNL     1      41.648 -12.384   5.709  1.00  0.00     0.049 A 
ENDROOT
BRANCH   1  14
HETATM   14  C   UNL     1      42.300 -15.218   4.992  1.00  0.00     0.235 C 
BRANCH  14  15
HETATM   15  C   UNL     1      43.198 -16.074   4.076  1.00  0.00     0.240 C 
HETATM   16  N   UNL     1      43.239 -17.396   4.485  1.00  0.00    -0.323 N 
HETATM   17  H   UNL     1      43.028 -17.617   5.454  1.00  0.00     0.169 HD
HETATM   18  O   UNL     1      43.829 -15.608   3.130  1.00  0.00    -0.271 OA
BRANCH  16  19
HETATM   19  C   UNL     1      43.585 -18.516   3.702  1.00  0.00     0.068 A 
HETATM   20  C   UNL     1      44.376 -19.513   4.303  1.00  0.00     0.095 A 
HETATM   21  C   UNL     1      44.634 -20.707   3.621  1.00  0.00     0.039 A 
HETATM   22  C   UNL     1      44.132 -20.894   2.332  1.00  0.00     0.003 A 
HETATM   23  C   UNL     1      43.377 -19.893   1.723  1.00  0.00     0.002 A 
HETATM   24  C   UNL     1      43.103 -18.706   2.406  1.00  0.00     0.032 A 
BRANCH  20  25
HETATM   25  O   UNL     1      44.836 -19.243   5.573  1.00  0.00    -0.349 OA
BRANCH  25  26
HETATM   26  C   UNL     1      44.101 -19.866   6.630  1.00  0.00     0.171 C 
HETATM   27  C   UNL     1      43.930 -18.854   7.748  1.00  0.00     0.034 C 
ENDBRANCH  25  26
ENDBRANCH  20  25
ENDBRANCH  16  19
ENDBRANCH  14  15
ENDBRANCH   1  14
BRANCH  12  28
HETATM   28  C   UNL     1      41.889 -10.499   7.309  1.00  0.00     0.252 C 
HETATM   29  N   UNL     1      42.572 -11.340   8.162  1.00  0.00    -0.352 N 
HETATM   30  H   UNL     1      42.517 -12.341   8.038  1.00  0.00     0.163 HD
HETATM   31  O   UNL     1      41.827  -9.284   7.459  1.00  0.00    -0.268 OA
BRANCH  29  32
HETATM   32  C   UNL     1      43.336 -10.826   9.279  1.00  0.00     0.084 C 
HETATM   33  C   UNL     1      42.703 -11.163  10.624  1.00  0.00     0.025 C 
HETATM   34  C   UNL     1      43.845 -10.936  11.599  1.00  0.00     0.002 C 
HETATM   35  C   UNL     1      45.079 -11.457  10.869  1.00  0.00     0.002 C 
HETATM   36  C   UNL     1      44.734 -11.443   9.378  1.00  0.00     0.025 C 
ENDBRANCH  29  32
ENDBRANCH  12  28
TORSDOF 7
ENDMDL
MODEL 4
REMARK VINA RESULT:      -8.4      3.517      8.218
REMARK  7 active torsions:
REMARK  status: ('A' for Active; 'I' for Inactive)
REMARK    1  A    between atoms: C_2  and  O_3 
REMARK    2  A    between atoms: O_3  and  C_4 
REMARK    3  A    between atoms: C_5  and  N_6 
REMARK       I    between atoms: N_6  and  C_7 
REMARK    4  A    between atoms: C_7  and  C_8 
REMARK    5  A    between atoms: C_8  and  N_9 
REMARK    6  A    between atoms: C_20  and  C_21 
REMARK       I    between atoms: C_21  and  N_22 
REMARK    7  A    between atoms: N_22  and  C_23 
ROOT
HETATM    1  N   UNL     1      42.023 -13.481   3.631  1.00  0.00    -0.304 N 
HETATM    2  C   UNL     1      41.324 -14.362   2.797  1.00  0.00     0.259 C 
HETATM    3  O   UNL     1      41.824 -15.388   2.337  1.00  0.00    -0.270 OA
HETATM    4  C   UNL     1      39.907 -13.880   2.438  1.00  0.00     0.141 C 
HETATM    5  C   UNL     1      39.992 -12.724   1.427  1.00  0.00     0.057 C 
HETATM    6  C   UNL     1      39.119 -15.030   1.800  1.00  0.00     0.057 C 
HETATM    7  O   UNL     1      39.148 -13.457   3.571  1.00  0.00    -0.329 OA
HETATM    8  C   UNL     1      39.860 -12.751   4.504  1.00  0.00     0.097 A 
HETATM    9  C   UNL     1      41.264 -12.697   4.553  1.00  0.00     0.072 A 
HETATM   10  C   UNL     1      39.073 -12.102   5.459  1.00  0.00     0.040 A 
HETATM   11  C   UNL     1      39.671 -11.358   6.472  1.00  0.00     0.020 A 
HETATM   12  C   UNL     1      41.062 -11.250   6.515  1.00  0.00     0.034 A 
HETATM   13  C   UNL     1      41.851 -11.921   5.562  1.00  0.00     0.049 A 
ENDROOT
BRANCH   1  14
HETATM   14  C   UNL     1      43.450 -13.740   3.801  1.00  0.00     0.235 C 
BRANCH  14  15
HETATM   15  C   UNL     1      43.768 -14.455   5.130  1.00  0.00     0.240 C 
HETATM   16  N   UNL     1      43.030 -15.616   5.279  1.00  0.00    -0.323 N 
HETATM   17  H   UNL     1      42.157 -15.713   4.768  1.00  0.00     0.169 HD
HETATM   18  O   UNL     1      44.552 -14.006   5.962  1.00  0.00    -0.271 OA
BRANCH  16  19
HETATM   19  C   UNL     1      43.332 -16.713   6.111  1.00  0.00     0.068 A 
HETATM   20  C   UNL     1      43.930 -17.840   5.515  1.00  0.00     0.095 A 
HETATM   21  C   UNL     1      44.376 -18.899   6.312  1.00  0.00     0.039 A 
HETATM   22  C   UNL     1      44.198 -18.851   7.696  1.00  0.00     0.003 A 
HETATM   23  C   UNL     1      43.576 -17.751   8.283  1.00  0.00     0.002 A 
HETATM   24  C   UNL     1      43.144 -16.683   7.494  1.00  0.00     0.032 A 
BRANCH  20  25
HETATM   25  O   UNL     1      44.058 -17.807   4.144  1.00  0.00    -0.349 OA
BRANCH  25  26
HETATM   26  C   UNL     1      43.272 -18.771   3.438  1.00  0.00     0.171 C 
HETATM   27  C   UNL     1      44.207 -19.614   2.589  1.00  0.00     0.034 C 
ENDBRANCH  25  26
ENDBRANCH  20  25
ENDBRANCH  16  19
ENDBRANCH  14  15
ENDBRANCH   1  14
BRANCH  12  28
HETATM   28  C   UNL     1      41.757 -10.483   7.587  1.00  0.00     0.252 C 
HETATM   29  N   UNL     1      41.962 -11.142   8.781  1.00  0.00    -0.352 N 
HETATM   30  H   UNL     1      41.586 -12.070   8.919  1.00  0.00     0.163 HD
HETATM   31  O   UNL     1      42.092  -9.322   7.386  1.00  0.00    -0.268 OA
BRANCH  29  32
HETATM   32  C   UNL     1      42.662 -10.514   9.880  1.00  0.00     0.084 C 
HETATM   33  C   UNL     1      42.259 -11.086  11.234  1.00  0.00     0.025 C 
HETATM   34  C   UNL     1      43.385 -10.625  12.143  1.00  0.00     0.002 C 
HETATM   35  C   UNL     1      44.642 -10.757  11.289  1.00  0.00     0.002 C 
HETATM   36  C   UNL     1      44.175 -10.745   9.832  1.00  0.00     0.025 C 
ENDBRANCH  29  32
ENDBRANCH  12  28
TORSDOF 7
ENDMDL
MODEL 5
REMARK VINA RESULT:      -8.4      3.228      8.963
REMARK  7 active torsions:
REMARK  status: ('A' for Active; 'I' for Inactive)
REMARK    1  A    between atoms: C_2  and  O_3 
REMARK    2  A    between atoms: O_3  and  C_4 
REMARK    3  A    between atoms: C_5  and  N_6 
REMARK       I    between atoms: N_6  and  C_7 
REMARK    4  A    between atoms: C_7  and  C_8 
REMARK    5  A    between atoms: C_8  and  N_9 
REMARK    6  A    between atoms: C_20  and  C_21 
REMARK       I    between atoms: C_21  and  N_22 
REMARK    7  A    between atoms: N_22  and  C_23 
ROOT
HETATM    1  N   UNL     1      42.872 -16.235   5.465  1.00  0.00    -0.304 N 
HETATM    2  C   UNL     1      43.008 -17.221   6.449  1.00  0.00     0.259 C 
HETATM    3  O   UNL     1      42.585 -17.086   7.597  1.00  0.00    -0.270 OA
HETATM    4  C   UNL     1      43.815 -18.448   5.987  1.00  0.00     0.141 C 
HETATM    5  C   UNL     1      45.308 -18.086   5.904  1.00  0.00     0.057 C 
HETATM    6  C   UNL     1      43.643 -19.587   6.999  1.00  0.00     0.057 C 
HETATM    7  O   UNL     1      43.388 -18.966   4.727  1.00  0.00    -0.329 OA
HETATM    8  C   UNL     1      43.062 -18.014   3.799  1.00  0.00     0.097 A 
HETATM    9  C   UNL     1      42.839 -16.658   4.101  1.00  0.00     0.072 A 
HETATM   10  C   UNL     1      42.919 -18.502   2.498  1.00  0.00     0.040 A 
HETATM   11  C   UNL     1      42.577 -17.641   1.460  1.00  0.00     0.020 A 
HETATM   12  C   UNL     1      42.397 -16.282   1.725  1.00  0.00     0.034 A 
HETATM   13  C   UNL     1      42.523 -15.798   3.040  1.00  0.00     0.049 A 
ENDROOT
BRANCH   1  14
HETATM   14  C   UNL     1      42.350 -14.944   5.906  1.00  0.00     0.235 C 
BRANCH  14  15
HETATM   15  C   UNL     1      43.467 -13.915   6.174  1.00  0.00     0.240 C 
HETATM   16  N   UNL     1      43.203 -13.151   7.298  1.00  0.00    -0.323 N 
HETATM   17  H   UNL     1      42.241 -13.052   7.610  1.00  0.00     0.169 HD
HETATM   18  O   UNL     1      44.442 -13.775   5.439  1.00  0.00    -0.271 OA
BRANCH  16  19
HETATM   19  C   UNL     1      44.136 -12.436   8.076  1.00  0.00     0.068 A 
HETATM   20  C   UNL     1      43.652 -11.373   8.862  1.00  0.00     0.095 A 
HETATM   21  C   UNL     1      44.505 -10.719   9.756  1.00  0.00     0.039 A 
HETATM   22  C   UNL     1      45.845 -11.101   9.845  1.00  0.00     0.003 A 
HETATM   23  C   UNL     1      46.333 -12.131   9.043  1.00  0.00     0.002 A 
HETATM   24  C   UNL     1      45.481 -12.799   8.160  1.00  0.00     0.032 A 
BRANCH  20  25
HETATM   25  O   UNL     1      42.320 -11.058   8.705  1.00  0.00    -0.349 OA
BRANCH  25  26
HETATM   26  C   UNL     1      41.638 -10.692   9.908  1.00  0.00     0.171 C 
HETATM   27  C   UNL     1      40.146 -10.692   9.625  1.00  0.00     0.034 C 
ENDBRANCH  25  26
ENDBRANCH  20  25
ENDBRANCH  16  19
ENDBRANCH  14  15
ENDBRANCH   1  14
BRANCH  12  28
HETATM   28  C   UNL     1      42.011 -15.318   0.656  1.00  0.00     0.252 C 
HETATM   29  N   UNL     1      41.514 -15.859  -0.511  1.00  0.00    -0.352 N 
HETATM   30  H   UNL     1      41.491 -16.862  -0.635  1.00  0.00     0.163 HD
HETATM   31  O   UNL     1      42.165 -14.116   0.836  1.00  0.00    -0.268 OA
BRANCH  29  32
HETATM   32  C   UNL     1      41.068 -15.021  -1.603  1.00  0.00     0.084 C 
HETATM   33  C   UNL     1      40.782 -15.816  -2.871  1.00  0.00     0.025 C 
HETATM   34  C   UNL     1      39.942 -14.851  -3.690  1.00  0.00     0.002 C 
HETATM   35  C   UNL     1      39.044 -14.164  -2.667  1.00  0.00     0.002 C 
HETATM   36  C   UNL     1      39.737 -14.322  -1.311  1.00  0.00     0.025 C 
ENDBRANCH  29  32
ENDBRANCH  12  28
TORSDOF 7
ENDMDL
MODEL 6
REMARK VINA RESULT:      -8.3      3.435      7.398
REMARK  7 active torsions:
REMARK  status: ('A' for Active; 'I' for Inactive)
REMARK    1  A    between atoms: C_2  and  O_3 
REMARK    2  A    between atoms: O_3  and  C_4 
REMARK    3  A    between atoms: C_5  and  N_6 
REMARK       I    between atoms: N_6  and  C_7 
REMARK    4  A    between atoms: C_7  and  C_8 
REMARK    5  A    between atoms: C_8  and  N_9 
REMARK    6  A    between atoms: C_20  and  C_21 
REMARK       I    between atoms: C_21  and  N_22 
REMARK    7  A    between atoms: N_22  and  C_23 
ROOT
HETATM    1  N   UNL     1      40.878 -13.744   4.437  1.00  0.00    -0.304 N 
HETATM    2  C   UNL     1      40.238 -14.006   3.220  1.00  0.00     0.259 C 
HETATM    3  O   UNL     1      39.595 -15.034   3.008  1.00  0.00    -0.270 OA
HETATM    4  C   UNL     1      40.490 -12.932   2.146  1.00  0.00     0.141 C 
HETATM    5  C   UNL     1      41.927 -13.060   1.611  1.00  0.00     0.057 C 
HETATM    6  C   UNL     1      39.514 -13.132   0.980  1.00  0.00     0.057 C 
HETATM    7  O   UNL     1      40.282 -11.600   2.615  1.00  0.00    -0.329 OA
HETATM    8  C   UNL     1      40.731 -11.367   3.888  1.00  0.00     0.097 A 
HETATM    9  C   UNL     1      41.075 -12.378   4.804  1.00  0.00     0.072 A 
HETATM   10  C   UNL     1      40.787 -10.016   4.240  1.00  0.00     0.040 A 
HETATM   11  C   UNL     1      41.214  -9.640   5.510  1.00  0.00     0.020 A 
HETATM   12  C   UNL     1      41.606 -10.622   6.422  1.00  0.00     0.034 A 
HETATM   13  C   UNL     1      41.530 -11.982   6.069  1.00  0.00     0.049 A 
ENDROOT
BRANCH   1  14
HETATM   14  C   UNL     1      40.900 -14.834   5.408  1.00  0.00     0.235 C 
BRANCH  14  15
HETATM   15  C   UNL     1      42.156 -15.720   5.276  1.00  0.00     0.240 C 
HETATM   16  N   UNL     1      41.830 -17.056   5.132  1.00  0.00    -0.323 N 
HETATM   17  H   UNL     1      40.930 -17.382   5.470  1.00  0.00     0.169 HD
HETATM   18  O   UNL     1      43.300 -15.275   5.341  1.00  0.00    -0.271 OA
BRANCH  16  19
HETATM   19  C   UNL     1      42.638 -18.072   4.582  1.00  0.00     0.068 A 
HETATM   20  C   UNL     1      42.652 -18.209   3.180  1.00  0.00     0.095 A 
HETATM   21  C   UNL     1      43.537 -19.105   2.574  1.00  0.00     0.039 A 
HETATM   22  C   UNL     1      44.384 -19.888   3.361  1.00  0.00     0.003 A 
HETATM   23  C   UNL     1      44.347 -19.778   4.750  1.00  0.00     0.002 A 
HETATM   24  C   UNL     1      43.477 -18.872   5.360  1.00  0.00     0.032 A 
BRANCH  20  25
HETATM   25  O   UNL     1      41.779 -17.404   2.482  1.00  0.00    -0.349 OA
BRANCH  25  26
HETATM   26  C   UNL     1      42.382 -16.585   1.477  1.00  0.00     0.171 C 
HETATM   27  C   UNL     1      41.495 -16.618   0.245  1.00  0.00     0.034 C 
ENDBRANCH  25  26
ENDBRANCH  20  25
ENDBRANCH  16  19
ENDBRANCH  14  15
ENDBRANCH   1  14
BRANCH  12  28
HETATM   28  C   UNL     1      42.054 -10.278   7.801  1.00  0.00     0.252 C 
HETATM   29  N   UNL     1      42.658 -11.287   8.521  1.00  0.00    -0.352 N 
HETATM   30  H   UNL     1      42.716 -12.220   8.137  1.00  0.00     0.163 HD
HETATM   31  O   UNL     1      41.857  -9.152   8.242  1.00  0.00    -0.268 OA
BRANCH  29  32
HETATM   32  C   UNL     1      43.172 -11.060   9.855  1.00  0.00     0.084 C 
HETATM   33  C   UNL     1      42.092 -11.172  10.925  1.00  0.00     0.025 C 
HETATM   34  C   UNL     1      42.899 -11.340  12.201  1.00  0.00     0.002 C 
HETATM   35  C   UNL     1      44.064 -12.238  11.799  1.00  0.00     0.002 C 
HETATM   36  C   UNL     1      44.206 -12.106  10.281  1.00  0.00     0.025 C 
ENDBRANCH  29  32
ENDBRANCH  12  28
TORSDOF 7
ENDMDL
MODEL 7
REMARK VINA RESULT:      -8.1      1.825      8.347
REMARK  7 active torsions:
REMARK  status: ('A' for Active; 'I' for Inactive)
REMARK    1  A    between atoms: C_2  and  O_3 
REMARK    2  A    between atoms: O_3  and  C_4 
REMARK    3  A    between atoms: C_5  and  N_6 
REMARK       I    between atoms: N_6  and  C_7 
REMARK    4  A    between atoms: C_7  and  C_8 
REMARK    5  A    between atoms: C_8  and  N_9 
REMARK    6  A    between atoms: C_20  and  C_21 
REMARK       I    between atoms: C_21  and  N_22 
REMARK    7  A    between atoms: N_22  and  C_23 
ROOT
HETATM    1  N   UNL     1      41.268 -15.455   2.925  1.00  0.00    -0.304 N 
HETATM    2  C   UNL     1      41.959 -15.306   4.133  1.00  0.00     0.259 C 
HETATM    3  O   UNL     1      42.409 -16.258   4.770  1.00  0.00    -0.270 OA
HETATM    4  C   UNL     1      42.022 -13.851   4.633  1.00  0.00     0.141 C 
HETATM    5  C   UNL     1      40.645 -13.428   5.173  1.00  0.00     0.057 C 
HETATM    6  C   UNL     1      43.047 -13.742   5.768  1.00  0.00     0.057 C 
HETATM    7  O   UNL     1      42.437 -12.924   3.630  1.00  0.00    -0.329 OA
HETATM    8  C   UNL     1      41.923 -13.163   2.384  1.00  0.00     0.097 A 
HETATM    9  C   UNL     1      41.305 -14.367   2.000  1.00  0.00     0.072 A 
HETATM   10  C   UNL     1      42.095 -12.112   1.478  1.00  0.00     0.040 A 
HETATM   11  C   UNL     1      41.630 -12.230   0.172  1.00  0.00     0.020 A 
HETATM   12  C   UNL     1      40.971 -13.396  -0.221  1.00  0.00     0.034 A 
HETATM   13  C   UNL     1      40.816 -14.459   0.689  1.00  0.00     0.049 A 
ENDROOT
BRANCH   1  14
HETATM   14  C   UNL     1      40.945 -16.822   2.525  1.00  0.00     0.235 C 
BRANCH  14  15
HETATM   15  C   UNL     1      42.186 -17.612   2.060  1.00  0.00     0.240 C 
HETATM   16  N   UNL     1      42.605 -18.520   3.016  1.00  0.00    -0.323 N 
HETATM   17  H   UNL     1      42.354 -18.361   3.988  1.00  0.00     0.169 HD
HETATM   18  O   UNL     1      42.745 -17.410   0.985  1.00  0.00    -0.271 OA
BRANCH  16  19
HETATM   19  C   UNL     1      43.398 -19.667   2.808  1.00  0.00     0.068 A 
HETATM   20  C   UNL     1      44.374 -19.970   3.776  1.00  0.00     0.095 A 
HETATM   21  C   UNL     1      45.093 -21.166   3.692  1.00  0.00     0.039 A 
HETATM   22  C   UNL     1      44.866 -22.043   2.630  1.00  0.00     0.003 A 
HETATM   23  C   UNL     1      43.924 -21.726   1.652  1.00  0.00     0.002 A 
HETATM   24  C   UNL     1      43.191 -20.541   1.740  1.00  0.00     0.032 A 
BRANCH  20  25
HETATM   25  O   UNL     1      44.538 -19.047   4.785  1.00  0.00    -0.349 OA
BRANCH  25  26
HETATM   26  C   UNL     1      44.305 -19.544   6.106  1.00  0.00     0.171 C 
HETATM   27  C   UNL     1      44.205 -18.357   7.047  1.00  0.00     0.034 C 
ENDBRANCH  25  26
ENDBRANCH  20  25
ENDBRANCH  16  19
ENDBRANCH  14  15
ENDBRANCH   1  14
BRANCH  12  28
HETATM   28  C   UNL     1      40.469 -13.584  -1.611  1.00  0.00     0.252 C 
HETATM   29  N   UNL     1      39.106 -13.733  -1.758  1.00  0.00    -0.352 N 
HETATM   30  H   UNL     1      38.510 -13.782  -0.943  1.00  0.00     0.163 HD
HETATM   31  O   UNL     1      41.261 -13.619  -2.545  1.00  0.00    -0.268 OA
BRANCH  29  32
HETATM   32  C   UNL     1      38.499 -13.880  -3.063  1.00  0.00     0.084 C 
HETATM   33  C   UNL     1      37.552 -15.073  -3.137  1.00  0.00     0.025 C 
HETATM   34  C   UNL     1      36.734 -14.776  -4.382  1.00  0.00     0.002 C 
HETATM   35  C   UNL     1      36.507 -13.268  -4.338  1.00  0.00     0.002 C 
HETATM   36  C   UNL     1      37.607 -12.694  -3.442  1.00  0.00     0.025 C 
ENDBRANCH  29  32
ENDBRANCH  12  28
TORSDOF 7
ENDMDL
MODEL 8
REMARK VINA RESULT:      -8.1      3.732      8.646
REMARK  7 active torsions:
REMARK  status: ('A' for Active; 'I' for Inactive)
REMARK    1  A    between atoms: C_2  and  O_3 
REMARK    2  A    between atoms: O_3  and  C_4 
REMARK    3  A    between atoms: C_5  and  N_6 
REMARK       I    between atoms: N_6  and  C_7 
REMARK    4  A    between atoms: C_7  and  C_8 
REMARK    5  A    between atoms: C_8  and  N_9 
REMARK    6  A    between atoms: C_20  and  C_21 
REMARK       I    between atoms: C_21  and  N_22 
REMARK    7  A    between atoms: N_22  and  C_23 
ROOT
HETATM    1  N   UNL     1      39.961 -13.229   4.258  1.00  0.00    -0.304 N 
HETATM    2  C   UNL     1      39.439 -13.197   2.960  1.00  0.00     0.259 C 
HETATM    3  O   UNL     1      39.037 -14.202   2.374  1.00  0.00    -0.270 OA
HETATM    4  C   UNL     1      39.501 -11.806   2.303  1.00  0.00     0.141 C 
HETATM    5  C   UNL     1      40.952 -11.482   1.909  1.00  0.00     0.057 C 
HETATM    6  C   UNL     1      38.636 -11.797   1.036  1.00  0.00     0.057 C 
HETATM    7  O   UNL     1      38.997 -10.762   3.136  1.00  0.00    -0.329 OA
HETATM    8  C   UNL     1      39.335 -10.874   4.459  1.00  0.00     0.097 A 
HETATM    9  C   UNL     1      39.849 -12.044   5.048  1.00  0.00     0.072 A 
HETATM   10  C   UNL     1      39.090  -9.725   5.215  1.00  0.00     0.040 A 
HETATM   11  C   UNL     1      39.377  -9.709   6.577  1.00  0.00     0.020 A 
HETATM   12  C   UNL     1      39.932 -10.841   7.177  1.00  0.00     0.034 A 
HETATM   13  C   UNL     1      40.160 -12.002   6.414  1.00  0.00     0.049 A 
ENDROOT
BRANCH   1  14
HETATM   14  C   UNL     1      40.174 -14.550   4.841  1.00  0.00     0.235 C 
BRANCH  14  15
HETATM   15  C   UNL     1      41.642 -15.011   4.742  1.00  0.00     0.240 C 
HETATM   16  N   UNL     1      41.925 -16.027   5.639  1.00  0.00    -0.323 N 
HETATM   17  H   UNL     1      41.345 -16.126   6.467  1.00  0.00     0.169 HD
HETATM   18  O   UNL     1      42.458 -14.493   3.983  1.00  0.00    -0.271 OA
BRANCH  16  19
HETATM   19  C   UNL     1      42.980 -16.958   5.562  1.00  0.00     0.068 A 
HETATM   20  C   UNL     1      44.051 -16.807   6.463  1.00  0.00     0.095 A 
HETATM   21  C   UNL     1      45.055 -17.778   6.524  1.00  0.00     0.039 A 
HETATM   22  C   UNL     1      45.012 -18.880   5.668  1.00  0.00     0.003 A 
HETATM   23  C   UNL     1      43.969 -19.012   4.752  1.00  0.00     0.002 A 
HETATM   24  C   UNL     1      42.955 -18.054   4.698  1.00  0.00     0.032 A 
BRANCH  20  25
HETATM   25  O   UNL     1      44.019 -15.688   7.264  1.00  0.00    -0.349 OA
BRANCH  25  26
HETATM   26  C   UNL     1      44.809 -14.588   6.803  1.00  0.00     0.171 C 
HETATM   27  C   UNL     1      44.692 -13.463   7.815  1.00  0.00     0.034 C 
ENDBRANCH  25  26
ENDBRANCH  20  25
ENDBRANCH  16  19
ENDBRANCH  14  15
ENDBRANCH   1  14
BRANCH  12  28
HETATM   28  C   UNL     1      40.242 -10.885   8.633  1.00  0.00     0.252 C 
HETATM   29  N   UNL     1      41.572 -10.795   8.982  1.00  0.00    -0.352 N 
HETATM   30  H   UNL     1      42.284 -10.773   8.266  1.00  0.00     0.163 HD
HETATM   31  O   UNL     1      39.334 -11.020   9.445  1.00  0.00    -0.268 OA
BRANCH  29  32
HETATM   32  C   UNL     1      41.991 -10.784  10.367  1.00  0.00     0.084 C 
HETATM   33  C   UNL     1      43.424 -11.273  10.549  1.00  0.00     0.025 C 
HETATM   34  C   UNL     1      43.776 -10.772  11.939  1.00  0.00     0.002 C 
HETATM   35  C   UNL     1      43.127  -9.394  12.023  1.00  0.00     0.002 C 
HETATM   36  C   UNL     1      42.015  -9.377  10.972  1.00  0.00     0.025 C 
ENDBRANCH  29  32
ENDBRANCH  12  28
TORSDOF 7
ENDMDL
MODEL 9
REMARK VINA RESULT:      -8.0      1.582      2.417
REMARK  7 active torsions:
REMARK  status: ('A' for Active; 'I' for Inactive)
REMARK    1  A    between atoms: C_2  and  O_3 
REMARK    2  A    between atoms: O_3  and  C_4 
REMARK    3  A    between atoms: C_5  and  N_6 
REMARK       I    between atoms: N_6  and  C_7 
REMARK    4  A    between atoms: C_7  and  C_8 
REMARK    5  A    between atoms: C_8  and  N_9 
REMARK    6  A    between atoms: C_20  and  C_21 
REMARK       I    between atoms: C_21  and  N_22 
REMARK    7  A    between atoms: N_22  and  C_23 
ROOT
HETATM    1  N   UNL     1      41.608 -13.866   3.378  1.00  0.00    -0.304 N 
HETATM    2  C   UNL     1      40.589 -12.991   3.768  1.00  0.00     0.259 C 
HETATM    3  O   UNL     1      39.965 -12.289   2.972  1.00  0.00    -0.270 OA
HETATM    4  C   UNL     1      40.385 -12.920   5.293  1.00  0.00     0.141 C 
HETATM    5  C   UNL     1      41.540 -12.132   5.935  1.00  0.00     0.057 C 
HETATM    6  C   UNL     1      39.068 -12.199   5.603  1.00  0.00     0.057 C 
HETATM    7  O   UNL     1      40.292 -14.203   5.912  1.00  0.00    -0.329 OA
HETATM    8  C   UNL     1      41.154 -15.142   5.413  1.00  0.00     0.097 A 
HETATM    9  C   UNL     1      41.853 -15.009   4.199  1.00  0.00     0.072 A 
HETATM   10  C   UNL     1      41.264 -16.296   6.193  1.00  0.00     0.040 A 
HETATM   11  C   UNL     1      42.098 -17.336   5.793  1.00  0.00     0.020 A 
HETATM   12  C   UNL     1      42.840 -17.209   4.616  1.00  0.00     0.034 A 
HETATM   13  C   UNL     1      42.711 -16.052   3.824  1.00  0.00     0.049 A 
ENDROOT
BRANCH   1  14
HETATM   14  C   UNL     1      42.031 -13.791   1.982  1.00  0.00     0.235 C 
BRANCH  14  15
HETATM   15  C   UNL     1      40.996 -14.405   1.016  1.00  0.00     0.240 C 
HETATM   16  N   UNL     1      40.490 -13.463   0.138  1.00  0.00    -0.323 N 
HETATM   17  H   UNL     1      40.523 -12.482   0.397  1.00  0.00     0.169 HD
HETATM   18  O   UNL     1      40.645 -15.582   1.069  1.00  0.00    -0.271 OA
BRANCH  16  19
HETATM   19  C   UNL     1      39.877 -13.708  -1.108  1.00  0.00     0.068 A 
HETATM   20  C   UNL     1      40.717 -13.903  -2.221  1.00  0.00     0.095 A 
HETATM   21  C   UNL     1      40.170 -14.284  -3.450  1.00  0.00     0.039 A 
HETATM   22  C   UNL     1      38.789 -14.439  -3.581  1.00  0.00     0.003 A 
HETATM   23  C   UNL     1      37.954 -14.212  -2.487  1.00  0.00     0.002 A 
HETATM   24  C   UNL     1      38.496 -13.848  -1.253  1.00  0.00     0.032 A 
BRANCH  20  25
HETATM   25  O   UNL     1      42.065 -13.722  -2.006  1.00  0.00    -0.349 OA
BRANCH  25  26
HETATM   26  C   UNL     1      42.654 -12.636  -2.728  1.00  0.00     0.171 C 
HETATM   27  C   UNL     1      42.886 -11.492  -1.757  1.00  0.00     0.034 C 
ENDBRANCH  25  26
ENDBRANCH  20  25
ENDBRANCH  16  19
ENDBRANCH  14  15
ENDBRANCH   1  14
BRANCH  12  28
HETATM   28  C   UNL     1      43.733 -18.297   4.130  1.00  0.00     0.252 C 
HETATM   29  N   UNL     1      43.919 -19.366   4.980  1.00  0.00    -0.352 N 
HETATM   30  H   UNL     1      43.517 -19.353   5.907  1.00  0.00     0.163 HD
HETATM   31  O   UNL     1      44.274 -18.198   3.035  1.00  0.00    -0.268 OA
BRANCH  29  32
HETATM   32  C   UNL     1      44.732 -20.501   4.600  1.00  0.00     0.084 C 
HETATM   33  C   UNL     1      44.619 -21.659   5.586  1.00  0.00     0.025 C 
HETATM   34  C   UNL     1      45.164 -22.832   4.790  1.00  0.00     0.002 C 
HETATM   35  C   UNL     1      44.634 -22.613   3.377  1.00  0.00     0.002 C 
HETATM   36  C   UNL     1      44.300 -21.124   3.269  1.00  0.00     0.025 C 
ENDBRANCH  29  32
ENDBRANCH  12  28
TORSDOF 7
ENDMDL
MODEL 10
REMARK VINA RESULT:      -8.0      3.311      6.155
REMARK  7 active torsions:
REMARK  status: ('A' for Active; 'I' for Inactive)
REMARK    1  A    between atoms: C_2  and  O_3 
REMARK    2  A    between atoms: O_3  and  C_4 
REMARK    3  A    between atoms: C_5  and  N_6 
REMARK       I    between atoms: N_6  and  C_7 
REMARK    4  A    between atoms: C_7  and  C_8 
REMARK    5  A    between atoms: C_8  and  N_9 
REMARK    6  A    between atoms: C_20  and  C_21 
REMARK       I    between atoms: C_21  and  N_22 
REMARK    7  A    between atoms: N_22  and  C_23 
ROOT
HETATM    1  N   UNL     1      42.941 -14.936   3.430  1.00  0.00    -0.304 N 
HETATM    2  C   UNL     1      42.785 -16.041   2.586  1.00  0.00     0.259 C 
HETATM    3  O   UNL     1      42.848 -15.963   1.360  1.00  0.00    -0.270 OA
HETATM    4  C   UNL     1      42.436 -17.343   3.331  1.00  0.00     0.141 C 
HETATM    5  C   UNL     1      40.976 -17.290   3.812  1.00  0.00     0.057 C 
HETATM    6  C   UNL     1      42.596 -18.537   2.383  1.00  0.00     0.057 C 
HETATM    7  O   UNL     1      43.288 -17.604   4.447  1.00  0.00    -0.329 OA
HETATM    8  C   UNL     1      43.616 -16.498   5.185  1.00  0.00     0.097 A 
HETATM    9  C   UNL     1      43.429 -15.173   4.752  1.00  0.00     0.072 A 
HETATM   10  C   UNL     1      44.205 -16.783   6.420  1.00  0.00     0.040 A 
HETATM   11  C   UNL     1      44.598 -15.750   7.264  1.00  0.00     0.020 A 
HETATM   12  C   UNL     1      44.381 -14.426   6.878  1.00  0.00     0.034 A 
HETATM   13  C   UNL     1      43.804 -14.143   5.626  1.00  0.00     0.049 A 
ENDROOT
BRANCH   1  14
HETATM   14  C   UNL     1      43.014 -13.629   2.783  1.00  0.00     0.235 C 
BRANCH  14  15
HETATM   15  C   UNL     1      41.633 -13.118   2.324  1.00  0.00     0.240 C 
HETATM   16  N   UNL     1      41.457 -13.266   0.960  1.00  0.00    -0.323 N 
HETATM   17  H   UNL     1      42.276 -13.325   0.362  1.00  0.00     0.169 HD
HETATM   18  O   UNL     1      40.821 -12.602   3.089  1.00  0.00    -0.271 OA
BRANCH  16  19
HETATM   19  C   UNL     1      40.233 -13.313   0.263  1.00  0.00     0.068 A 
HETATM   20  C   UNL     1      40.246 -13.835  -1.045  1.00  0.00     0.095 A 
HETATM   21  C   UNL     1      39.043 -14.033  -1.730  1.00  0.00     0.039 A 
HETATM   22  C   UNL     1      37.833 -13.681  -1.130  1.00  0.00     0.003 A 
HETATM   23  C   UNL     1      37.822 -13.131   0.151  1.00  0.00     0.002 A 
HETATM   24  C   UNL     1      39.019 -12.947   0.847  1.00  0.00     0.032 A 
BRANCH  20  25
HETATM   25  O   UNL     1      41.483 -14.148  -1.563  1.00  0.00    -0.349 OA
BRANCH  25  26
HETATM   26  C   UNL     1      41.686 -13.760  -2.924  1.00  0.00     0.171 C 
HETATM   27  C   UNL     1      42.724 -12.652  -2.950  1.00  0.00     0.034 C 
ENDBRANCH  25  26
ENDBRANCH  20  25
ENDBRANCH  16  19
ENDBRANCH  14  15
ENDBRANCH   1  14
BRANCH  12  28
HETATM   28  C   UNL     1      44.798 -13.280   7.734  1.00  0.00     0.252 C 
HETATM   29  N   UNL     1      43.794 -12.614   8.404  1.00  0.00    -0.352 N 
HETATM   30  H   UNL     1      42.828 -12.864   8.248  1.00  0.00     0.163 HD
HETATM   31  O   UNL     1      45.981 -12.964   7.794  1.00  0.00    -0.268 OA
BRANCH  29  32
HETATM   32  C   UNL     1      44.083 -11.512   9.296  1.00  0.00     0.084 C 
HETATM   33  C   UNL     1      42.856 -10.654   9.582  1.00  0.00     0.025 C 
HETATM   34  C   UNL     1      43.268  -9.882  10.824  1.00  0.00     0.002 C 
HETATM   35  C   UNL     1      44.051 -10.891  11.658  1.00  0.00     0.002 C 
HETATM   36  C   UNL     1      44.528 -11.974  10.687  1.00  0.00     0.025 C 
ENDBRANCH  29  32
ENDBRANCH  12  28
TORSDOF 7
ENDMDL
