MODEL 1
REMARK VINA RESULT:      -8.0      0.000      0.000
REMARK  4 active torsions:
REMARK  status: ('A' for Active; 'I' for Inactive)
REMARK    1  A    between atoms: C_4  and  N_5 
REMARK    2  A    between atoms: C_9  and  N_10 
REMARK    3  A    between atoms: C_13  and  C_14 
REMARK    4  A    between atoms: C_22  and  C_23 
ROOT
HETATM    1  N   UNL     1      41.186 -13.022   5.426  1.00  0.00    -0.258 N 
HETATM    2  C   UNL     1      39.975 -13.741   5.654  1.00  0.00     0.333 A 
HETATM    3  O   UNL     1      38.887 -13.378   6.057  1.00  0.00    -0.246 OA
HETATM    4  N   UNL     1      40.251 -15.059   5.274  1.00  0.00    -0.292 N 
HETATM    5  C   UNL     1      41.541 -15.155   4.830  1.00  0.00     0.146 A 
HETATM    6  C   UNL     1      42.118 -13.940   4.939  1.00  0.00     0.126 A 
HETATM    7  H   UNL     1      39.533 -15.769   5.294  1.00  0.00     0.172 HD
ENDROOT
BRANCH   5   8
HETATM    8  N   UNL     1      42.107 -16.371   4.435  1.00  0.00    -0.317 N 
HETATM    9  C   UNL     1      42.113 -16.707   3.122  1.00  0.00     0.099 A 
HETATM   10  C   UNL     1      42.642 -17.921   2.688  1.00  0.00     0.030 A 
HETATM   11  C   UNL     1      43.198 -18.816   3.604  1.00  0.00    -0.023 A 
HETATM   12  C   UNL     1      43.224 -18.427   4.945  1.00  0.00     0.030 A 
HETATM   13  C   UNL     1      42.682 -17.205   5.337  1.00  0.00     0.099 A 
BRANCH  11  14
HETATM   14  C   UNL     1      43.717 -20.126   3.178  1.00  0.00    -0.023 A 
HETATM   15  C   UNL     1      43.525 -20.600   1.873  1.00  0.00     0.031 A 
HETATM   16  C   UNL     1      44.024 -21.847   1.527  1.00  0.00     0.117 A 
HETATM   17  N   UNL     1      44.692 -22.646   2.381  1.00  0.00    -0.273 NA
HETATM   18  C   UNL     1      44.874 -22.185   3.633  1.00  0.00     0.117 A 
HETATM   19  C   UNL     1      44.413 -20.952   4.071  1.00  0.00     0.031 A 
ENDBRANCH  11  14
ENDBRANCH   5   8
BRANCH   6  20
HETATM   20  C   UNL     1      43.564 -13.675   4.820  1.00  0.00     0.292 C 
HETATM   21  O   UNL     1      44.127 -13.608   3.733  1.00  0.00    -0.300 OA
ENDBRANCH   6  20
BRANCH   1  22
HETATM   22  C   UNL     1      41.310 -11.622   5.638  1.00  0.00     0.044 A 
HETATM   23  C   UNL     1      41.276 -10.727   4.559  1.00  0.00     0.030 A 
HETATM   24  C   UNL     1      41.373  -9.346   4.762  1.00  0.00     0.002 A 
HETATM   25  C   UNL     1      41.522  -8.837   6.049  1.00  0.00     0.000 A 
HETATM   26  C   UNL     1      41.586  -9.710   7.129  1.00  0.00     0.002 A 
HETATM   27  C   UNL     1      41.487 -11.090   6.926  1.00  0.00     0.030 A 
ENDBRANCH   1  22
TORSDOF 4
ENDMDL
MODEL 2
REMARK VINA RESULT:      -7.9      2.203      8.995
REMARK  4 active torsions:
REMARK  status: ('A' for Active; 'I' for Inactive)
REMARK    1  A    between atoms: C_4  and  N_5 
REMARK    2  A    between atoms: C_9  and  N_10 
REMARK    3  A    between atoms: C_13  and  C_14 
REMARK    4  A    between atoms: C_22  and  C_23 
ROOT
HETATM    1  N   UNL     1      43.472 -17.950   3.139  1.00  0.00    -0.258 N 
HETATM    2  C   UNL     1      43.937 -16.978   2.203  1.00  0.00     0.333 A 
HETATM    3  O   UNL     1      44.628 -17.085   1.209  1.00  0.00    -0.246 OA
HETATM    4  N   UNL     1      43.394 -15.762   2.633  1.00  0.00    -0.292 N 
HETATM    5  C   UNL     1      42.635 -15.961   3.752  1.00  0.00     0.146 A 
HETATM    6  C   UNL     1      42.694 -17.270   4.078  1.00  0.00     0.126 A 
HETATM    7  H   UNL     1      43.536 -14.912   2.105  1.00  0.00     0.172 HD
ENDROOT
BRANCH   5   8
HETATM    8  N   UNL     1      42.013 -14.908   4.431  1.00  0.00    -0.317 N 
HETATM    9  C   UNL     1      40.663 -14.794   4.389  1.00  0.00     0.099 A 
HETATM   10  C   UNL     1      40.005 -13.745   5.028  1.00  0.00     0.030 A 
HETATM   11  C   UNL     1      40.729 -12.791   5.745  1.00  0.00    -0.023 A 
HETATM   12  C   UNL     1      42.113 -12.956   5.814  1.00  0.00     0.030 A 
HETATM   13  C   UNL     1      42.733 -14.018   5.159  1.00  0.00     0.099 A 
BRANCH  11  14
HETATM   14  C   UNL     1      40.062 -11.645   6.386  1.00  0.00    -0.023 A 
HETATM   15  C   UNL     1      39.736 -10.491   5.663  1.00  0.00     0.031 A 
HETATM   16  C   UNL     1      39.119  -9.435   6.319  1.00  0.00     0.117 A 
HETATM   17  N   UNL     1      38.812  -9.450   7.630  1.00  0.00    -0.273 NA
HETATM   18  C   UNL     1      39.127 -10.563   8.319  1.00  0.00     0.117 A 
HETATM   19  C   UNL     1      39.742 -11.668   7.751  1.00  0.00     0.031 A 
ENDBRANCH  11  14
ENDBRANCH   5   8
BRANCH   6  20
HETATM   20  C   UNL     1      42.238 -17.846   5.356  1.00  0.00     0.292 C 
HETATM   21  O   UNL     1      42.887 -17.738   6.389  1.00  0.00    -0.300 OA
ENDBRANCH   6  20
BRANCH   1  22
HETATM   22  C   UNL     1      43.760 -19.337   3.026  1.00  0.00     0.044 A 
HETATM   23  C   UNL     1      43.259 -20.089   1.953  1.00  0.00     0.030 A 
HETATM   24  C   UNL     1      43.558 -21.449   1.822  1.00  0.00     0.002 A 
HETATM   25  C   UNL     1      44.351 -22.085   2.772  1.00  0.00     0.000 A 
HETATM   26  C   UNL     1      44.834 -21.364   3.858  1.00  0.00     0.002 A 
HETATM   27  C   UNL     1      44.536 -20.004   3.988  1.00  0.00     0.030 A 
ENDBRANCH   1  22
TORSDOF 4
ENDMDL
MODEL 3
REMARK VINA RESULT:      -7.6      5.105      6.540
REMARK  4 active torsions:
REMARK  status: ('A' for Active; 'I' for Inactive)
REMARK    1  A    between atoms: C_4  and  N_5 
REMARK    2  A    between atoms: C_9  and  N_10 
REMARK    3  A    between atoms: C_13  and  C_14 
REMARK    4  A    between atoms: C_22  and  C_23 
ROOT
HETATM    1  N   UNL     1      41.217 -14.166  -1.762  1.00  0.00    -0.258 N 
HETATM    2  C   UNL     1      40.939 -15.495  -2.201  1.00  0.00     0.333 A 
HETATM    3  O   UNL     1      40.566 -15.926  -3.274  1.00  0.00    -0.246 OA
HETATM    4  N   UNL     1      41.220 -16.314  -1.101  1.00  0.00    -0.292 N 
HETATM    5  C   UNL     1      41.654 -15.551  -0.052  1.00  0.00     0.146 A 
HETATM    6  C   UNL     1      41.632 -14.256  -0.432  1.00  0.00     0.126 A 
HETATM    7  H   UNL     1      41.149 -17.319  -1.168  1.00  0.00     0.172 HD
ENDROOT
BRANCH   5   8
HETATM    8  N   UNL     1      41.957 -16.101   1.197  1.00  0.00    -0.317 N 
HETATM    9  C   UNL     1      40.983 -16.204   2.134  1.00  0.00     0.099 A 
HETATM   10  C   UNL     1      41.248 -16.721   3.400  1.00  0.00     0.030 A 
HETATM   11  C   UNL     1      42.531 -17.164   3.727  1.00  0.00    -0.023 A 
HETATM   12  C   UNL     1      43.506 -17.093   2.731  1.00  0.00     0.030 A 
HETATM   13  C   UNL     1      43.200 -16.568   1.477  1.00  0.00     0.099 A 
BRANCH  11  14
HETATM   14  C   UNL     1      42.849 -17.668   5.074  1.00  0.00    -0.023 A 
HETATM   15  C   UNL     1      43.534 -18.875   5.260  1.00  0.00     0.031 A 
HETATM   16  C   UNL     1      43.797 -19.310   6.551  1.00  0.00     0.117 A 
HETATM   17  N   UNL     1      43.426 -18.633   7.655  1.00  0.00    -0.273 NA
HETATM   18  C   UNL     1      42.769 -17.473   7.469  1.00  0.00     0.117 A 
HETATM   19  C   UNL     1      42.463 -16.958   6.219  1.00  0.00     0.031 A 
ENDBRANCH  11  14
ENDBRANCH   5   8
BRANCH   6  20
HETATM   20  C   UNL     1      41.769 -13.104   0.478  1.00  0.00     0.292 C 
HETATM   21  O   UNL     1      42.560 -12.193   0.264  1.00  0.00    -0.300 OA
ENDBRANCH   6  20
BRANCH   1  22
HETATM   22  C   UNL     1      41.107 -13.029  -2.608  1.00  0.00     0.044 A 
HETATM   23  C   UNL     1      42.229 -12.528  -3.284  1.00  0.00     0.030 A 
HETATM   24  C   UNL     1      42.124 -11.424  -4.137  1.00  0.00     0.002 A 
HETATM   25  C   UNL     1      40.898 -10.793  -4.317  1.00  0.00     0.000 A 
HETATM   26  C   UNL     1      39.780 -11.258  -3.635  1.00  0.00     0.002 A 
HETATM   27  C   UNL     1      39.884 -12.362  -2.783  1.00  0.00     0.030 A 
ENDBRANCH   1  22
TORSDOF 4
ENDMDL
MODEL 4
REMARK VINA RESULT:      -7.4      4.975      6.166
REMARK  4 active torsions:
REMARK  status: ('A' for Active; 'I' for Inactive)
REMARK    1  A    between atoms: C_4  and  N_5 
REMARK    2  A    between atoms: C_9  and  N_10 
REMARK    3  A    between atoms: C_13  and  C_14 
REMARK    4  A    between atoms: C_22  and  C_23 
ROOT
HETATM    1  N   UNL     1      40.077 -14.071  -1.468  1.00  0.00    -0.258 N 
HETATM    2  C   UNL     1      40.838 -14.825  -2.410  1.00  0.00     0.333 A 
HETATM    3  O   UNL     1      40.917 -14.754  -3.621  1.00  0.00    -0.246 OA
HETATM    4  N   UNL     1      41.580 -15.732  -1.645  1.00  0.00    -0.292 N 
HETATM    5  C   UNL     1      41.309 -15.550  -0.316  1.00  0.00     0.146 A 
HETATM    6  C   UNL     1      40.389 -14.570  -0.202  1.00  0.00     0.126 A 
HETATM    7  H   UNL     1      42.246 -16.357  -2.077  1.00  0.00     0.172 HD
ENDROOT
BRANCH   5   8
HETATM    8  N   UNL     1      41.872 -16.357   0.678  1.00  0.00    -0.317 N 
HETATM    9  C   UNL     1      41.279 -17.534   0.994  1.00  0.00     0.099 A 
HETATM   10  C   UNL     1      41.791 -18.355   1.997  1.00  0.00     0.030 A 
HETATM   11  C   UNL     1      42.945 -17.986   2.691  1.00  0.00    -0.023 A 
HETATM   12  C   UNL     1      43.564 -16.793   2.315  1.00  0.00     0.030 A 
HETATM   13  C   UNL     1      43.020 -16.000   1.308  1.00  0.00     0.099 A 
BRANCH  11  14
HETATM   14  C   UNL     1      43.476 -18.811   3.789  1.00  0.00    -0.023 A 
HETATM   15  C   UNL     1      43.068 -18.616   5.114  1.00  0.00     0.031 A 
HETATM   16  C   UNL     1      43.610 -19.413   6.112  1.00  0.00     0.117 A 
HETATM   17  N   UNL     1      44.521 -20.377   5.883  1.00  0.00    -0.273 NA
HETATM   18  C   UNL     1      44.908 -20.561   4.607  1.00  0.00     0.117 A 
HETATM   19  C   UNL     1      44.423 -19.815   3.543  1.00  0.00     0.031 A 
ENDBRANCH  11  14
ENDBRANCH   5   8
BRANCH   6  20
HETATM   20  C   UNL     1      39.637 -14.254   1.027  1.00  0.00     0.292 C 
HETATM   21  O   UNL     1      38.585 -14.815   1.311  1.00  0.00    -0.300 OA
ENDBRANCH   6  20
BRANCH   1  22
HETATM   22  C   UNL     1      39.221 -12.999  -1.840  1.00  0.00     0.044 A 
HETATM   23  C   UNL     1      39.686 -11.675  -1.830  1.00  0.00     0.030 A 
HETATM   24  C   UNL     1      38.858 -10.617  -2.218  1.00  0.00     0.002 A 
HETATM   25  C   UNL     1      37.545 -10.862  -2.609  1.00  0.00     0.000 A 
HETATM   26  C   UNL     1      37.058 -12.164  -2.599  1.00  0.00     0.002 A 
HETATM   27  C   UNL     1      37.887 -13.223  -2.213  1.00  0.00     0.030 A 
ENDBRANCH   1  22
TORSDOF 4
ENDMDL
MODEL 5
REMARK VINA RESULT:      -7.4      5.123      6.806
REMARK  4 active torsions:
REMARK  status: ('A' for Active; 'I' for Inactive)
REMARK    1  A    between atoms: C_4  and  N_5 
REMARK    2  A    between atoms: C_9  and  N_10 
REMARK    3  A    between atoms: C_13  and  C_14 
REMARK    4  A    between atoms: C_22  and  C_23 
ROOT
HETATM    1  N   UNL     1      40.055 -14.487  -1.465  1.00  0.00    -0.258 N 
HETATM    2  C   UNL     1      41.008 -15.392  -2.019  1.00  0.00     0.333 A 
HETATM    3  O   UNL     1      41.289 -15.659  -3.171  1.00  0.00    -0.246 OA
HETATM    4  N   UNL     1      41.660 -15.961  -0.919  1.00  0.00    -0.292 N 
HETATM    5  C   UNL     1      41.156 -15.441   0.241  1.00  0.00     0.146 A 
HETATM    6  C   UNL     1      40.175 -14.571  -0.076  1.00  0.00     0.126 A 
HETATM    7  H   UNL     1      42.425 -16.610  -1.045  1.00  0.00     0.172 HD
ENDROOT
BRANCH   5   8
HETATM    8  N   UNL     1      41.587 -15.869   1.500  1.00  0.00    -0.317 N 
HETATM    9  C   UNL     1      42.535 -15.157   2.157  1.00  0.00     0.099 A 
HETATM   10  C   UNL     1      43.011 -15.564   3.402  1.00  0.00     0.030 A 
HETATM   11  C   UNL     1      42.505 -16.713   4.011  1.00  0.00    -0.023 A 
HETATM   12  C   UNL     1      41.495 -17.402   3.338  1.00  0.00     0.030 A 
HETATM   13  C   UNL     1      41.047 -16.964   2.094  1.00  0.00     0.099 A 
BRANCH  11  14
HETATM   14  C   UNL     1      43.027 -17.191   5.302  1.00  0.00    -0.023 A 
HETATM   15  C   UNL     1      42.433 -16.819   6.515  1.00  0.00     0.031 A 
HETATM   16  C   UNL     1      42.973 -17.287   7.703  1.00  0.00     0.117 A 
HETATM   17  N   UNL     1      44.053 -18.089   7.766  1.00  0.00    -0.273 NA
HETATM   18  C   UNL     1      44.620 -18.444   6.597  1.00  0.00     0.117 A 
HETATM   19  C   UNL     1      44.151 -18.027   5.361  1.00  0.00     0.031 A 
ENDBRANCH  11  14
ENDBRANCH   5   8
BRANCH   6  20
HETATM   20  C   UNL     1      39.207 -14.001   0.879  1.00  0.00     0.292 C 
HETATM   21  O   UNL     1      38.311 -14.671   1.379  1.00  0.00    -0.300 OA
ENDBRANCH   6  20
BRANCH   1  22
HETATM   22  C   UNL     1      39.215 -13.659  -2.259  1.00  0.00     0.044 A 
HETATM   23  C   UNL     1      39.587 -12.342  -2.563  1.00  0.00     0.030 A 
HETATM   24  C   UNL     1      38.778 -11.530  -3.364  1.00  0.00     0.002 A 
HETATM   25  C   UNL     1      37.574 -12.016  -3.863  1.00  0.00     0.000 A 
HETATM   26  C   UNL     1      37.174 -13.310  -3.550  1.00  0.00     0.002 A 
HETATM   27  C   UNL     1      37.984 -14.123  -2.750  1.00  0.00     0.030 A 
ENDBRANCH   1  22
TORSDOF 4
ENDMDL
MODEL 6
REMARK VINA RESULT:      -7.3      1.911      2.426
REMARK  4 active torsions:
REMARK  status: ('A' for Active; 'I' for Inactive)
REMARK    1  A    between atoms: C_4  and  N_5 
REMARK    2  A    between atoms: C_9  and  N_10 
REMARK    3  A    between atoms: C_13  and  C_14 
REMARK    4  A    between atoms: C_22  and  C_23 
ROOT
HETATM    1  N   UNL     1      41.037 -12.727   4.157  1.00  0.00    -0.258 N 
HETATM    2  C   UNL     1      41.854 -12.742   5.327  1.00  0.00     0.333 A 
HETATM    3  O   UNL     1      42.049 -11.903   6.184  1.00  0.00    -0.246 OA
HETATM    4  N   UNL     1      42.432 -14.017   5.356  1.00  0.00    -0.292 N 
HETATM    5  C   UNL     1      41.999 -14.749   4.285  1.00  0.00     0.146 A 
HETATM    6  C   UNL     1      41.178 -13.974   3.546  1.00  0.00     0.126 A 
HETATM    7  H   UNL     1      43.025 -14.303   6.123  1.00  0.00     0.172 HD
ENDROOT
BRANCH   5   8
HETATM    8  N   UNL     1      42.458 -16.045   4.032  1.00  0.00    -0.317 N 
HETATM    9  C   UNL     1      43.373 -16.248   3.052  1.00  0.00     0.099 A 
HETATM   10  C   UNL     1      43.836 -17.527   2.749  1.00  0.00     0.030 A 
HETATM   11  C   UNL     1      43.377 -18.633   3.467  1.00  0.00    -0.023 A 
HETATM   12  C   UNL     1      42.472 -18.394   4.502  1.00  0.00     0.030 A 
HETATM   13  C   UNL     1      42.032 -17.100   4.772  1.00  0.00     0.099 A 
BRANCH  11  14
HETATM   14  C   UNL     1      43.813 -19.999   3.132  1.00  0.00    -0.023 A 
HETATM   15  C   UNL     1      43.572 -20.555   1.869  1.00  0.00     0.031 A 
HETATM   16  C   UNL     1      43.992 -21.851   1.611  1.00  0.00     0.117 A 
HETATM   17  N   UNL     1      44.627 -22.623   2.513  1.00  0.00    -0.273 NA
HETATM   18  C   UNL     1      44.857 -22.083   3.725  1.00  0.00     0.117 A 
HETATM   19  C   UNL     1      44.475 -20.796   4.076  1.00  0.00     0.031 A 
ENDBRANCH  11  14
ENDBRANCH   5   8
BRANCH   6  20
HETATM   20  C   UNL     1      40.715 -14.291   2.182  1.00  0.00     0.292 C 
HETATM   21  O   UNL     1      39.761 -15.030   1.973  1.00  0.00    -0.300 OA
ENDBRANCH   6  20
BRANCH   1  22
HETATM   22  C   UNL     1      40.228 -11.617   3.789  1.00  0.00     0.044 A 
HETATM   23  C   UNL     1      38.874 -11.565   4.154  1.00  0.00     0.030 A 
HETATM   24  C   UNL     1      38.078 -10.466   3.817  1.00  0.00     0.002 A 
HETATM   25  C   UNL     1      38.617  -9.406   3.095  1.00  0.00     0.000 A 
HETATM   26  C   UNL     1      39.949  -9.452   2.700  1.00  0.00     0.002 A 
HETATM   27  C   UNL     1      40.747 -10.550   3.038  1.00  0.00     0.030 A 
ENDBRANCH   1  22
TORSDOF 4
ENDMDL
MODEL 7
REMARK VINA RESULT:      -7.3      2.234      9.005
REMARK  4 active torsions:
REMARK  status: ('A' for Active; 'I' for Inactive)
REMARK    1  A    between atoms: C_4  and  N_5 
REMARK    2  A    between atoms: C_9  and  N_10 
REMARK    3  A    between atoms: C_13  and  C_14 
REMARK    4  A    between atoms: C_22  and  C_23 
ROOT
HETATM    1  N   UNL     1      42.987 -17.476   3.157  1.00  0.00    -0.258 N 
HETATM    2  C   UNL     1      42.921 -16.569   2.057  1.00  0.00     0.333 A 
HETATM    3  O   UNL     1      43.238 -16.695   0.891  1.00  0.00    -0.246 OA
HETATM    4  N   UNL     1      42.345 -15.403   2.575  1.00  0.00    -0.292 N 
HETATM    5  C   UNL     1      42.063 -15.573   3.902  1.00  0.00     0.146 A 
HETATM    6  C   UNL     1      42.467 -16.807   4.267  1.00  0.00     0.126 A 
HETATM    7  H   UNL     1      42.142 -14.613   1.979  1.00  0.00     0.172 HD
ENDROOT
BRANCH   5   8
HETATM    8  N   UNL     1      41.530 -14.547   4.689  1.00  0.00    -0.317 N 
HETATM    9  C   UNL     1      40.210 -14.565   5.000  1.00  0.00     0.099 A 
HETATM   10  C   UNL     1      39.633 -13.549   5.759  1.00  0.00     0.030 A 
HETATM   11  C   UNL     1      40.412 -12.492   6.234  1.00  0.00    -0.023 A 
HETATM   12  C   UNL     1      41.776 -12.521   5.942  1.00  0.00     0.030 A 
HETATM   13  C   UNL     1      42.315 -13.554   5.178  1.00  0.00     0.099 A 
BRANCH  11  14
HETATM   14  C   UNL     1      39.816 -11.381   6.994  1.00  0.00    -0.023 A 
HETATM   15  C   UNL     1      39.661 -10.108   6.430  1.00  0.00     0.031 A 
HETATM   16  C   UNL     1      39.105  -9.094   7.195  1.00  0.00     0.117 A 
HETATM   17  N   UNL     1      38.699  -9.258   8.469  1.00  0.00    -0.273 NA
HETATM   18  C   UNL     1      38.850 -10.483   9.005  1.00  0.00     0.117 A 
HETATM   19  C   UNL     1      39.393 -11.559   8.319  1.00  0.00     0.031 A 
ENDBRANCH  11  14
ENDBRANCH   5   8
BRANCH   6  20
HETATM   20  C   UNL     1      42.587 -17.283   5.657  1.00  0.00     0.292 C 
HETATM   21  O   UNL     1      43.450 -16.862   6.419  1.00  0.00    -0.300 OA
ENDBRANCH   6  20
BRANCH   1  22
HETATM   22  C   UNL     1      43.467 -18.809   3.038  1.00  0.00     0.044 A 
HETATM   23  C   UNL     1      44.427 -19.308   3.930  1.00  0.00     0.030 A 
HETATM   24  C   UNL     1      44.885 -20.626   3.834  1.00  0.00     0.002 A 
HETATM   25  C   UNL     1      44.403 -21.464   2.834  1.00  0.00     0.000 A 
HETATM   26  C   UNL     1      43.471 -20.979   1.922  1.00  0.00     0.002 A 
HETATM   27  C   UNL     1      43.011 -19.662   2.019  1.00  0.00     0.030 A 
ENDBRANCH   1  22
TORSDOF 4
ENDMDL
MODEL 8
REMARK VINA RESULT:      -7.3      3.832      4.545
REMARK  4 active torsions:
REMARK  status: ('A' for Active; 'I' for Inactive)
REMARK    1  A    between atoms: C_4  and  N_5 
REMARK    2  A    between atoms: C_9  and  N_10 
REMARK    3  A    between atoms: C_13  and  C_14 
REMARK    4  A    between atoms: C_22  and  C_23 
ROOT
HETATM    1  N   UNL     1      39.491 -13.168   0.490  1.00  0.00    -0.258 N 
HETATM    2  C   UNL     1      38.374 -13.976   0.858  1.00  0.00     0.333 A 
HETATM    3  O   UNL     1      37.177 -13.793   0.750  1.00  0.00    -0.246 OA
HETATM    4  N   UNL     1      38.925 -15.147   1.391  1.00  0.00    -0.292 N 
HETATM    5  C   UNL     1      40.290 -15.080   1.349  1.00  0.00     0.146 A 
HETATM    6  C   UNL     1      40.640 -13.884   0.830  1.00  0.00     0.126 A 
HETATM    7  H   UNL     1      38.336 -15.913   1.687  1.00  0.00     0.172 HD
ENDROOT
BRANCH   5   8
HETATM    8  N   UNL     1      41.105 -16.092   1.866  1.00  0.00    -0.317 N 
HETATM    9  C   UNL     1      41.765 -16.915   1.015  1.00  0.00     0.099 A 
HETATM   10  C   UNL     1      42.565 -17.953   1.488  1.00  0.00     0.030 A 
HETATM   11  C   UNL     1      42.718 -18.158   2.860  1.00  0.00    -0.023 A 
HETATM   12  C   UNL     1      42.067 -17.268   3.717  1.00  0.00     0.030 A 
HETATM   13  C   UNL     1      41.275 -16.244   3.204  1.00  0.00     0.099 A 
BRANCH  11  14
HETATM   14  C   UNL     1      43.516 -19.279   3.384  1.00  0.00    -0.023 A 
HETATM   15  C   UNL     1      43.937 -19.316   4.720  1.00  0.00     0.031 A 
HETATM   16  C   UNL     1      44.698 -20.389   5.159  1.00  0.00     0.117 A 
HETATM   17  N   UNL     1      45.067 -21.414   4.367  1.00  0.00    -0.273 NA
HETATM   18  C   UNL     1      44.659 -21.373   3.085  1.00  0.00     0.117 A 
HETATM   19  C   UNL     1      43.895 -20.344   2.556  1.00  0.00     0.031 A 
ENDBRANCH  11  14
ENDBRANCH   5   8
BRANCH   6  20
HETATM   20  C   UNL     1      41.999 -13.313   0.860  1.00  0.00     0.292 C 
HETATM   21  O   UNL     1      42.470 -12.802   1.869  1.00  0.00    -0.300 OA
ENDBRANCH   6  20
BRANCH   1  22
HETATM   22  C   UNL     1      39.359 -11.903  -0.145  1.00  0.00     0.044 A 
HETATM   23  C   UNL     1      39.322 -10.722   0.611  1.00  0.00     0.030 A 
HETATM   24  C   UNL     1      39.217  -9.472  -0.008  1.00  0.00     0.002 A 
HETATM   25  C   UNL     1      39.132  -9.382  -1.394  1.00  0.00     0.000 A 
HETATM   26  C   UNL     1      39.140 -10.543  -2.159  1.00  0.00     0.002 A 
HETATM   27  C   UNL     1      39.246 -11.793  -1.540  1.00  0.00     0.030 A 
ENDBRANCH   1  22
TORSDOF 4
ENDMDL
MODEL 9
REMARK VINA RESULT:      -7.2      2.884      3.449
REMARK  4 active torsions:
REMARK  status: ('A' for Active; 'I' for Inactive)
REMARK    1  A    between atoms: C_4  and  N_5 
REMARK    2  A    between atoms: C_9  and  N_10 
REMARK    3  A    between atoms: C_13  and  C_14 
REMARK    4  A    between atoms: C_22  and  C_23 
ROOT
HETATM    1  N   UNL     1      40.713 -12.902   1.239  1.00  0.00    -0.258 N 
HETATM    2  C   UNL     1      39.700 -13.677   0.601  1.00  0.00     0.333 A 
HETATM    3  O   UNL     1      38.690 -13.350   0.009  1.00  0.00    -0.246 OA
HETATM    4  N   UNL     1      40.105 -15.009   0.748  1.00  0.00    -0.292 N 
HETATM    5  C   UNL     1      41.294 -15.061   1.423  1.00  0.00     0.146 A 
HETATM    6  C   UNL     1      41.656 -13.801   1.743  1.00  0.00     0.126 A 
HETATM    7  H   UNL     1      39.576 -15.764   0.335  1.00  0.00     0.172 HD
ENDROOT
BRANCH   5   8
HETATM    8  N   UNL     1      41.909 -16.271   1.760  1.00  0.00    -0.317 N 
HETATM    9  C   UNL     1      42.846 -16.794   0.932  1.00  0.00     0.099 A 
HETATM   10  C   UNL     1      43.464 -18.010   1.215  1.00  0.00     0.030 A 
HETATM   11  C   UNL     1      43.140 -18.713   2.378  1.00  0.00    -0.023 A 
HETATM   12  C   UNL     1      42.208 -18.131   3.239  1.00  0.00     0.030 A 
HETATM   13  C   UNL     1      41.611 -16.914   2.917  1.00  0.00     0.099 A 
BRANCH  11  14
HETATM   14  C   UNL     1      43.741 -20.024   2.674  1.00  0.00    -0.023 A 
HETATM   15  C   UNL     1      43.727 -21.064   1.737  1.00  0.00     0.031 A 
HETATM   16  C   UNL     1      44.296 -22.284   2.072  1.00  0.00     0.117 A 
HETATM   17  N   UNL     1      44.870 -22.535   3.264  1.00  0.00    -0.273 NA
HETATM   18  C   UNL     1      44.882 -21.531   4.161  1.00  0.00     0.117 A 
HETATM   19  C   UNL     1      44.339 -20.279   3.916  1.00  0.00     0.031 A 
ENDBRANCH  11  14
ENDBRANCH   5   8
BRANCH   6  20
HETATM   20  C   UNL     1      42.725 -13.442   2.693  1.00  0.00     0.292 C 
HETATM   21  O   UNL     1      42.492 -13.171   3.865  1.00  0.00    -0.300 OA
ENDBRANCH   6  20
BRANCH   1  22
HETATM   22  C   UNL     1      40.704 -11.481   1.266  1.00  0.00     0.044 A 
HETATM   23  C   UNL     1      39.982 -10.787   2.248  1.00  0.00     0.030 A 
HETATM   24  C   UNL     1      39.988  -9.389   2.295  1.00  0.00     0.002 A 
HETATM   25  C   UNL     1      40.704  -8.660   1.352  1.00  0.00     0.000 A 
HETATM   26  C   UNL     1      41.404  -9.329   0.354  1.00  0.00     0.002 A 
HETATM   27  C   UNL     1      41.400 -10.727   0.308  1.00  0.00     0.030 A 
ENDBRANCH   1  22
TORSDOF 4
ENDMDL
MODEL 10
REMARK VINA RESULT:      -7.2      5.049      5.918
REMARK  4 active torsions:
REMARK  status: ('A' for Active; 'I' for Inactive)
REMARK    1  A    between atoms: C_4  and  N_5 
REMARK    2  A    between atoms: C_9  and  N_10 
REMARK    3  A    between atoms: C_13  and  C_14 
REMARK    4  A    between atoms: C_22  and  C_23 
ROOT
HETATM    1  N   UNL     1      39.952 -13.499  -0.807  1.00  0.00    -0.258 N 
HETATM    2  C   UNL     1      39.913 -13.030   0.540  1.00  0.00     0.333 A 
HETATM    3  O   UNL     1      39.451 -12.017   1.027  1.00  0.00    -0.246 OA
HETATM    4  N   UNL     1      40.524 -14.035   1.298  1.00  0.00    -0.292 N 
HETATM    5  C   UNL     1      40.909 -15.064   0.483  1.00  0.00     0.146 A 
HETATM    6  C   UNL     1      40.590 -14.740  -0.788  1.00  0.00     0.126 A 
HETATM    7  H   UNL     1      40.581 -13.968   2.305  1.00  0.00     0.172 HD
ENDROOT
BRANCH   5   8
HETATM    8  N   UNL     1      41.595 -16.183   0.965  1.00  0.00    -0.317 N 
HETATM    9  C   UNL     1      40.936 -17.360   1.102  1.00  0.00     0.099 A 
HETATM   10  C   UNL     1      41.575 -18.492   1.604  1.00  0.00     0.030 A 
HETATM   11  C   UNL     1      42.923 -18.441   1.964  1.00  0.00    -0.023 A 
HETATM   12  C   UNL     1      43.592 -17.232   1.769  1.00  0.00     0.030 A 
HETATM   13  C   UNL     1      42.917 -16.123   1.266  1.00  0.00     0.099 A 
BRANCH  11  14
HETATM   14  C   UNL     1      43.606 -19.609   2.544  1.00  0.00    -0.023 A 
HETATM   15  C   UNL     1      44.308 -19.520   3.753  1.00  0.00     0.031 A 
HETATM   16  C   UNL     1      44.945 -20.648   4.249  1.00  0.00     0.117 A 
HETATM   17  N   UNL     1      44.932 -21.844   3.630  1.00  0.00    -0.273 NA
HETATM   18  C   UNL     1      44.255 -21.924   2.469  1.00  0.00     0.117 A 
HETATM   19  C   UNL     1      43.587 -20.852   1.896  1.00  0.00     0.031 A 
ENDBRANCH  11  14
ENDBRANCH   5   8
BRANCH   6  20
HETATM   20  C   UNL     1      41.068 -15.450  -1.988  1.00  0.00     0.292 C 
HETATM   21  O   UNL     1      40.299 -15.951  -2.800  1.00  0.00    -0.300 OA
ENDBRANCH   6  20
BRANCH   1  22
HETATM   22  C   UNL     1      39.378 -12.786  -1.895  1.00  0.00     0.044 A 
HETATM   23  C   UNL     1      40.158 -11.918  -2.674  1.00  0.00     0.030 A 
HETATM   24  C   UNL     1      39.606 -11.232  -3.761  1.00  0.00     0.002 A 
HETATM   25  C   UNL     1      38.261 -11.389  -4.078  1.00  0.00     0.000 A 
HETATM   26  C   UNL     1      37.465 -12.223  -3.301  1.00  0.00     0.002 A 
HETATM   27  C   UNL     1      38.017 -12.911  -2.216  1.00  0.00     0.030 A 
ENDBRANCH   1  22
TORSDOF 4
ENDMDL
