MODEL 1
REMARK VINA RESULT:      -7.9      0.000      0.000
REMARK  3 active torsions:
REMARK  status: ('A' for Active; 'I' for Inactive)
REMARK    1  A    between atoms: C_10  and  C_11 
REMARK    2  A    between atoms: C_11  and  C_12 
REMARK    3  A    between atoms: C_13  and  O_14 
ROOT
HETATM    1  C   UNL     1      43.593 -17.425   5.304  1.00  0.00     0.196 C 
HETATM    2  O   UNL     1      44.294 -16.770   6.072  1.00  0.00    -0.286 OA
ENDROOT
BRANCH   1   3
HETATM    3  C   UNL     1      43.880 -18.862   5.121  1.00  0.00     0.034 A 
HETATM    4  C   UNL     1      44.112 -19.641   6.255  1.00  0.00     0.134 A 
HETATM    5  N   UNL     1      44.391 -20.970   6.259  1.00  0.00    -0.240 NA
HETATM    6  C   UNL     1      44.452 -21.487   5.017  1.00  0.00     0.155 A 
HETATM    7  N   UNL     1      44.722 -22.785   4.694  1.00  0.00    -0.260 N 
HETATM    8  C   UNL     1      44.269 -20.826   3.812  1.00  0.00     0.038 A 
HETATM    9  N   UNL     1      44.721 -23.026   3.367  1.00  0.00    -0.177 NA
HETATM   10  H   UNL     1      44.913 -23.544   5.336  1.00  0.00     0.191 HD
HETATM   11  C   UNL     1      44.451 -21.829   2.825  1.00  0.00     0.065 A 
HETATM   12  C   UNL     1      44.368 -21.678   1.350  1.00  0.00     0.073 C 
HETATM   13  C   UNL     1      43.979 -19.452   3.854  1.00  0.00     0.034 A 
ENDBRANCH   1   3
BRANCH   1  14
HETATM   14  C   UNL     1      42.505 -16.722   4.577  1.00  0.00     0.051 A 
HETATM   15  C   UNL     1      41.679 -15.822   5.272  1.00  0.00     0.101 A 
HETATM   16  C   UNL     1      40.663 -15.140   4.591  1.00  0.00     0.069 A 
HETATM   17 CL   UNL     1      39.640 -14.006   5.398  1.00  0.00    -0.081 Cl
HETATM   18  C   UNL     1      40.448 -15.371   3.233  1.00  0.00     0.050 A 
HETATM   19  C   UNL     1      41.244 -16.292   2.559  1.00  0.00     0.036 A 
HETATM   20 CL   UNL     1      40.971 -16.593   0.887  1.00  0.00    -0.084 Cl
HETATM   21  C   UNL     1      42.265 -16.975   3.221  1.00  0.00     0.042 A 
BRANCH  15  22
HETATM   22  O   UNL     1      41.845 -15.586   6.614  1.00  0.00    -0.358 OA
HETATM   23  H   UNL     1      41.031 -15.161   6.964  1.00  0.00     0.218 HD
ENDBRANCH  15  22
ENDBRANCH   1  14
TORSDOF 3
ENDMDL
MODEL 2
REMARK VINA RESULT:      -7.7      2.411      3.543
REMARK  3 active torsions:
REMARK  status: ('A' for Active; 'I' for Inactive)
REMARK    1  A    between atoms: C_10  and  C_11 
REMARK    2  A    between atoms: C_11  and  C_12 
REMARK    3  A    between atoms: C_13  and  O_14 
ROOT
HETATM    1  C   UNL     1      43.373 -17.660   1.743  1.00  0.00     0.196 C 
HETATM    2  O   UNL     1      43.727 -17.685   0.565  1.00  0.00    -0.286 OA
ENDROOT
BRANCH   1   3
HETATM    3  C   UNL     1      43.758 -18.776   2.630  1.00  0.00     0.034 A 
HETATM    4  C   UNL     1      44.208 -19.961   2.047  1.00  0.00     0.134 A 
HETATM    5  N   UNL     1      44.596 -21.075   2.719  1.00  0.00    -0.240 NA
HETATM    6  C   UNL     1      44.479 -20.940   4.053  1.00  0.00     0.155 A 
HETATM    7  N   UNL     1      44.779 -21.884   4.992  1.00  0.00    -0.260 N 
HETATM    8  C   UNL     1      44.026 -19.835   4.758  1.00  0.00     0.038 A 
HETATM    9  N   UNL     1      44.564 -21.478   6.259  1.00  0.00    -0.177 NA
HETATM   10  H   UNL     1      45.132 -22.817   4.823  1.00  0.00     0.191 HD
HETATM   11  C   UNL     1      44.097 -20.228   6.120  1.00  0.00     0.065 A 
HETATM   12  C   UNL     1      43.732 -19.428   7.316  1.00  0.00     0.073 C 
HETATM   13  C   UNL     1      43.637 -18.702   4.024  1.00  0.00     0.034 A 
ENDBRANCH   1   3
BRANCH   1  14
HETATM   14  C   UNL     1      42.550 -16.513   2.202  1.00  0.00     0.051 A 
HETATM   15  C   UNL     1      41.201 -16.430   1.813  1.00  0.00     0.101 A 
HETATM   16  C   UNL     1      40.411 -15.362   2.256  1.00  0.00     0.069 A 
HETATM   17 CL   UNL     1      38.744 -15.232   1.824  1.00  0.00    -0.081 Cl
HETATM   18  C   UNL     1      40.964 -14.364   3.060  1.00  0.00     0.050 A 
HETATM   19  C   UNL     1      42.309 -14.432   3.411  1.00  0.00     0.036 A 
HETATM   20 CL   UNL     1      42.998 -13.194   4.387  1.00  0.00    -0.084 Cl
HETATM   21  C   UNL     1      43.108 -15.492   2.983  1.00  0.00     0.042 A 
BRANCH  15  22
HETATM   22  O   UNL     1      40.630 -17.380   1.004  1.00  0.00    -0.358 OA
HETATM   23  H   UNL     1      39.827 -16.997   0.585  1.00  0.00     0.218 HD
ENDBRANCH  15  22
ENDBRANCH   1  14
TORSDOF 3
ENDMDL
MODEL 3
REMARK VINA RESULT:      -7.6      2.075      2.823
REMARK  3 active torsions:
REMARK  status: ('A' for Active; 'I' for Inactive)
REMARK    1  A    between atoms: C_10  and  C_11 
REMARK    2  A    between atoms: C_11  and  C_12 
REMARK    3  A    between atoms: C_13  and  O_14 
ROOT
HETATM    1  C   UNL     1      43.559 -16.557   2.598  1.00  0.00     0.196 C 
HETATM    2  O   UNL     1      44.284 -16.124   1.705  1.00  0.00    -0.286 OA
ENDROOT
BRANCH   1   3
HETATM    3  C   UNL     1      43.868 -17.871   3.198  1.00  0.00     0.034 A 
HETATM    4  C   UNL     1      44.147 -17.926   4.564  1.00  0.00     0.134 A 
HETATM    5  N   UNL     1      44.451 -19.049   5.265  1.00  0.00    -0.240 NA
HETATM    6  C   UNL     1      44.485 -20.147   4.488  1.00  0.00     0.155 A 
HETATM    7  N   UNL     1      44.770 -21.418   4.895  1.00  0.00    -0.260 N 
HETATM    8  C   UNL     1      44.255 -20.230   3.123  1.00  0.00     0.038 A 
HETATM    9  N   UNL     1      44.734 -22.329   3.902  1.00  0.00    -0.177 NA
HETATM   10  H   UNL     1      44.994 -21.718   5.836  1.00  0.00     0.191 HD
HETATM   11  C   UNL     1      44.427 -21.605   2.815  1.00  0.00     0.065 A 
HETATM   12  C   UNL     1      44.297 -22.261   1.490  1.00  0.00     0.073 C 
HETATM   13  C   UNL     1      43.940 -19.045   2.437  1.00  0.00     0.034 A 
ENDBRANCH   1   3
BRANCH   1  14
HETATM   14  C   UNL     1      42.388 -15.740   3.008  1.00  0.00     0.051 A 
HETATM   15  C   UNL     1      41.205 -15.799   2.250  1.00  0.00     0.101 A 
HETATM   16  C   UNL     1      40.090 -15.047   2.639  1.00  0.00     0.069 A 
HETATM   17 CL   UNL     1      38.608 -15.107   1.754  1.00  0.00    -0.081 Cl
HETATM   18  C   UNL     1      40.155 -14.217   3.759  1.00  0.00     0.050 A 
HETATM   19  C   UNL     1      41.341 -14.134   4.483  1.00  0.00     0.036 A 
HETATM   20 CL   UNL     1      41.432 -13.100   5.854  1.00  0.00    -0.084 Cl
HETATM   21  C   UNL     1      42.460 -14.882   4.112  1.00  0.00     0.042 A 
BRANCH  15  22
HETATM   22  O   UNL     1      41.110 -16.585   1.129  1.00  0.00    -0.358 OA
HETATM   23  H   UNL     1      41.724 -16.237   0.445  1.00  0.00     0.218 HD
ENDBRANCH  15  22
ENDBRANCH   1  14
TORSDOF 3
ENDMDL
MODEL 4
REMARK VINA RESULT:      -7.6      5.015      6.787
REMARK  3 active torsions:
REMARK  status: ('A' for Active; 'I' for Inactive)
REMARK    1  A    between atoms: C_10  and  C_11 
REMARK    2  A    between atoms: C_11  and  C_12 
REMARK    3  A    between atoms: C_13  and  O_14 
ROOT
HETATM    1  C   UNL     1      41.438 -16.825   2.854  1.00  0.00     0.196 C 
HETATM    2  O   UNL     1      40.414 -16.842   3.535  1.00  0.00    -0.286 OA
ENDROOT
BRANCH   1   3
HETATM    3  C   UNL     1      41.552 -15.843   1.757  1.00  0.00     0.034 A 
HETATM    4  C   UNL     1      41.986 -14.553   2.066  1.00  0.00     0.134 A 
HETATM    5  N   UNL     1      42.142 -13.537   1.179  1.00  0.00    -0.240 NA
HETATM    6  C   UNL     1      41.802 -13.891  -0.075  1.00  0.00     0.155 A 
HETATM    7  N   UNL     1      41.840 -13.091  -1.180  1.00  0.00    -0.260 N 
HETATM    8  C   UNL     1      41.335 -15.121  -0.512  1.00  0.00     0.038 A 
HETATM    9  N   UNL     1      41.441 -13.707  -2.311  1.00  0.00    -0.177 NA
HETATM   10  H   UNL     1      42.129 -12.122  -1.218  1.00  0.00     0.191 HD
HETATM   11  C   UNL     1      41.124 -14.946  -1.906  1.00  0.00     0.065 A 
HETATM   12  C   UNL     1      40.627 -15.949  -2.881  1.00  0.00     0.073 C 
HETATM   13  C   UNL     1      41.191 -16.145   0.438  1.00  0.00     0.034 A 
ENDBRANCH   1   3
BRANCH   1  14
HETATM   14  C   UNL     1      42.498 -17.820   3.158  1.00  0.00     0.051 A 
HETATM   15  C   UNL     1      43.322 -17.630   4.281  1.00  0.00     0.101 A 
HETATM   16  C   UNL     1      44.313 -18.572   4.586  1.00  0.00     0.069 A 
HETATM   17 CL   UNL     1      45.332 -18.393   5.969  1.00  0.00    -0.081 Cl
HETATM   18  C   UNL     1      44.504 -19.684   3.766  1.00  0.00     0.050 A 
HETATM   19  C   UNL     1      43.710 -19.847   2.635  1.00  0.00     0.036 A 
HETATM   20 CL   UNL     1      43.953 -21.207   1.611  1.00  0.00    -0.084 Cl
HETATM   21  C   UNL     1      42.714 -18.921   2.319  1.00  0.00     0.042 A 
BRANCH  15  22
HETATM   22  O   UNL     1      43.179 -16.536   5.098  1.00  0.00    -0.358 OA
HETATM   23  H   UNL     1      42.225 -16.416   5.302  1.00  0.00     0.218 HD
ENDBRANCH  15  22
ENDBRANCH   1  14
TORSDOF 3
ENDMDL
MODEL 5
REMARK VINA RESULT:      -7.5      2.036      2.750
REMARK  3 active torsions:
REMARK  status: ('A' for Active; 'I' for Inactive)
REMARK    1  A    between atoms: C_10  and  C_11 
REMARK    2  A    between atoms: C_11  and  C_12 
REMARK    3  A    between atoms: C_13  and  O_14 
ROOT
HETATM    1  C   UNL     1      43.582 -16.670   3.294  1.00  0.00     0.196 C 
HETATM    2  O   UNL     1      43.723 -16.330   2.120  1.00  0.00    -0.286 OA
ENDROOT
BRANCH   1   3
HETATM    3  C   UNL     1      43.912 -18.056   3.683  1.00  0.00     0.034 A 
HETATM    4  C   UNL     1      44.281 -18.302   5.006  1.00  0.00     0.134 A 
HETATM    5  N   UNL     1      44.615 -19.513   5.521  1.00  0.00    -0.240 NA
HETATM    6  C   UNL     1      44.582 -20.493   4.599  1.00  0.00     0.155 A 
HETATM    7  N   UNL     1      44.874 -21.810   4.806  1.00  0.00    -0.260 N 
HETATM    8  C   UNL     1      44.259 -20.383   3.255  1.00  0.00     0.038 A 
HETATM    9  N   UNL     1      44.760 -22.573   3.700  1.00  0.00    -0.177 NA
HETATM   10  H   UNL     1      45.157 -22.239   5.678  1.00  0.00     0.191 HD
HETATM   11  C   UNL     1      44.390 -21.703   2.748  1.00  0.00     0.065 A 
HETATM   12  C   UNL     1      44.163 -22.168   1.357  1.00  0.00     0.073 C 
HETATM   13  C   UNL     1      43.917 -19.113   2.763  1.00  0.00     0.034 A 
ENDBRANCH   1   3
BRANCH   1  14
HETATM   14  C   UNL     1      43.060 -15.666   4.255  1.00  0.00     0.051 A 
HETATM   15  C   UNL     1      41.711 -15.275   4.181  1.00  0.00     0.101 A 
HETATM   16  C   UNL     1      41.203 -14.344   5.095  1.00  0.00     0.069 A 
HETATM   17 CL   UNL     1      39.548 -13.853   5.058  1.00  0.00    -0.081 Cl
HETATM   18  C   UNL     1      42.036 -13.780   6.061  1.00  0.00     0.050 A 
HETATM   19  C   UNL     1      43.379 -14.142   6.106  1.00  0.00     0.036 A 
HETATM   20 CL   UNL     1      44.414 -13.437   7.285  1.00  0.00    -0.084 Cl
HETATM   21  C   UNL     1      43.900 -15.074   5.206  1.00  0.00     0.042 A 
BRANCH  15  22
HETATM   22  O   UNL     1      40.867 -15.791   3.229  1.00  0.00    -0.358 OA
HETATM   23  H   UNL     1      40.193 -16.351   3.674  1.00  0.00     0.218 HD
ENDBRANCH  15  22
ENDBRANCH   1  14
TORSDOF 3
ENDMDL
MODEL 6
REMARK VINA RESULT:      -7.5      4.504      7.091
REMARK  3 active torsions:
REMARK  status: ('A' for Active; 'I' for Inactive)
REMARK    1  A    between atoms: C_10  and  C_11 
REMARK    2  A    between atoms: C_11  and  C_12 
REMARK    3  A    between atoms: C_13  and  O_14 
ROOT
HETATM    1  C   UNL     1      43.638 -17.698   2.289  1.00  0.00     0.196 C 
HETATM    2  O   UNL     1      44.375 -17.624   1.308  1.00  0.00    -0.286 OA
ENDROOT
BRANCH   1   3
HETATM    3  C   UNL     1      42.463 -16.808   2.371  1.00  0.00     0.034 A 
HETATM    4  C   UNL     1      41.240 -17.281   1.894  1.00  0.00     0.134 A 
HETATM    5  N   UNL     1      40.070 -16.590   1.894  1.00  0.00    -0.240 NA
HETATM    6  C   UNL     1      40.206 -15.347   2.393  1.00  0.00     0.155 A 
HETATM    7  N   UNL     1      39.219 -14.412   2.516  1.00  0.00    -0.260 N 
HETATM    8  C   UNL     1      41.359 -14.747   2.874  1.00  0.00     0.038 A 
HETATM    9  N   UNL     1      39.637 -13.247   3.049  1.00  0.00    -0.177 NA
HETATM   10  H   UNL     1      38.248 -14.517   2.252  1.00  0.00     0.191 HD
HETATM   11  C   UNL     1      40.947 -13.445   3.263  1.00  0.00     0.065 A 
HETATM   12  C   UNL     1      41.781 -12.366   3.851  1.00  0.00     0.073 C 
HETATM   13  C   UNL     1      42.546 -15.497   2.859  1.00  0.00     0.034 A 
ENDBRANCH   1   3
BRANCH   1  14
HETATM   14  C   UNL     1      43.990 -18.667   3.357  1.00  0.00     0.051 A 
HETATM   15  C   UNL     1      44.112 -20.032   3.040  1.00  0.00     0.101 A 
HETATM   16  C   UNL     1      44.462 -20.951   4.037  1.00  0.00     0.069 A 
HETATM   17 CL   UNL     1      44.649 -22.632   3.688  1.00  0.00    -0.081 Cl
HETATM   18  C   UNL     1      44.663 -20.524   5.349  1.00  0.00     0.050 A 
HETATM   19  C   UNL     1      44.503 -19.178   5.665  1.00  0.00     0.036 A 
HETATM   20 CL   UNL     1      44.733 -18.650   7.286  1.00  0.00    -0.084 Cl
HETATM   21  C   UNL     1      44.161 -18.248   4.683  1.00  0.00     0.042 A 
BRANCH  15  22
HETATM   22  O   UNL     1      43.900 -20.492   1.765  1.00  0.00    -0.358 OA
HETATM   23  H   UNL     1      43.114 -20.037   1.390  1.00  0.00     0.218 HD
ENDBRANCH  15  22
ENDBRANCH   1  14
TORSDOF 3
ENDMDL
MODEL 7
REMARK VINA RESULT:      -7.5      2.928      3.986
REMARK  3 active torsions:
REMARK  status: ('A' for Active; 'I' for Inactive)
REMARK    1  A    between atoms: C_10  and  C_11 
REMARK    2  A    between atoms: C_11  and  C_12 
REMARK    3  A    between atoms: C_13  and  O_14 
ROOT
HETATM    1  C   UNL     1      41.273 -16.856   2.099  1.00  0.00     0.196 C 
HETATM    2  O   UNL     1      40.214 -17.359   1.728  1.00  0.00    -0.286 OA
ENDROOT
BRANCH   1   3
HETATM    3  C   UNL     1      42.262 -17.703   2.797  1.00  0.00     0.034 A 
HETATM    4  C   UNL     1      42.778 -17.252   4.012  1.00  0.00     0.134 A 
HETATM    5  N   UNL     1      43.692 -17.906   4.775  1.00  0.00    -0.240 NA
HETATM    6  C   UNL     1      44.093 -19.065   4.219  1.00  0.00     0.155 A 
HETATM    7  N   UNL     1      45.005 -19.938   4.736  1.00  0.00    -0.260 N 
HETATM    8  C   UNL     1      43.682 -19.615   3.014  1.00  0.00     0.038 A 
HETATM    9  N   UNL     1      45.218 -21.023   3.964  1.00  0.00    -0.177 NA
HETATM   10  H   UNL     1      45.510 -19.842   5.607  1.00  0.00     0.191 HD
HETATM   11  C   UNL     1      44.416 -20.825   2.907  1.00  0.00     0.065 A 
HETATM   12  C   UNL     1      44.368 -21.822   1.807  1.00  0.00     0.073 C 
HETATM   13  C   UNL     1      42.733 -18.907   2.258  1.00  0.00     0.034 A 
ENDBRANCH   1   3
BRANCH   1  14
HETATM   14  C   UNL     1      41.487 -15.409   1.847  1.00  0.00     0.051 A 
HETATM   15  C   UNL     1      41.729 -14.965   0.535  1.00  0.00     0.101 A 
HETATM   16  C   UNL     1      41.914 -13.599   0.283  1.00  0.00     0.069 A 
HETATM   17 CL   UNL     1      42.189 -13.005  -1.315  1.00  0.00    -0.081 Cl
HETATM   18  C   UNL     1      41.886 -12.681   1.332  1.00  0.00     0.050 A 
HETATM   19  C   UNL     1      41.683 -13.130   2.634  1.00  0.00     0.036 A 
HETATM   20 CL   UNL     1      41.665 -12.003   3.933  1.00  0.00    -0.084 Cl
HETATM   21  C   UNL     1      41.491 -14.487   2.901  1.00  0.00     0.042 A 
BRANCH  15  22
HETATM   22  O   UNL     1      41.787 -15.842  -0.520  1.00  0.00    -0.358 OA
HETATM   23  H   UNL     1      41.296 -15.456  -1.279  1.00  0.00     0.218 HD
ENDBRANCH  15  22
ENDBRANCH   1  14
TORSDOF 3
ENDMDL
MODEL 8
REMARK VINA RESULT:      -7.4      4.005      6.728
REMARK  3 active torsions:
REMARK  status: ('A' for Active; 'I' for Inactive)
REMARK    1  A    between atoms: C_10  and  C_11 
REMARK    2  A    between atoms: C_11  and  C_12 
REMARK    3  A    between atoms: C_13  and  O_14 
ROOT
HETATM    1  C   UNL     1      43.691 -16.790   5.774  1.00  0.00     0.196 C 
HETATM    2  O   UNL     1      44.548 -16.691   6.650  1.00  0.00    -0.286 OA
ENDROOT
BRANCH   1   3
HETATM    3  C   UNL     1      42.495 -15.926   5.842  1.00  0.00     0.034 A 
HETATM    4  C   UNL     1      41.285 -16.500   6.234  1.00  0.00     0.134 A 
HETATM    5  N   UNL     1      40.099 -15.847   6.344  1.00  0.00    -0.240 NA
HETATM    6  C   UNL     1      40.192 -14.548   6.003  1.00  0.00     0.155 A 
HETATM    7  N   UNL     1      39.175 -13.637   6.001  1.00  0.00    -0.260 N 
HETATM    8  C   UNL     1      41.317 -13.861   5.575  1.00  0.00     0.038 A 
HETATM    9  N   UNL     1      39.552 -12.403   5.612  1.00  0.00    -0.177 NA
HETATM   10  H   UNL     1      38.210 -13.805   6.255  1.00  0.00     0.191 HD
HETATM   11  C   UNL     1      40.860 -12.537   5.344  1.00  0.00     0.065 A 
HETATM   12  C   UNL     1      41.651 -11.373   4.872  1.00  0.00     0.073 C 
HETATM   13  C   UNL     1      42.524 -14.573   5.478  1.00  0.00     0.034 A 
ENDBRANCH   1   3
BRANCH   1  14
HETATM   14  C   UNL     1      43.896 -17.799   4.704  1.00  0.00     0.051 A 
HETATM   15  C   UNL     1      44.281 -19.106   5.051  1.00  0.00     0.101 A 
HETATM   16  C   UNL     1      44.458 -20.070   4.051  1.00  0.00     0.069 A 
HETATM   17 CL   UNL     1      44.906 -21.694   4.432  1.00  0.00    -0.081 Cl
HETATM   18  C   UNL     1      44.282 -19.732   2.709  1.00  0.00     0.050 A 
HETATM   19  C   UNL     1      43.938 -18.428   2.369  1.00  0.00     0.036 A 
HETATM   20 CL   UNL     1      43.737 -18.003   0.714  1.00  0.00    -0.084 Cl
HETATM   21  C   UNL     1      43.751 -17.456   3.354  1.00  0.00     0.042 A 
BRANCH  15  22
HETATM   22  O   UNL     1      44.486 -19.469   6.359  1.00  0.00    -0.358 OA
HETATM   23  H   UNL     1      43.738 -20.035   6.651  1.00  0.00     0.218 HD
ENDBRANCH  15  22
ENDBRANCH   1  14
TORSDOF 3
ENDMDL
MODEL 9
REMARK VINA RESULT:      -7.4      2.525      3.866
REMARK  3 active torsions:
REMARK  status: ('A' for Active; 'I' for Inactive)
REMARK    1  A    between atoms: C_10  and  C_11 
REMARK    2  A    between atoms: C_11  and  C_12 
REMARK    3  A    between atoms: C_13  and  O_14 
ROOT
HETATM    1  C   UNL     1      43.858 -14.582   6.052  1.00  0.00     0.196 C 
HETATM    2  O   UNL     1      44.870 -13.928   6.299  1.00  0.00    -0.286 OA
ENDROOT
BRANCH   1   3
HETATM    3  C   UNL     1      43.792 -15.992   6.487  1.00  0.00     0.034 A 
HETATM    4  C   UNL     1      43.511 -16.258   7.828  1.00  0.00     0.134 A 
HETATM    5  N   UNL     1      43.418 -17.493   8.386  1.00  0.00    -0.240 NA
HETATM    6  C   UNL     1      43.656 -18.478   7.501  1.00  0.00     0.155 A 
HETATM    7  N   UNL     1      43.646 -19.818   7.759  1.00  0.00    -0.260 N 
HETATM    8  C   UNL     1      43.969 -18.354   6.156  1.00  0.00     0.038 A 
HETATM    9  N   UNL     1      43.922 -20.582   6.683  1.00  0.00    -0.177 NA
HETATM   10  H   UNL     1      43.459 -20.264   8.649  1.00  0.00     0.191 HD
HETATM   11  C   UNL     1      44.127 -19.690   5.702  1.00  0.00     0.065 A 
HETATM   12  C   UNL     1      44.467 -20.149   4.332  1.00  0.00     0.073 C 
HETATM   13  C   UNL     1      44.053 -17.059   5.618  1.00  0.00     0.034 A 
ENDBRANCH   1   3
BRANCH   1  14
HETATM   14  C   UNL     1      42.762 -13.920   5.300  1.00  0.00     0.051 A 
HETATM   15  C   UNL     1      42.980 -13.523   3.968  1.00  0.00     0.101 A 
HETATM   16  C   UNL     1      41.946 -12.915   3.244  1.00  0.00     0.069 A 
HETATM   17 CL   UNL     1      42.159 -12.435   1.599  1.00  0.00    -0.081 Cl
HETATM   18  C   UNL     1      40.712 -12.675   3.847  1.00  0.00     0.050 A 
HETATM   19  C   UNL     1      40.515 -13.035   5.176  1.00  0.00     0.036 A 
HETATM   20 CL   UNL     1      38.999 -12.725   5.928  1.00  0.00    -0.084 Cl
HETATM   21  C   UNL     1      41.532 -13.648   5.910  1.00  0.00     0.042 A 
BRANCH  15  22
HETATM   22  O   UNL     1      44.188 -13.722   3.349  1.00  0.00    -0.358 OA
HETATM   23  H   UNL     1      44.531 -12.855   3.038  1.00  0.00     0.218 HD
ENDBRANCH  15  22
ENDBRANCH   1  14
TORSDOF 3
ENDMDL
MODEL 10
REMARK VINA RESULT:      -7.3      5.012      6.760
REMARK  3 active torsions:
REMARK  status: ('A' for Active; 'I' for Inactive)
REMARK    1  A    between atoms: C_10  and  C_11 
REMARK    2  A    between atoms: C_11  and  C_12 
REMARK    3  A    between atoms: C_13  and  O_14 
ROOT
HETATM    1  C   UNL     1      42.807 -14.905   2.685  1.00  0.00     0.196 C 
HETATM    2  O   UNL     1      43.596 -13.979   2.864  1.00  0.00    -0.286 OA
ENDROOT
BRANCH   1   3
HETATM    3  C   UNL     1      41.696 -14.724   1.729  1.00  0.00     0.034 A 
HETATM    4  C   UNL     1      40.415 -14.501   2.236  1.00  0.00     0.134 A 
HETATM    5  N   UNL     1      39.292 -14.319   1.496  1.00  0.00    -0.240 NA
HETATM    6  C   UNL     1      39.527 -14.401   0.173  1.00  0.00     0.155 A 
HETATM    7  N   UNL     1      38.603 -14.272  -0.823  1.00  0.00    -0.260 N 
HETATM    8  C   UNL     1      40.737 -14.641  -0.461  1.00  0.00     0.038 A 
HETATM    9  N   UNL     1      39.118 -14.401  -2.062  1.00  0.00    -0.177 NA
HETATM   10  H   UNL     1      37.613 -14.096  -0.713  1.00  0.00     0.191 HD
HETATM   11  C   UNL     1      40.421 -14.633  -1.845  1.00  0.00     0.065 A 
HETATM   12  C   UNL     1      41.346 -14.839  -2.988  1.00  0.00     0.073 C 
HETATM   13  C   UNL     1      41.875 -14.820   0.343  1.00  0.00     0.034 A 
ENDBRANCH   1   3
BRANCH   1  14
HETATM   14  C   UNL     1      43.002 -16.152   3.467  1.00  0.00     0.051 A 
HETATM   15  C   UNL     1      42.703 -16.160   4.840  1.00  0.00     0.101 A 
HETATM   16  C   UNL     1      42.866 -17.337   5.583  1.00  0.00     0.069 A 
HETATM   17 CL   UNL     1      42.487 -17.401   7.267  1.00  0.00    -0.081 Cl
HETATM   18  C   UNL     1      43.350 -18.493   4.971  1.00  0.00     0.050 A 
HETATM   19  C   UNL     1      43.680 -18.469   3.619  1.00  0.00     0.036 A 
HETATM   20 CL   UNL     1      44.294 -19.888   2.866  1.00  0.00    -0.084 Cl
HETATM   21  C   UNL     1      43.518 -17.306   2.864  1.00  0.00     0.042 A 
BRANCH  15  22
HETATM   22  O   UNL     1      42.247 -15.036   5.482  1.00  0.00    -0.358 OA
HETATM   23  H   UNL     1      41.361 -15.226   5.862  1.00  0.00     0.218 HD
ENDBRANCH  15  22
ENDBRANCH   1  14
TORSDOF 3
ENDMDL
