MODEL 1
REMARK VINA RESULT:      -8.5      0.000      0.000
REMARK  4 active torsions:
REMARK  status: ('A' for Active; 'I' for Inactive)
REMARK    1  A    between atoms: N_2  and  C_4 
REMARK    2  A    between atoms: N_2  and  C_16 
REMARK    3  A    between atoms: C_4  and  C_5 
REMARK    4  A    between atoms: C_16  and  C_17 
ROOT
HETATM    1  C   UNL     1      44.267 -14.488   6.304  1.00  0.00     0.270 C 
HETATM    2  N   UNL     1      43.510 -15.706   5.849  1.00  0.00    -0.064 N 
HETATM    3  H   UNL     1      43.736 -15.820   4.846  1.00  0.00     0.280 HD
ENDROOT
BRANCH   2   4
HETATM    4  C   UNL     1      44.026 -16.984   6.501  1.00  0.00     0.312 C 
BRANCH   4   5
HETATM    5  C   UNL     1      44.135 -18.123   5.497  1.00  0.00     0.133 A 
HETATM    6  N   UNL     1      44.322 -19.328   5.934  1.00  0.00    -0.233 NA
HETATM    7  C   UNL     1      44.428 -20.357   4.973  1.00  0.00     0.074 A 
HETATM    8  C   UNL     1      44.339 -20.115   3.597  1.00  0.00     0.061 A 
HETATM    9  C   UNL     1      44.628 -21.670   5.404  1.00  0.00     0.032 A 
HETATM   10  C   UNL     1      44.127 -18.725   3.167  1.00  0.00     0.259 A 
HETATM   11  C   UNL     1      44.446 -21.147   2.660  1.00  0.00     0.019 A 
HETATM   12  O   UNL     1      44.031 -18.395   1.994  1.00  0.00    -0.267 OA
HETATM   13  N   UNL     1      44.037 -17.797   4.175  1.00  0.00    -0.309 N 
HETATM   14  H   UNL     1      43.905 -16.850   3.841  1.00  0.00     0.170 HD
HETATM   15  C   UNL     1      44.647 -22.452   3.107  1.00  0.00     0.001 A 
HETATM   16  C   UNL     1      44.737 -22.713   4.476  1.00  0.00     0.002 A 
ENDBRANCH   4   5
ENDBRANCH   2   4
BRANCH   2  17
HETATM   17  C   UNL     1      42.016 -15.584   5.990  1.00  0.00     0.273 C 
BRANCH  17  18
HETATM   18  C   UNL     1      41.271 -15.389   4.699  1.00  0.00    -0.028 A 
HETATM   19  C   UNL     1      41.289 -16.369   3.697  1.00  0.00     0.035 A 
HETATM   20  C   UNL     1      40.571 -16.187   2.507  1.00  0.00     0.070 A 
HETATM   21 CL   UNL     1      40.628 -17.444   1.326  1.00  0.00    -0.081 Cl
HETATM   22  C   UNL     1      39.822 -15.024   2.302  1.00  0.00     0.123 A 
HETATM   23  C   UNL     1      39.830 -14.031   3.285  1.00  0.00     0.104 A 
HETATM   24  O   UNL     1      39.109 -14.894   1.138  1.00  0.00    -0.344 OA
HETATM   25  O   UNL     1      39.156 -12.842   3.169  1.00  0.00    -0.346 OA
HETATM   26  C   UNL     1      40.535 -14.215   4.477  1.00  0.00     0.048 A 
HETATM   27  C   UNL     1      38.701 -12.610   1.828  1.00  0.00     0.202 C 
HETATM   28  C   UNL     1      38.107 -13.876   1.236  1.00  0.00     0.202 C 
ENDBRANCH  17  18
ENDBRANCH   2  17
TORSDOF 4
ENDMDL
MODEL 2
REMARK VINA RESULT:      -8.4      1.598      2.071
REMARK  4 active torsions:
REMARK  status: ('A' for Active; 'I' for Inactive)
REMARK    1  A    between atoms: N_2  and  C_4 
REMARK    2  A    between atoms: N_2  and  C_16 
REMARK    3  A    between atoms: C_4  and  C_5 
REMARK    4  A    between atoms: C_16  and  C_17 
ROOT
HETATM    1  C   UNL     1      44.283 -14.875   7.056  1.00  0.00     0.270 C 
HETATM    2  N   UNL     1      43.725 -16.055   6.307  1.00  0.00    -0.064 N 
HETATM    3  H   UNL     1      43.923 -15.874   5.309  1.00  0.00     0.280 HD
ENDROOT
BRANCH   2   4
HETATM    4  C   UNL     1      44.481 -17.343   6.616  1.00  0.00     0.312 C 
BRANCH   4   5
HETATM    5  C   UNL     1      44.406 -18.330   5.458  1.00  0.00     0.133 A 
HETATM    6  N   UNL     1      44.629 -19.584   5.689  1.00  0.00    -0.233 NA
HETATM    7  C   UNL     1      44.560 -20.468   4.590  1.00  0.00     0.074 A 
HETATM    8  C   UNL     1      44.267 -20.034   3.292  1.00  0.00     0.061 A 
HETATM    9  C   UNL     1      44.793 -21.829   4.797  1.00  0.00     0.032 A 
HETATM   10  C   UNL     1      44.024 -18.596   3.098  1.00  0.00     0.259 A 
HETATM   11  C   UNL     1      44.203 -20.924   2.216  1.00  0.00     0.019 A 
HETATM   12  O   UNL     1      43.756 -18.104   2.012  1.00  0.00    -0.267 OA
HETATM   13  N   UNL     1      44.112 -17.820   4.227  1.00  0.00    -0.309 N 
HETATM   14  H   UNL     1      43.953 -16.834   4.053  1.00  0.00     0.170 HD
HETATM   15  C   UNL     1      44.439 -22.278   2.440  1.00  0.00     0.001 A 
HETATM   16  C   UNL     1      44.733 -22.730   3.728  1.00  0.00     0.002 A 
ENDBRANCH   4   5
ENDBRANCH   2   4
BRANCH   2  17
HETATM   17  C   UNL     1      42.241 -16.237   6.474  1.00  0.00     0.273 C 
BRANCH  17  18
HETATM   18  C   UNL     1      41.393 -15.424   5.536  1.00  0.00    -0.028 A 
HETATM   19  C   UNL     1      40.696 -14.293   5.985  1.00  0.00     0.035 A 
HETATM   20  C   UNL     1      39.928 -13.528   5.096  1.00  0.00     0.070 A 
HETATM   21 CL   UNL     1      39.111 -12.141   5.718  1.00  0.00    -0.081 Cl
HETATM   22  C   UNL     1      39.847 -13.881   3.745  1.00  0.00     0.123 A 
HETATM   23  C   UNL     1      40.514 -15.026   3.303  1.00  0.00     0.104 A 
HETATM   24  O   UNL     1      39.110 -13.092   2.899  1.00  0.00    -0.344 OA
HETATM   25  O   UNL     1      40.473 -15.476   2.007  1.00  0.00    -0.346 OA
HETATM   26  C   UNL     1      41.289 -15.784   4.184  1.00  0.00     0.048 A 
HETATM   27  C   UNL     1      39.448 -14.824   1.243  1.00  0.00     0.202 C 
HETATM   28  C   UNL     1      39.434 -13.332   1.526  1.00  0.00     0.202 C 
ENDBRANCH  17  18
ENDBRANCH   2  17
TORSDOF 4
ENDMDL
MODEL 3
REMARK VINA RESULT:      -8.2      3.498      8.467
REMARK  4 active torsions:
REMARK  status: ('A' for Active; 'I' for Inactive)
REMARK    1  A    between atoms: N_2  and  C_4 
REMARK    2  A    between atoms: N_2  and  C_16 
REMARK    3  A    between atoms: C_4  and  C_5 
REMARK    4  A    between atoms: C_16  and  C_17 
ROOT
HETATM    1  C   UNL     1      41.129 -17.121   2.406  1.00  0.00     0.270 C 
HETATM    2  N   UNL     1      42.248 -16.535   1.589  1.00  0.00    -0.064 N 
HETATM    3  H   UNL     1      42.168 -16.965   0.651  1.00  0.00     0.280 HD
ENDROOT
BRANCH   2   4
HETATM    4  C   UNL     1      42.061 -15.043   1.339  1.00  0.00     0.312 C 
BRANCH   4   5
HETATM    5  C   UNL     1      41.230 -14.782   0.089  1.00  0.00     0.133 A 
HETATM    6  N   UNL     1      40.178 -14.033   0.181  1.00  0.00    -0.233 NA
HETATM    7  C   UNL     1      39.428 -13.821  -0.997  1.00  0.00     0.074 A 
HETATM    8  C   UNL     1      39.782 -14.387  -2.227  1.00  0.00     0.061 A 
HETATM    9  C   UNL     1      38.287 -13.018  -0.940  1.00  0.00     0.032 A 
HETATM   10  C   UNL     1      40.988 -15.228  -2.262  1.00  0.00     0.259 A 
HETATM   11  C   UNL     1      39.026 -14.166  -3.382  1.00  0.00     0.019 A 
HETATM   12  O   UNL     1      41.395 -15.771  -3.280  1.00  0.00    -0.267 OA
HETATM   13  N   UNL     1      41.649 -15.373  -1.069  1.00  0.00    -0.309 N 
HETATM   14  H   UNL     1      42.465 -15.969  -1.128  1.00  0.00     0.170 HD
HETATM   15  C   UNL     1      37.891 -13.363  -3.308  1.00  0.00     0.001 A 
HETATM   16  C   UNL     1      37.522 -12.789  -2.089  1.00  0.00     0.002 A 
ENDBRANCH   4   5
ENDBRANCH   2   4
BRANCH   2  17
HETATM   17  C   UNL     1      43.620 -16.831   2.133  1.00  0.00     0.273 C 
BRANCH  17  18
HETATM   18  C   UNL     1      43.817 -18.239   2.625  1.00  0.00    -0.028 A 
HETATM   19  C   UNL     1      43.801 -19.325   1.738  1.00  0.00     0.035 A 
HETATM   20  C   UNL     1      44.010 -20.630   2.205  1.00  0.00     0.070 A 
HETATM   21 CL   UNL     1      43.993 -21.914   1.053  1.00  0.00    -0.081 Cl
HETATM   22  C   UNL     1      44.240 -20.868   3.563  1.00  0.00     0.123 A 
HETATM   23  C   UNL     1      44.222 -19.791   4.453  1.00  0.00     0.104 A 
HETATM   24  O   UNL     1      44.469 -22.156   3.979  1.00  0.00    -0.344 OA
HETATM   25  O   UNL     1      44.404 -19.921   5.807  1.00  0.00    -0.346 OA
HETATM   26  C   UNL     1      44.026 -18.488   3.989  1.00  0.00     0.048 A 
HETATM   27  C   UNL     1      44.315 -21.288   6.233  1.00  0.00     0.202 C 
HETATM   28  C   UNL     1      45.067 -22.199   5.279  1.00  0.00     0.202 C 
ENDBRANCH  17  18
ENDBRANCH   2  17
TORSDOF 4
ENDMDL
MODEL 4
REMARK VINA RESULT:      -8.2      2.558      3.571
REMARK  4 active torsions:
REMARK  status: ('A' for Active; 'I' for Inactive)
REMARK    1  A    between atoms: N_2  and  C_4 
REMARK    2  A    between atoms: N_2  and  C_16 
REMARK    3  A    between atoms: C_4  and  C_5 
REMARK    4  A    between atoms: C_16  and  C_17 
ROOT
HETATM    1  C   UNL     1      41.230 -16.108   5.001  1.00  0.00     0.270 C 
HETATM    2  N   UNL     1      41.569 -15.755   3.579  1.00  0.00    -0.064 N 
HETATM    3  H   UNL     1      41.413 -14.736   3.497  1.00  0.00     0.280 HD
ENDROOT
BRANCH   2   4
HETATM    4  C   UNL     1      43.053 -15.936   3.278  1.00  0.00     0.312 C 
BRANCH   4   5
HETATM    5  C   UNL     1      43.501 -17.375   3.502  1.00  0.00     0.133 A 
HETATM    6  N   UNL     1      43.352 -18.234   2.544  1.00  0.00    -0.233 NA
HETATM    7  C   UNL     1      43.770 -19.560   2.792  1.00  0.00     0.074 A 
HETATM    8  C   UNL     1      44.325 -19.958   4.014  1.00  0.00     0.061 A 
HETATM    9  C   UNL     1      43.627 -20.516   1.785  1.00  0.00     0.032 A 
HETATM   10  C   UNL     1      44.465 -18.933   5.059  1.00  0.00     0.259 A 
HETATM   11  C   UNL     1      44.733 -21.276   4.241  1.00  0.00     0.019 A 
HETATM   12  O   UNL     1      44.939 -19.165   6.163  1.00  0.00    -0.267 OA
HETATM   13  N   UNL     1      44.032 -17.676   4.723  1.00  0.00    -0.309 N 
HETATM   14  H   UNL     1      44.132 -17.000   5.472  1.00  0.00     0.170 HD
HETATM   15  C   UNL     1      44.583 -22.218   3.225  1.00  0.00     0.001 A 
HETATM   16  C   UNL     1      44.032 -21.838   1.999  1.00  0.00     0.002 A 
ENDBRANCH   4   5
ENDBRANCH   2   4
BRANCH   2  17
HETATM   17  C   UNL     1      40.714 -16.453   2.556  1.00  0.00     0.273 C 
BRANCH  17  18
HETATM   18  C   UNL     1      40.232 -15.580   1.430  1.00  0.00    -0.028 A 
HETATM   19  C   UNL     1      39.046 -14.840   1.544  1.00  0.00     0.035 A 
HETATM   20  C   UNL     1      38.620 -14.011   0.497  1.00  0.00     0.070 A 
HETATM   21 CL   UNL     1      37.160 -13.118   0.715  1.00  0.00    -0.081 Cl
HETATM   22  C   UNL     1      39.373 -13.907  -0.676  1.00  0.00     0.123 A 
HETATM   23  C   UNL     1      40.537 -14.670  -0.805  1.00  0.00     0.104 A 
HETATM   24  O   UNL     1      38.940 -13.063  -1.667  1.00  0.00    -0.344 OA
HETATM   25  O   UNL     1      41.328 -14.664  -1.925  1.00  0.00    -0.346 OA
HETATM   26  C   UNL     1      40.971 -15.488   0.241  1.00  0.00     0.048 A 
HETATM   27  C   UNL     1      40.679 -14.036  -3.040  1.00  0.00     0.202 C 
HETATM   28  C   UNL     1      39.979 -12.761  -2.604  1.00  0.00     0.202 C 
ENDBRANCH  17  18
ENDBRANCH   2  17
TORSDOF 4
ENDMDL
MODEL 5
REMARK VINA RESULT:      -8.2      4.229      8.603
REMARK  4 active torsions:
REMARK  status: ('A' for Active; 'I' for Inactive)
REMARK    1  A    between atoms: N_2  and  C_4 
REMARK    2  A    between atoms: N_2  and  C_16 
REMARK    3  A    between atoms: C_4  and  C_5 
REMARK    4  A    between atoms: C_16  and  C_17 
ROOT
HETATM    1  C   UNL     1      40.940 -17.784   1.407  1.00  0.00     0.270 C 
HETATM    2  N   UNL     1      41.890 -16.861   0.695  1.00  0.00    -0.064 N 
HETATM    3  H   UNL     1      41.687 -16.971  -0.313  1.00  0.00     0.280 HD
ENDROOT
BRANCH   2   4
HETATM    4  C   UNL     1      41.594 -15.394   0.983  1.00  0.00     0.312 C 
BRANCH   4   5
HETATM    5  C   UNL     1      41.721 -14.537  -0.270  1.00  0.00     0.133 A 
HETATM    6  N   UNL     1      42.163 -13.325  -0.158  1.00  0.00    -0.233 NA
HETATM    7  C   UNL     1      42.259 -12.559  -1.340  1.00  0.00     0.074 A 
HETATM    8  C   UNL     1      41.896 -13.061  -2.595  1.00  0.00     0.061 A 
HETATM    9  C   UNL     1      42.732 -11.247  -1.263  1.00  0.00     0.032 A 
HETATM   10  C   UNL     1      41.401 -14.445  -2.652  1.00  0.00     0.259 A 
HETATM   11  C   UNL     1      41.997 -12.287  -3.755  1.00  0.00     0.019 A 
HETATM   12  O   UNL     1      41.059 -14.990  -3.692  1.00  0.00    -0.267 OA
HETATM   13  N   UNL     1      41.346 -15.108  -1.452  1.00  0.00    -0.309 N 
HETATM   14  H   UNL     1      40.987 -16.053  -1.528  1.00  0.00     0.170 HD
HETATM   15  C   UNL     1      42.471 -10.980  -3.660  1.00  0.00     0.001 A 
HETATM   16  C   UNL     1      42.839 -10.462  -2.416  1.00  0.00     0.002 A 
ENDBRANCH   4   5
ENDBRANCH   2   4
BRANCH   2  17
HETATM   17  C   UNL     1      43.342 -17.183   0.926  1.00  0.00     0.273 C 
BRANCH  17  18
HETATM   18  C   UNL     1      43.643 -17.841   2.244  1.00  0.00    -0.028 A 
HETATM   19  C   UNL     1      43.596 -17.116   3.444  1.00  0.00     0.035 A 
HETATM   20  C   UNL     1      43.854 -17.746   4.669  1.00  0.00     0.070 A 
HETATM   21 CL   UNL     1      43.762 -16.793   6.104  1.00  0.00    -0.081 Cl
HETATM   22  C   UNL     1      44.161 -19.109   4.714  1.00  0.00     0.123 A 
HETATM   23  C   UNL     1      44.241 -19.826   3.517  1.00  0.00     0.104 A 
HETATM   24  O   UNL     1      44.379 -19.698   5.934  1.00  0.00    -0.344 OA
HETATM   25  O   UNL     1      44.565 -21.157   3.450  1.00  0.00    -0.346 OA
HETATM   26  C   UNL     1      43.972 -19.204   2.296  1.00  0.00     0.048 A 
HETATM   27  C   UNL     1      45.096 -21.646   4.690  1.00  0.00     0.202 C 
HETATM   28  C   UNL     1      44.286 -21.125   5.863  1.00  0.00     0.202 C 
ENDBRANCH  17  18
ENDBRANCH   2  17
TORSDOF 4
ENDMDL
MODEL 6
REMARK VINA RESULT:      -8.2      3.592      7.920
REMARK  4 active torsions:
REMARK  status: ('A' for Active; 'I' for Inactive)
REMARK    1  A    between atoms: N_2  and  C_4 
REMARK    2  A    between atoms: N_2  and  C_16 
REMARK    3  A    between atoms: C_4  and  C_5 
REMARK    4  A    between atoms: C_16  and  C_17 
ROOT
HETATM    1  C   UNL     1      40.757 -15.532   4.282  1.00  0.00     0.270 C 
HETATM    2  N   UNL     1      40.739 -16.297   2.986  1.00  0.00    -0.064 N 
HETATM    3  H   UNL     1      40.373 -17.236   3.218  1.00  0.00     0.280 HD
ENDROOT
BRANCH   2   4
HETATM    4  C   UNL     1      39.728 -15.730   1.996  1.00  0.00     0.312 C 
BRANCH   4   5
HETATM    5  C   UNL     1      40.413 -15.010   0.842  1.00  0.00     0.133 A 
HETATM    6  N   UNL     1      40.902 -13.827   1.042  1.00  0.00    -0.233 NA
HETATM    7  C   UNL     1      41.522 -13.188  -0.053  1.00  0.00     0.074 A 
HETATM    8  C   UNL     1      41.618 -13.783  -1.316  1.00  0.00     0.061 A 
HETATM    9  C   UNL     1      42.062 -11.912   0.122  1.00  0.00     0.032 A 
HETATM   10  C   UNL     1      41.043 -15.127  -1.477  1.00  0.00     0.259 A 
HETATM   11  C   UNL     1      42.236 -13.133  -2.390  1.00  0.00     0.019 A 
HETATM   12  O   UNL     1      41.071 -15.744  -2.532  1.00  0.00    -0.267 OA
HETATM   13  N   UNL     1      40.463 -15.664  -0.355  1.00  0.00    -0.309 N 
HETATM   14  H   UNL     1      40.066 -16.584  -0.507  1.00  0.00     0.170 HD
HETATM   15  C   UNL     1      42.769 -11.861  -2.198  1.00  0.00     0.001 A 
HETATM   16  C   UNL     1      42.683 -11.252  -0.944  1.00  0.00     0.002 A 
ENDBRANCH   4   5
ENDBRANCH   2   4
BRANCH   2  17
HETATM   17  C   UNL     1      42.095 -16.456   2.353  1.00  0.00     0.273 C 
BRANCH  17  18
HETATM   18  C   UNL     1      42.876 -17.653   2.821  1.00  0.00    -0.028 A 
HETATM   19  C   UNL     1      43.622 -17.611   4.008  1.00  0.00     0.035 A 
HETATM   20  C   UNL     1      44.327 -18.740   4.447  1.00  0.00     0.070 A 
HETATM   21 CL   UNL     1      45.210 -18.619   5.925  1.00  0.00    -0.081 Cl
HETATM   22  C   UNL     1      44.295 -19.927   3.709  1.00  0.00     0.123 A 
HETATM   23  C   UNL     1      43.580 -19.960   2.509  1.00  0.00     0.104 A 
HETATM   24  O   UNL     1      44.973 -21.020   4.186  1.00  0.00    -0.344 OA
HETATM   25  O   UNL     1      43.511 -21.063   1.696  1.00  0.00    -0.346 OA
HETATM   26  C   UNL     1      42.867 -18.840   2.075  1.00  0.00     0.048 A 
HETATM   27  C   UNL     1      44.481 -22.058   2.056  1.00  0.00     0.202 C 
HETATM   28  C   UNL     1      44.537 -22.233   3.563  1.00  0.00     0.202 C 
ENDBRANCH  17  18
ENDBRANCH   2  17
TORSDOF 4
ENDMDL
MODEL 7
REMARK VINA RESULT:      -8.1      4.351      8.314
REMARK  4 active torsions:
REMARK  status: ('A' for Active; 'I' for Inactive)
REMARK    1  A    between atoms: N_2  and  C_4 
REMARK    2  A    between atoms: N_2  and  C_16 
REMARK    3  A    between atoms: C_4  and  C_5 
REMARK    4  A    between atoms: C_16  and  C_17 
ROOT
HETATM    1  C   UNL     1      40.974 -17.706   1.136  1.00  0.00     0.270 C 
HETATM    2  N   UNL     1      41.974 -16.726   0.586  1.00  0.00    -0.064 N 
HETATM    3  H   UNL     1      41.904 -16.801  -0.443  1.00  0.00     0.280 HD
ENDROOT
BRANCH   2   4
HETATM    4  C   UNL     1      41.592 -15.281   0.888  1.00  0.00     0.312 C 
BRANCH   4   5
HETATM    5  C   UNL     1      41.744 -14.392  -0.339  1.00  0.00     0.133 A 
HETATM    6  N   UNL     1      42.171 -13.179  -0.185  1.00  0.00    -0.233 NA
HETATM    7  C   UNL     1      42.290 -12.381  -1.344  1.00  0.00     0.074 A 
HETATM    8  C   UNL     1      41.966 -12.854  -2.620  1.00  0.00     0.061 A 
HETATM    9  C   UNL     1      42.748 -11.068  -1.219  1.00  0.00     0.032 A 
HETATM   10  C   UNL     1      41.487 -14.241  -2.726  1.00  0.00     0.259 A 
HETATM   11  C   UNL     1      42.091 -12.049  -3.756  1.00  0.00     0.019 A 
HETATM   12  O   UNL     1      41.178 -14.762  -3.788  1.00  0.00    -0.267 OA
HETATM   13  N   UNL     1      41.406 -14.935  -1.545  1.00  0.00    -0.309 N 
HETATM   14  H   UNL     1      41.059 -15.881  -1.655  1.00  0.00     0.170 HD
HETATM   15  C   UNL     1      42.548 -10.741  -3.615  1.00  0.00     0.001 A 
HETATM   16  C   UNL     1      42.878 -10.252  -2.349  1.00  0.00     0.002 A 
ENDBRANCH   4   5
ENDBRANCH   2   4
BRANCH   2  17
HETATM   17  C   UNL     1      43.395 -17.013   0.990  1.00  0.00     0.273 C 
BRANCH  17  18
HETATM   18  C   UNL     1      43.547 -17.759   2.287  1.00  0.00    -0.028 A 
HETATM   19  C   UNL     1      43.942 -19.104   2.307  1.00  0.00     0.035 A 
HETATM   20  C   UNL     1      44.104 -19.783   3.523  1.00  0.00     0.070 A 
HETATM   21 CL   UNL     1      44.608 -21.432   3.469  1.00  0.00    -0.081 Cl
HETATM   22  C   UNL     1      43.877 -19.126   4.736  1.00  0.00     0.123 A 
HETATM   23  C   UNL     1      43.450 -17.796   4.717  1.00  0.00     0.104 A 
HETATM   24  O   UNL     1      44.074 -19.814   5.907  1.00  0.00    -0.344 OA
HETATM   25  O   UNL     1      43.170 -17.072   5.849  1.00  0.00    -0.346 OA
HETATM   26  C   UNL     1      43.300 -17.113   3.508  1.00  0.00     0.048 A 
HETATM   27  C   UNL     1      43.073 -17.907   7.012  1.00  0.00     0.202 C 
HETATM   28  C   UNL     1      44.191 -18.934   7.030  1.00  0.00     0.202 C 
ENDBRANCH  17  18
ENDBRANCH   2  17
TORSDOF 4
ENDMDL
MODEL 8
REMARK VINA RESULT:      -8.1      2.322      2.727
REMARK  4 active torsions:
REMARK  status: ('A' for Active; 'I' for Inactive)
REMARK    1  A    between atoms: N_2  and  C_4 
REMARK    2  A    between atoms: N_2  and  C_16 
REMARK    3  A    between atoms: C_4  and  C_5 
REMARK    4  A    between atoms: C_16  and  C_17 
ROOT
HETATM    1  C   UNL     1      44.691 -14.192   6.831  1.00  0.00     0.270 C 
HETATM    2  N   UNL     1      43.656 -15.131   6.276  1.00  0.00    -0.064 N 
HETATM    3  H   UNL     1      44.128 -15.655   5.520  1.00  0.00     0.280 HD
ENDROOT
BRANCH   2   4
HETATM    4  C   UNL     1      43.250 -16.202   7.282  1.00  0.00     0.312 C 
BRANCH   4   5
HETATM    5  C   UNL     1      43.569 -17.602   6.774  1.00  0.00     0.133 A 
HETATM    6  N   UNL     1      43.917 -17.754   5.535  1.00  0.00    -0.233 NA
HETATM    7  C   UNL     1      44.197 -19.067   5.097  1.00  0.00     0.074 A 
HETATM    8  C   UNL     1      44.109 -20.178   5.944  1.00  0.00     0.061 A 
HETATM    9  C   UNL     1      44.576 -19.274   3.770  1.00  0.00     0.032 A 
HETATM   10  C   UNL     1      43.708 -19.936   7.338  1.00  0.00     0.259 A 
HETATM   11  C   UNL     1      44.390 -21.471   5.492  1.00  0.00     0.019 A 
HETATM   12  O   UNL     1      43.601 -20.828   8.168  1.00  0.00    -0.267 OA
HETATM   13  N   UNL     1      43.459 -18.627   7.668  1.00  0.00    -0.309 N 
HETATM   14  H   UNL     1      43.172 -18.501   8.631  1.00  0.00     0.170 HD
HETATM   15  C   UNL     1      44.766 -21.660   4.164  1.00  0.00     0.001 A 
HETATM   16  C   UNL     1      44.860 -20.563   3.305  1.00  0.00     0.002 A 
ENDBRANCH   4   5
ENDBRANCH   2   4
BRANCH   2  17
HETATM   17  C   UNL     1      42.452 -14.439   5.697  1.00  0.00     0.273 C 
BRANCH  17  18
HETATM   18  C   UNL     1      42.293 -14.582   4.208  1.00  0.00    -0.028 A 
HETATM   19  C   UNL     1      42.115 -15.841   3.617  1.00  0.00     0.035 A 
HETATM   20  C   UNL     1      41.943 -15.961   2.231  1.00  0.00     0.070 A 
HETATM   21 CL   UNL     1      41.713 -17.540   1.577  1.00  0.00    -0.081 Cl
HETATM   22  C   UNL     1      41.945 -14.824   1.416  1.00  0.00     0.123 A 
HETATM   23  C   UNL     1      42.156 -13.572   2.000  1.00  0.00     0.104 A 
HETATM   24  O   UNL     1      41.745 -14.978   0.068  1.00  0.00    -0.344 OA
HETATM   25  O   UNL     1      42.208 -12.401   1.287  1.00  0.00    -0.346 OA
HETATM   26  C   UNL     1      42.315 -13.449   3.382  1.00  0.00     0.048 A 
HETATM   27  C   UNL     1      42.320 -12.635  -0.125  1.00  0.00     0.202 C 
HETATM   28  C   UNL     1      41.381 -13.744  -0.562  1.00  0.00     0.202 C 
ENDBRANCH  17  18
ENDBRANCH   2  17
TORSDOF 4
ENDMDL
MODEL 9
REMARK VINA RESULT:      -7.9      2.701      3.664
REMARK  4 active torsions:
REMARK  status: ('A' for Active; 'I' for Inactive)
REMARK    1  A    between atoms: N_2  and  C_4 
REMARK    2  A    between atoms: N_2  and  C_16 
REMARK    3  A    between atoms: C_4  and  C_5 
REMARK    4  A    between atoms: C_16  and  C_17 
ROOT
HETATM    1  C   UNL     1      42.346 -13.763   2.352  1.00  0.00     0.270 C 
HETATM    2  N   UNL     1      41.921 -15.198   2.502  1.00  0.00    -0.064 N 
HETATM    3  H   UNL     1      42.560 -15.745   1.901  1.00  0.00     0.280 HD
ENDROOT
BRANCH   2   4
HETATM    4  C   UNL     1      42.174 -15.730   3.908  1.00  0.00     0.312 C 
BRANCH   4   5
HETATM    5  C   UNL     1      42.881 -17.079   3.880  1.00  0.00     0.133 A 
HETATM    6  N   UNL     1      42.650 -17.887   2.895  1.00  0.00    -0.233 NA
HETATM    7  C   UNL     1      43.316 -19.132   2.907  1.00  0.00     0.074 A 
HETATM    8  C   UNL     1      44.196 -19.505   3.930  1.00  0.00     0.061 A 
HETATM    9  C   UNL     1      43.094 -20.031   1.862  1.00  0.00     0.032 A 
HETATM   10  C   UNL     1      44.415 -18.541   5.019  1.00  0.00     0.259 A 
HETATM   11  C   UNL     1      44.847 -20.742   3.925  1.00  0.00     0.019 A 
HETATM   12  O   UNL     1      45.162 -18.757   5.962  1.00  0.00    -0.267 OA
HETATM   13  N   UNL     1      43.723 -17.360   4.917  1.00  0.00    -0.309 N 
HETATM   14  H   UNL     1      43.887 -16.728   5.691  1.00  0.00     0.170 HD
HETATM   15  C   UNL     1      44.614 -21.628   2.875  1.00  0.00     0.001 A 
HETATM   16  C   UNL     1      43.740 -21.273   1.845  1.00  0.00     0.002 A 
ENDBRANCH   4   5
ENDBRANCH   2   4
BRANCH   2  17
HETATM   17  C   UNL     1      40.507 -15.465   2.062  1.00  0.00     0.273 C 
BRANCH  17  18
HETATM   18  C   UNL     1      40.161 -14.947   0.693  1.00  0.00    -0.028 A 
HETATM   19  C   UNL     1      40.854 -15.387  -0.444  1.00  0.00     0.035 A 
HETATM   20  C   UNL     1      40.507 -14.917  -1.718  1.00  0.00     0.070 A 
HETATM   21 CL   UNL     1      41.395 -15.514  -3.071  1.00  0.00    -0.081 Cl
HETATM   22  C   UNL     1      39.460 -14.003  -1.875  1.00  0.00     0.123 A 
HETATM   23  C   UNL     1      38.791 -13.538  -0.740  1.00  0.00     0.104 A 
HETATM   24  O   UNL     1      39.130 -13.587  -3.140  1.00  0.00    -0.344 OA
HETATM   25  O   UNL     1      37.773 -12.619  -0.782  1.00  0.00    -0.346 OA
HETATM   26  C   UNL     1      39.126 -14.014   0.530  1.00  0.00     0.048 A 
HETATM   27  C   UNL     1      37.680 -11.977  -2.062  1.00  0.00     0.202 C 
HETATM   28  C   UNL     1      37.830 -12.989  -3.183  1.00  0.00     0.202 C 
ENDBRANCH  17  18
ENDBRANCH   2  17
TORSDOF 4
ENDMDL
MODEL 10
REMARK VINA RESULT:      -7.9      2.732      7.803
REMARK  4 active torsions:
REMARK  status: ('A' for Active; 'I' for Inactive)
REMARK    1  A    between atoms: N_2  and  C_4 
REMARK    2  A    between atoms: N_2  and  C_16 
REMARK    3  A    between atoms: C_4  and  C_5 
REMARK    4  A    between atoms: C_16  and  C_17 
ROOT
HETATM    1  C   UNL     1      41.552 -16.113  -0.336  1.00  0.00     0.270 C 
HETATM    2  N   UNL     1      42.095 -16.590   0.983  1.00  0.00    -0.064 N 
HETATM    3  H   UNL     1      42.461 -15.747   1.458  1.00  0.00     0.280 HD
ENDROOT
BRANCH   2   4
HETATM    4  C   UNL     1      40.996 -17.099   1.909  1.00  0.00     0.312 C 
BRANCH   4   5
HETATM    5  C   UNL     1      40.631 -16.068   2.968  1.00  0.00     0.133 A 
HETATM    6  N   UNL     1      40.168 -14.918   2.591  1.00  0.00    -0.233 NA
HETATM    7  C   UNL     1      39.850 -13.985   3.601  1.00  0.00     0.074 A 
HETATM    8  C   UNL     1      40.017 -14.262   4.962  1.00  0.00     0.061 A 
HETATM    9  C   UNL     1      39.347 -12.734   3.235  1.00  0.00     0.032 A 
HETATM   10  C   UNL     1      40.547 -15.585   5.324  1.00  0.00     0.259 A 
HETATM   11  C   UNL     1      39.696 -13.324   5.948  1.00  0.00     0.019 A 
HETATM   12  O   UNL     1      40.731 -15.939   6.479  1.00  0.00    -0.267 OA
HETATM   13  N   UNL     1      40.825 -16.422   4.272  1.00  0.00    -0.309 N 
HETATM   14  H   UNL     1      41.201 -17.319   4.558  1.00  0.00     0.170 HD
HETATM   15  C   UNL     1      39.196 -12.081   5.566  1.00  0.00     0.001 A 
HETATM   16  C   UNL     1      39.022 -11.787   4.212  1.00  0.00     0.002 A 
ENDBRANCH   4   5
ENDBRANCH   2   4
BRANCH   2  17
HETATM   17  C   UNL     1      43.213 -17.590   0.857  1.00  0.00     0.273 C 
BRANCH  17  18
HETATM   18  C   UNL     1      43.611 -18.261   2.143  1.00  0.00    -0.028 A 
HETATM   19  C   UNL     1      43.787 -17.521   3.321  1.00  0.00     0.035 A 
HETATM   20  C   UNL     1      44.134 -18.160   4.519  1.00  0.00     0.070 A 
HETATM   21 CL   UNL     1      44.319 -17.187   5.932  1.00  0.00    -0.081 Cl
HETATM   22  C   UNL     1      44.308 -19.547   4.558  1.00  0.00     0.123 A 
HETATM   23  C   UNL     1      44.166 -20.281   3.378  1.00  0.00     0.104 A 
HETATM   24  O   UNL     1      44.619 -20.140   5.755  1.00  0.00    -0.344 OA
HETATM   25  O   UNL     1      44.346 -21.639   3.303  1.00  0.00    -0.346 OA
HETATM   26  C   UNL     1      43.808 -19.649   2.185  1.00  0.00     0.048 A 
HETATM   27  C   UNL     1      44.978 -22.165   4.479  1.00  0.00     0.202 C 
HETATM   28  C   UNL     1      44.377 -21.552   5.731  1.00  0.00     0.202 C 
ENDBRANCH  17  18
ENDBRANCH   2  17
TORSDOF 4
ENDMDL
