MODEL 1
REMARK VINA RESULT:      -8.6      0.000      0.000
REMARK  6 active torsions:
REMARK  status: ('A' for Active; 'I' for Inactive)
REMARK    1  A    between atoms: C_3  and  C_4 
REMARK    2  A    between atoms: C_9  and  O_10 
REMARK    3  A    between atoms: O_10  and  C_11 
REMARK    4  A    between atoms: C_11  and  C_12 
REMARK       I    between atoms: C_12  and  N_13 
REMARK    5  A    between atoms: N_13  and  C_14 
REMARK    6  A    between atoms: C_21  and  C_22 
REMARK       I    between atoms: C_22  and  N_23 
ROOT
HETATM    1  C   UNL     1      40.245 -14.493   3.774  1.00  0.00     0.246 C 
HETATM    2  N   UNL     1      39.785 -15.241   2.702  1.00  0.00    -0.325 N 
HETATM    3  O   UNL     1      40.335 -13.271   3.826  1.00  0.00    -0.271 OA
HETATM    4  H   UNL     1      39.766 -16.244   2.849  1.00  0.00     0.169 HD
ENDROOT
BRANCH   2   5
HETATM    5  C   UNL     1      39.332 -14.762   1.455  1.00  0.00     0.035 A 
HETATM    6  C   UNL     1      40.127 -14.732   0.300  1.00  0.00     0.046 A 
HETATM    7  C   UNL     1      39.597 -14.219  -0.904  1.00  0.00     0.030 A 
HETATM    8  C   UNL     1      38.292 -13.746  -0.912  1.00  0.00     0.063 A 
HETATM    9  C   UNL     1      40.067 -14.038  -2.240  1.00  0.00     0.156 A 
HETATM   10  N   UNL     1      38.074 -13.311  -2.190  1.00  0.00    -0.277 N 
HETATM   11  C   UNL     1      37.468 -13.764   0.215  1.00  0.00     0.034 A 
HETATM   12  H   UNL     1      37.226 -12.895  -2.560  1.00  0.00     0.189 HD
HETATM   13  N   UNL     1      39.116 -13.473  -3.021  1.00  0.00    -0.168 NA
HETATM   14  C   UNL     1      38.014 -14.289   1.394  1.00  0.00     0.032 A 
BRANCH   9  15
HETATM   15  C   UNL     1      41.387 -14.392  -2.781  1.00  0.00     0.270 C 
HETATM   16  N   UNL     1      42.399 -13.564  -2.375  1.00  0.00    -0.365 N 
HETATM   17  H   UNL     1      42.176 -12.788  -1.764  1.00  0.00     0.159 HD
HETATM   18  H   UNL     1      43.335 -13.721  -2.712  1.00  0.00     0.159 HD
HETATM   19  O   UNL     1      41.606 -15.332  -3.535  1.00  0.00    -0.266 OA
ENDBRANCH   9  15
ENDBRANCH   2   5
BRANCH   1  20
HETATM   20  C   UNL     1      40.540 -15.337   5.013  1.00  0.00     0.278 C 
BRANCH  20  21
HETATM   21  O   UNL     1      41.938 -15.438   5.279  1.00  0.00    -0.342 OA
BRANCH  21  22
HETATM   22  C   UNL     1      42.553 -16.483   4.637  1.00  0.00     0.069 A 
HETATM   23  C   UNL     1      42.639 -17.674   5.349  1.00  0.00     0.037 A 
HETATM   24  C   UNL     1      43.228 -18.801   4.769  1.00  0.00     0.011 A 
HETATM   25  C   UNL     1      43.750 -18.765   3.461  1.00  0.00    -0.049 A 
HETATM   26  C   UNL     1      43.707 -17.539   2.760  1.00  0.00    -0.053 A 
HETATM   27  C   UNL     1      44.278 -17.385   1.374  1.00  0.00     0.049 C 
HETATM   28  C   UNL     1      43.107 -16.413   3.359  1.00  0.00     0.044 A 
BRANCH  25  29
HETATM   29  C   UNL     1      44.382 -20.011   2.846  1.00  0.00     0.011 C 
HETATM   30  C   UNL     1      44.932 -20.927   3.940  1.00  0.00     0.015 C 
HETATM   31  C   UNL     1      43.444 -20.791   1.917  1.00  0.00     0.015 C 
ENDBRANCH  25  29
ENDBRANCH  21  22
ENDBRANCH  20  21
ENDBRANCH   1  20
TORSDOF 6
ENDMDL
MODEL 2
REMARK VINA RESULT:      -8.4      6.476      9.856
REMARK  6 active torsions:
REMARK  status: ('A' for Active; 'I' for Inactive)
REMARK    1  A    between atoms: C_3  and  C_4 
REMARK    2  A    between atoms: C_9  and  O_10 
REMARK    3  A    between atoms: O_10  and  C_11 
REMARK    4  A    between atoms: C_11  and  C_12 
REMARK       I    between atoms: C_12  and  N_13 
REMARK    5  A    between atoms: N_13  and  C_14 
REMARK    6  A    between atoms: C_21  and  C_22 
REMARK       I    between atoms: C_22  and  N_23 
ROOT
HETATM    1  C   UNL     1      45.060 -13.565   7.469  1.00  0.00     0.246 C 
HETATM    2  N   UNL     1      43.973 -14.415   7.334  1.00  0.00    -0.325 N 
HETATM    3  O   UNL     1      45.956 -13.391   6.649  1.00  0.00    -0.271 OA
HETATM    4  H   UNL     1      43.323 -14.414   8.113  1.00  0.00     0.169 HD
ENDROOT
BRANCH   2   5
HETATM    5  C   UNL     1      43.670 -15.251   6.240  1.00  0.00     0.035 A 
HETATM    6  C   UNL     1      43.934 -16.628   6.221  1.00  0.00     0.046 A 
HETATM    7  C   UNL     1      43.613 -17.388   5.074  1.00  0.00     0.030 A 
HETATM    8  C   UNL     1      43.046 -16.745   3.983  1.00  0.00     0.063 A 
HETATM    9  C   UNL     1      43.712 -18.759   4.689  1.00  0.00     0.156 A 
HETATM   10  N   UNL     1      42.865 -17.722   3.043  1.00  0.00    -0.277 N 
HETATM   11  C   UNL     1      42.764 -15.378   3.966  1.00  0.00     0.034 A 
HETATM   12  H   UNL     1      42.477 -17.613   2.112  1.00  0.00     0.189 HD
HETATM   13  N   UNL     1      43.249 -18.948   3.431  1.00  0.00    -0.168 NA
HETATM   14  C   UNL     1      43.081 -14.648   5.120  1.00  0.00     0.032 A 
BRANCH   9  15
HETATM   15  C   UNL     1      44.228 -19.880   5.488  1.00  0.00     0.270 C 
HETATM   16  N   UNL     1      45.075 -20.711   4.805  1.00  0.00    -0.365 N 
HETATM   17  H   UNL     1      45.270 -20.512   3.831  1.00  0.00     0.159 HD
HETATM   18  H   UNL     1      45.463 -21.516   5.269  1.00  0.00     0.159 HD
HETATM   19  O   UNL     1      43.948 -20.092   6.661  1.00  0.00    -0.266 OA
ENDBRANCH   9  15
ENDBRANCH   2   5
BRANCH   1  20
HETATM   20  C   UNL     1      45.005 -12.716   8.738  1.00  0.00     0.278 C 
BRANCH  20  21
HETATM   21  O   UNL     1      44.371 -11.457   8.520  1.00  0.00    -0.342 OA
BRANCH  21  22
HETATM   22  C   UNL     1      43.748 -10.947   9.630  1.00  0.00     0.069 A 
HETATM   23  C   UNL     1      44.539 -10.800  10.764  1.00  0.00     0.037 A 
HETATM   24  C   UNL     1      43.998 -10.267  11.937  1.00  0.00     0.011 A 
HETATM   25  C   UNL     1      42.649  -9.869  12.008  1.00  0.00    -0.049 A 
HETATM   26  C   UNL     1      41.835 -10.068  10.870  1.00  0.00    -0.053 A 
HETATM   27  C   UNL     1      40.369  -9.718  10.860  1.00  0.00     0.049 C 
HETATM   28  C   UNL     1      42.397 -10.605   9.695  1.00  0.00     0.044 A 
BRANCH  25  29
HETATM   29  C   UNL     1      42.082  -9.283  13.298  1.00  0.00     0.011 C 
HETATM   30  C   UNL     1      42.387 -10.202  14.483  1.00  0.00     0.015 C 
HETATM   31  C   UNL     1      42.558  -7.855  13.594  1.00  0.00     0.015 C 
ENDBRANCH  25  29
ENDBRANCH  21  22
ENDBRANCH  20  21
ENDBRANCH   1  20
TORSDOF 6
ENDMDL
MODEL 3
REMARK VINA RESULT:      -8.3      6.228      9.439
REMARK  6 active torsions:
REMARK  status: ('A' for Active; 'I' for Inactive)
REMARK    1  A    between atoms: C_3  and  C_4 
REMARK    2  A    between atoms: C_9  and  O_10 
REMARK    3  A    between atoms: O_10  and  C_11 
REMARK    4  A    between atoms: C_11  and  C_12 
REMARK       I    between atoms: C_12  and  N_13 
REMARK    5  A    between atoms: N_13  and  C_14 
REMARK    6  A    between atoms: C_21  and  C_22 
REMARK       I    between atoms: C_22  and  N_23 
ROOT
HETATM    1  C   UNL     1      45.049 -13.579   7.537  1.00  0.00     0.246 C 
HETATM    2  N   UNL     1      44.084 -14.574   7.583  1.00  0.00    -0.325 N 
HETATM    3  O   UNL     1      45.833 -13.365   6.617  1.00  0.00    -0.271 OA
HETATM    4  H   UNL     1      43.514 -14.586   8.422  1.00  0.00     0.169 HD
ENDROOT
BRANCH   2   5
HETATM    5  C   UNL     1      43.804 -15.542   6.595  1.00  0.00     0.035 A 
HETATM    6  C   UNL     1      42.906 -15.333   5.539  1.00  0.00     0.046 A 
HETATM    7  C   UNL     1      42.673 -16.365   4.603  1.00  0.00     0.030 A 
HETATM    8  C   UNL     1      43.339 -17.573   4.759  1.00  0.00     0.063 A 
HETATM    9  C   UNL     1      41.874 -16.528   3.430  1.00  0.00     0.156 A 
HETATM   10  N   UNL     1      42.904 -18.360   3.728  1.00  0.00    -0.277 N 
HETATM   11  C   UNL     1      44.243 -17.816   5.794  1.00  0.00     0.034 A 
HETATM   12  H   UNL     1      43.176 -19.316   3.530  1.00  0.00     0.189 HD
HETATM   13  N   UNL     1      42.026 -17.766   2.904  1.00  0.00    -0.168 NA
HETATM   14  C   UNL     1      44.467 -16.772   6.703  1.00  0.00     0.032 A 
BRANCH   9  15
HETATM   15  C   UNL     1      40.984 -15.538   2.807  1.00  0.00     0.270 C 
HETATM   16  N   UNL     1      39.859 -15.260   3.535  1.00  0.00    -0.365 N 
HETATM   17  H   UNL     1      39.716 -15.746   4.413  1.00  0.00     0.159 HD
HETATM   18  H   UNL     1      39.183 -14.606   3.176  1.00  0.00     0.159 HD
HETATM   19  O   UNL     1      41.190 -14.990   1.731  1.00  0.00    -0.266 OA
ENDBRANCH   9  15
ENDBRANCH   2   5
BRANCH   1  20
HETATM   20  C   UNL     1      44.991 -12.630   8.732  1.00  0.00     0.278 C 
BRANCH  20  21
HETATM   21  O   UNL     1      44.169 -11.492   8.480  1.00  0.00    -0.342 OA
BRANCH  21  22
HETATM   22  C   UNL     1      43.595 -10.959   9.607  1.00  0.00     0.069 A 
HETATM   23  C   UNL     1      44.439 -10.775  10.696  1.00  0.00     0.037 A 
HETATM   24  C   UNL     1      43.950 -10.216  11.880  1.00  0.00     0.011 A 
HETATM   25  C   UNL     1      42.602  -9.829  12.007  1.00  0.00    -0.049 A 
HETATM   26  C   UNL     1      41.735 -10.066  10.916  1.00  0.00    -0.053 A 
HETATM   27  C   UNL     1      40.267  -9.729  10.968  1.00  0.00     0.049 C 
HETATM   28  C   UNL     1      42.245 -10.628   9.728  1.00  0.00     0.044 A 
BRANCH  25  29
HETATM   29  C   UNL     1      42.093  -9.215  13.308  1.00  0.00     0.011 C 
HETATM   30  C   UNL     1      42.472 -10.095  14.500  1.00  0.00     0.015 C 
HETATM   31  C   UNL     1      42.559  -7.772  13.539  1.00  0.00     0.015 C 
ENDBRANCH  25  29
ENDBRANCH  21  22
ENDBRANCH  20  21
ENDBRANCH   1  20
TORSDOF 6
ENDMDL
MODEL 4
REMARK VINA RESULT:      -8.2      2.692      3.718
REMARK  6 active torsions:
REMARK  status: ('A' for Active; 'I' for Inactive)
REMARK    1  A    between atoms: C_3  and  C_4 
REMARK    2  A    between atoms: C_9  and  O_10 
REMARK    3  A    between atoms: O_10  and  C_11 
REMARK    4  A    between atoms: C_11  and  C_12 
REMARK       I    between atoms: C_12  and  N_13 
REMARK    5  A    between atoms: N_13  and  C_14 
REMARK    6  A    between atoms: C_21  and  C_22 
REMARK       I    between atoms: C_22  and  N_23 
ROOT
HETATM    1  C   UNL     1      40.213 -15.177   0.985  1.00  0.00     0.246 C 
HETATM    2  N   UNL     1      41.244 -15.258   0.062  1.00  0.00    -0.325 N 
HETATM    3  O   UNL     1      39.278 -14.382   0.967  1.00  0.00    -0.271 OA
HETATM    4  H   UNL     1      41.921 -15.993   0.233  1.00  0.00     0.169 HD
ENDROOT
BRANCH   2   5
HETATM    5  C   UNL     1      41.437 -14.453  -1.080  1.00  0.00     0.035 A 
HETATM    6  C   UNL     1      41.992 -13.166  -1.036  1.00  0.00     0.046 A 
HETATM    7  C   UNL     1      42.133 -12.422  -2.228  1.00  0.00     0.030 A 
HETATM    8  C   UNL     1      41.708 -12.986  -3.423  1.00  0.00     0.063 A 
HETATM    9  C   UNL     1      42.643 -11.136  -2.583  1.00  0.00     0.156 A 
HETATM   10  N   UNL     1      41.958 -12.039  -4.378  1.00  0.00    -0.277 N 
HETATM   11  C   UNL     1      41.155 -14.265  -3.507  1.00  0.00     0.034 A 
HETATM   12  H   UNL     1      41.767 -12.105  -5.371  1.00  0.00     0.189 HD
HETATM   13  N   UNL     1      42.524 -10.914  -3.913  1.00  0.00    -0.168 NA
HETATM   14  C   UNL     1      41.037 -14.988  -2.312  1.00  0.00     0.032 A 
BRANCH   9  15
HETATM   15  C   UNL     1      43.237 -10.129  -1.691  1.00  0.00     0.270 C 
HETATM   16  N   UNL     1      42.807  -8.851  -1.926  1.00  0.00    -0.365 N 
HETATM   17  H   UNL     1      42.146  -8.691  -2.676  1.00  0.00     0.159 HD
HETATM   18  H   UNL     1      43.176  -8.094  -1.374  1.00  0.00     0.159 HD
HETATM   19  O   UNL     1      44.050 -10.369  -0.808  1.00  0.00    -0.266 OA
ENDBRANCH   9  15
ENDBRANCH   2   5
BRANCH   1  20
HETATM   20  C   UNL     1      40.254 -16.290   2.032  1.00  0.00     0.278 C 
BRANCH  20  21
HETATM   21  O   UNL     1      40.956 -17.442   1.570  1.00  0.00    -0.342 OA
BRANCH  21  22
HETATM   22  C   UNL     1      41.863 -17.939   2.470  1.00  0.00     0.069 A 
HETATM   23  C   UNL     1      41.796 -17.421   3.758  1.00  0.00     0.037 A 
HETATM   24  C   UNL     1      42.664 -17.884   4.751  1.00  0.00     0.011 A 
HETATM   25  C   UNL     1      43.626 -18.876   4.480  1.00  0.00    -0.049 A 
HETATM   26  C   UNL     1      43.726 -19.363   3.157  1.00  0.00    -0.053 A 
HETATM   27  C   UNL     1      44.753 -20.391   2.756  1.00  0.00     0.049 C 
HETATM   28  C   UNL     1      42.842 -18.887   2.169  1.00  0.00     0.044 A 
BRANCH  25  29
HETATM   29  C   UNL     1      44.559 -19.370   5.582  1.00  0.00     0.011 C 
HETATM   30  C   UNL     1      45.115 -18.190   6.382  1.00  0.00     0.015 C 
HETATM   31  C   UNL     1      43.920 -20.399   6.524  1.00  0.00     0.015 C 
ENDBRANCH  25  29
ENDBRANCH  21  22
ENDBRANCH  20  21
ENDBRANCH   1  20
TORSDOF 6
ENDMDL
MODEL 5
REMARK VINA RESULT:      -7.9      2.789      4.540
REMARK  6 active torsions:
REMARK  status: ('A' for Active; 'I' for Inactive)
REMARK    1  A    between atoms: C_3  and  C_4 
REMARK    2  A    between atoms: C_9  and  O_10 
REMARK    3  A    between atoms: O_10  and  C_11 
REMARK    4  A    between atoms: C_11  and  C_12 
REMARK       I    between atoms: C_12  and  N_13 
REMARK    5  A    between atoms: N_13  and  C_14 
REMARK    6  A    between atoms: C_21  and  C_22 
REMARK       I    between atoms: C_22  and  N_23 
ROOT
HETATM    1  C   UNL     1      41.140 -15.303   0.235  1.00  0.00     0.246 C 
HETATM    2  N   UNL     1      39.945 -15.227   0.933  1.00  0.00    -0.325 N 
HETATM    3  O   UNL     1      41.727 -14.374  -0.310  1.00  0.00    -0.271 OA
HETATM    4  H   UNL     1      39.619 -16.101   1.331  1.00  0.00     0.169 HD
ENDROOT
BRANCH   2   5
HETATM    5  C   UNL     1      39.157 -14.078   1.160  1.00  0.00     0.035 A 
HETATM    6  C   UNL     1      39.366 -13.194   2.227  1.00  0.00     0.046 A 
HETATM    7  C   UNL     1      38.518 -12.076   2.389  1.00  0.00     0.030 A 
HETATM    8  C   UNL     1      37.485 -11.884   1.482  1.00  0.00     0.063 A 
HETATM    9  C   UNL     1      38.418 -10.985   3.304  1.00  0.00     0.156 A 
HETATM   10  N   UNL     1      36.844 -10.750   1.900  1.00  0.00    -0.277 N 
HETATM   11  C   UNL     1      37.249 -12.739   0.404  1.00  0.00     0.034 A 
HETATM   12  H   UNL     1      36.033 -10.313   1.477  1.00  0.00     0.189 HD
HETATM   13  N   UNL     1      37.378 -10.177   2.991  1.00  0.00    -0.168 NA
HETATM   14  C   UNL     1      38.111 -13.834   0.259  1.00  0.00     0.032 A 
BRANCH   9  15
HETATM   15  C   UNL     1      39.287 -10.697   4.455  1.00  0.00     0.270 C 
HETATM   16  N   UNL     1      40.587 -10.427   4.120  1.00  0.00    -0.365 N 
HETATM   17  H   UNL     1      40.853 -10.455   3.143  1.00  0.00     0.159 HD
HETATM   18  H   UNL     1      41.258 -10.236   4.847  1.00  0.00     0.159 HD
HETATM   19  O   UNL     1      38.923 -10.694   5.624  1.00  0.00    -0.266 OA
ENDBRANCH   9  15
ENDBRANCH   2   5
BRANCH   1  20
HETATM   20  C   UNL     1      41.782 -16.689   0.292  1.00  0.00     0.278 C 
BRANCH  20  21
HETATM   21  O   UNL     1      41.171 -17.528   1.270  1.00  0.00    -0.342 OA
BRANCH  21  22
HETATM   22  C   UNL     1      42.044 -18.014   2.211  1.00  0.00     0.069 A 
HETATM   23  C   UNL     1      42.023 -17.384   3.449  1.00  0.00     0.037 A 
HETATM   24  C   UNL     1      42.861 -17.824   4.479  1.00  0.00     0.011 A 
HETATM   25  C   UNL     1      43.744 -18.904   4.294  1.00  0.00    -0.049 A 
HETATM   26  C   UNL     1      43.800 -19.508   3.017  1.00  0.00    -0.053 A 
HETATM   27  C   UNL     1      44.745 -20.641   2.706  1.00  0.00     0.049 C 
HETATM   28  C   UNL     1      42.948 -19.054   1.992  1.00  0.00     0.044 A 
BRANCH  25  29
HETATM   29  C   UNL     1      44.644 -19.371   5.435  1.00  0.00     0.011 C 
HETATM   30  C   UNL     1      45.140 -18.175   6.249  1.00  0.00     0.015 C 
HETATM   31  C   UNL     1      43.994 -20.411   6.355  1.00  0.00     0.015 C 
ENDBRANCH  25  29
ENDBRANCH  21  22
ENDBRANCH  20  21
ENDBRANCH   1  20
TORSDOF 6
ENDMDL
MODEL 6
REMARK VINA RESULT:      -7.8      3.224      8.317
REMARK  6 active torsions:
REMARK  status: ('A' for Active; 'I' for Inactive)
REMARK    1  A    between atoms: C_3  and  C_4 
REMARK    2  A    between atoms: C_9  and  O_10 
REMARK    3  A    between atoms: O_10  and  C_11 
REMARK    4  A    between atoms: C_11  and  C_12 
REMARK       I    between atoms: C_12  and  N_13 
REMARK    5  A    between atoms: N_13  and  C_14 
REMARK    6  A    between atoms: C_21  and  C_22 
REMARK       I    between atoms: C_22  and  N_23 
ROOT
HETATM    1  C   UNL     1      42.898 -14.273   2.871  1.00  0.00     0.246 C 
HETATM    2  N   UNL     1      42.331 -15.533   2.775  1.00  0.00    -0.325 N 
HETATM    3  O   UNL     1      44.036 -14.012   3.248  1.00  0.00    -0.271 OA
HETATM    4  H   UNL     1      41.379 -15.555   2.424  1.00  0.00     0.169 HD
ENDROOT
BRANCH   2   5
HETATM    5  C   UNL     1      42.932 -16.770   3.089  1.00  0.00     0.035 A 
HETATM    6  C   UNL     1      43.138 -17.221   4.401  1.00  0.00     0.046 A 
HETATM    7  C   UNL     1      43.764 -18.467   4.624  1.00  0.00     0.030 A 
HETATM    8  C   UNL     1      44.171 -19.217   3.530  1.00  0.00     0.063 A 
HETATM    9  C   UNL     1      44.125 -19.245   5.765  1.00  0.00     0.156 A 
HETATM   10  N   UNL     1      44.744 -20.342   4.056  1.00  0.00    -0.277 N 
HETATM   11  C   UNL     1      43.979 -18.804   2.210  1.00  0.00     0.034 A 
HETATM   12  H   UNL     1      45.160 -21.114   3.548  1.00  0.00     0.189 HD
HETATM   13  N   UNL     1      44.732 -20.398   5.398  1.00  0.00    -0.168 NA
HETATM   14  C   UNL     1      43.345 -17.570   2.014  1.00  0.00     0.032 A 
BRANCH   9  15
HETATM   15  C   UNL     1      43.902 -18.919   7.181  1.00  0.00     0.270 C 
HETATM   16  N   UNL     1      43.640 -20.005   7.972  1.00  0.00    -0.365 N 
HETATM   17  H   UNL     1      43.607 -20.922   7.541  1.00  0.00     0.159 HD
HETATM   18  H   UNL     1      43.457 -19.873   8.953  1.00  0.00     0.159 HD
HETATM   19  O   UNL     1      43.933 -17.789   7.653  1.00  0.00    -0.266 OA
ENDBRANCH   9  15
ENDBRANCH   2   5
BRANCH   1  20
HETATM   20  C   UNL     1      41.996 -13.164   2.329  1.00  0.00     0.278 C 
BRANCH  20  21
HETATM   21  O   UNL     1      42.534 -12.554   1.157  1.00  0.00    -0.342 OA
BRANCH  21  22
HETATM   22  C   UNL     1      41.884 -12.901   0.000  1.00  0.00     0.069 A 
HETATM   23  C   UNL     1      40.833 -13.800   0.134  1.00  0.00     0.037 A 
HETATM   24  C   UNL     1      40.095 -14.195  -0.986  1.00  0.00     0.011 A 
HETATM   25  C   UNL     1      40.393 -13.702  -2.271  1.00  0.00    -0.049 A 
HETATM   26  C   UNL     1      41.496 -12.829  -2.411  1.00  0.00    -0.053 A 
HETATM   27  C   UNL     1      41.923 -12.283  -3.749  1.00  0.00     0.049 C 
HETATM   28  C   UNL     1      42.227 -12.439  -1.271  1.00  0.00     0.044 A 
BRANCH  25  29
HETATM   29  C   UNL     1      39.570 -14.143  -3.478  1.00  0.00     0.011 C 
HETATM   30  C   UNL     1      39.669 -15.657  -3.670  1.00  0.00     0.015 C 
HETATM   31  C   UNL     1      38.100 -13.706  -3.422  1.00  0.00     0.015 C 
ENDBRANCH  25  29
ENDBRANCH  21  22
ENDBRANCH  20  21
ENDBRANCH   1  20
TORSDOF 6
ENDMDL
MODEL 7
REMARK VINA RESULT:      -7.8      2.576      3.518
REMARK  6 active torsions:
REMARK  status: ('A' for Active; 'I' for Inactive)
REMARK    1  A    between atoms: C_3  and  C_4 
REMARK    2  A    between atoms: C_9  and  O_10 
REMARK    3  A    between atoms: O_10  and  C_11 
REMARK    4  A    between atoms: C_11  and  C_12 
REMARK       I    between atoms: C_12  and  N_13 
REMARK    5  A    between atoms: N_13  and  C_14 
REMARK    6  A    between atoms: C_21  and  C_22 
REMARK       I    between atoms: C_22  and  N_23 
ROOT
HETATM    1  C   UNL     1      41.021 -15.430  -0.132  1.00  0.00     0.246 C 
HETATM    2  N   UNL     1      40.706 -15.485  -1.481  1.00  0.00    -0.325 N 
HETATM    3  O   UNL     1      40.896 -14.459   0.607  1.00  0.00    -0.271 OA
HETATM    4  H   UNL     1      40.862 -16.383  -1.926  1.00  0.00     0.169 HD
ENDROOT
BRANCH   2   5
HETATM    5  C   UNL     1      40.183 -14.448  -2.281  1.00  0.00     0.035 A 
HETATM    6  C   UNL     1      40.959 -13.398  -2.793  1.00  0.00     0.046 A 
HETATM    7  C   UNL     1      40.349 -12.390  -3.573  1.00  0.00     0.030 A 
HETATM    8  C   UNL     1      38.984 -12.463  -3.810  1.00  0.00     0.063 A 
HETATM    9  C   UNL     1      40.784 -11.213  -4.253  1.00  0.00     0.156 A 
HETATM   10  N   UNL     1      38.690 -11.363  -4.568  1.00  0.00    -0.277 N 
HETATM   11  C   UNL     1      38.179 -13.495  -3.322  1.00  0.00     0.034 A 
HETATM   12  H   UNL     1      37.781 -11.087  -4.923  1.00  0.00     0.189 HD
HETATM   13  N   UNL     1      39.747 -10.588  -4.860  1.00  0.00    -0.168 NA
HETATM   14  C   UNL     1      38.810 -14.488  -2.561  1.00  0.00     0.032 A 
BRANCH   9  15
HETATM   15  C   UNL     1      42.152 -10.680  -4.340  1.00  0.00     0.270 C 
HETATM   16  N   UNL     1      42.655 -10.636  -5.612  1.00  0.00    -0.365 N 
HETATM   17  H   UNL     1      42.079 -10.972  -6.375  1.00  0.00     0.159 HD
HETATM   18  H   UNL     1      43.593 -10.302  -5.764  1.00  0.00     0.159 HD
HETATM   19  O   UNL     1      42.818 -10.304  -3.384  1.00  0.00    -0.266 OA
ENDBRANCH   9  15
ENDBRANCH   2   5
BRANCH   1  20
HETATM   20  C   UNL     1      41.452 -16.780   0.441  1.00  0.00     0.278 C 
BRANCH  20  21
HETATM   21  O   UNL     1      40.948 -16.994   1.758  1.00  0.00    -0.342 OA
BRANCH  21  22
HETATM   22  C   UNL     1      41.846 -17.590   2.607  1.00  0.00     0.069 A 
HETATM   23  C   UNL     1      41.832 -17.145   3.924  1.00  0.00     0.037 A 
HETATM   24  C   UNL     1      42.694 -17.709   4.868  1.00  0.00     0.011 A 
HETATM   25  C   UNL     1      43.597 -18.731   4.518  1.00  0.00    -0.049 A 
HETATM   26  C   UNL     1      43.645 -19.144   3.168  1.00  0.00    -0.053 A 
HETATM   27  C   UNL     1      44.607 -20.199   2.684  1.00  0.00     0.049 C 
HETATM   28  C   UNL     1      42.767 -18.567   2.229  1.00  0.00     0.044 A 
BRANCH  25  29
HETATM   29  C   UNL     1      44.524 -19.336   5.569  1.00  0.00     0.011 C 
HETATM   30  C   UNL     1      45.174 -18.235   6.408  1.00  0.00     0.015 C 
HETATM   31  C   UNL     1      43.846 -20.370   6.476  1.00  0.00     0.015 C 
ENDBRANCH  25  29
ENDBRANCH  21  22
ENDBRANCH  20  21
ENDBRANCH   1  20
TORSDOF 6
ENDMDL
MODEL 8
REMARK VINA RESULT:      -7.8      2.237      3.841
REMARK  6 active torsions:
REMARK  status: ('A' for Active; 'I' for Inactive)
REMARK    1  A    between atoms: C_3  and  C_4 
REMARK    2  A    between atoms: C_9  and  O_10 
REMARK    3  A    between atoms: O_10  and  C_11 
REMARK    4  A    between atoms: C_11  and  C_12 
REMARK       I    between atoms: C_12  and  N_13 
REMARK    5  A    between atoms: N_13  and  C_14 
REMARK    6  A    between atoms: C_21  and  C_22 
REMARK       I    between atoms: C_22  and  N_23 
ROOT
HETATM    1  C   UNL     1      43.502 -17.784   1.271  1.00  0.00     0.246 C 
HETATM    2  N   UNL     1      42.138 -17.682   1.048  1.00  0.00    -0.325 N 
HETATM    3  O   UNL     1      44.322 -16.873   1.209  1.00  0.00    -0.271 OA
HETATM    4  H   UNL     1      41.614 -18.544   1.162  1.00  0.00     0.169 HD
ENDROOT
BRANCH   2   5
HETATM    5  C   UNL     1      41.410 -16.524   0.703  1.00  0.00     0.035 A 
HETATM    6  C   UNL     1      41.417 -15.958  -0.580  1.00  0.00     0.046 A 
HETATM    7  C   UNL     1      40.671 -14.785  -0.833  1.00  0.00     0.030 A 
HETATM    8  C   UNL     1      39.951 -14.214   0.206  1.00  0.00     0.063 A 
HETATM    9  C   UNL     1      40.424 -13.948  -1.963  1.00  0.00     0.156 A 
HETATM   10  N   UNL     1      39.356 -13.106  -0.334  1.00  0.00    -0.277 N 
HETATM   11  C   UNL     1      39.916 -14.750   1.495  1.00  0.00     0.034 A 
HETATM   12  H   UNL     1      38.757 -12.440   0.140  1.00  0.00     0.189 HD
HETATM   13  N   UNL     1      39.613 -12.915  -1.638  1.00  0.00    -0.168 NA
HETATM   14  C   UNL     1      40.654 -15.921   1.717  1.00  0.00     0.032 A 
BRANCH   9  15
HETATM   15  C   UNL     1      40.935 -14.115  -3.332  1.00  0.00     0.270 C 
HETATM   16  N   UNL     1      41.882 -13.194  -3.692  1.00  0.00    -0.365 N 
HETATM   17  H   UNL     1      42.145 -12.481  -3.022  1.00  0.00     0.159 HD
HETATM   18  H   UNL     1      42.274 -13.221  -4.618  1.00  0.00     0.159 HD
HETATM   19  O   UNL     1      40.571 -14.983  -4.114  1.00  0.00    -0.266 OA
ENDBRANCH   9  15
ENDBRANCH   2   5
BRANCH   1  20
HETATM   20  C   UNL     1      43.931 -19.172   1.746  1.00  0.00     0.278 C 
BRANCH  20  21
HETATM   21  O   UNL     1      43.096 -19.669   2.790  1.00  0.00    -0.342 OA
BRANCH  21  22
HETATM   22  C   UNL     1      43.059 -18.868   3.903  1.00  0.00     0.069 A 
HETATM   23  C   UNL     1      44.255 -18.725   4.595  1.00  0.00     0.037 A 
HETATM   24  C   UNL     1      44.322 -17.910   5.729  1.00  0.00     0.011 A 
HETATM   25  C   UNL     1      43.190 -17.218   6.202  1.00  0.00    -0.049 A 
HETATM   26  C   UNL     1      41.963 -17.407   5.526  1.00  0.00    -0.053 A 
HETATM   27  C   UNL     1      40.686 -16.747   5.981  1.00  0.00     0.049 C 
HETATM   28  C   UNL     1      41.915 -18.230   4.384  1.00  0.00     0.044 A 
BRANCH  25  29
HETATM   29  C   UNL     1      43.288 -16.328   7.438  1.00  0.00     0.011 C 
HETATM   30  C   UNL     1      43.577 -17.170   8.682  1.00  0.00     0.015 C 
HETATM   31  C   UNL     1      44.315 -15.196   7.309  1.00  0.00     0.015 C 
ENDBRANCH  25  29
ENDBRANCH  21  22
ENDBRANCH  20  21
ENDBRANCH   1  20
TORSDOF 6
ENDMDL
MODEL 9
REMARK VINA RESULT:      -7.7      3.298      4.598
REMARK  6 active torsions:
REMARK  status: ('A' for Active; 'I' for Inactive)
REMARK    1  A    between atoms: C_3  and  C_4 
REMARK    2  A    between atoms: C_9  and  O_10 
REMARK    3  A    between atoms: O_10  and  C_11 
REMARK    4  A    between atoms: C_11  and  C_12 
REMARK       I    between atoms: C_12  and  N_13 
REMARK    5  A    between atoms: N_13  and  C_14 
REMARK    6  A    between atoms: C_21  and  C_22 
REMARK       I    between atoms: C_22  and  N_23 
ROOT
HETATM    1  C   UNL     1      40.898 -14.724  -0.161  1.00  0.00     0.246 C 
HETATM    2  N   UNL     1      41.861 -14.449  -1.118  1.00  0.00    -0.325 N 
HETATM    3  O   UNL     1      39.973 -13.991   0.175  1.00  0.00    -0.271 OA
HETATM    4  H   UNL     1      42.540 -15.186  -1.274  1.00  0.00     0.169 HD
ENDROOT
BRANCH   2   5
HETATM    5  C   UNL     1      41.984 -13.280  -1.899  1.00  0.00     0.035 A 
HETATM    6  C   UNL     1      42.554 -12.089  -1.426  1.00  0.00     0.046 A 
HETATM    7  C   UNL     1      42.622 -10.960  -2.272  1.00  0.00     0.030 A 
HETATM    8  C   UNL     1      42.110 -11.056  -3.559  1.00  0.00     0.063 A 
HETATM    9  C   UNL     1      43.118  -9.625  -2.167  1.00  0.00     0.156 A 
HETATM   10  N   UNL     1      42.305  -9.823  -4.117  1.00  0.00    -0.277 N 
HETATM   11  C   UNL     1      41.540 -12.225  -4.066  1.00  0.00     0.034 A 
HETATM   12  H   UNL     1      42.046  -9.525  -5.051  1.00  0.00     0.189 HD
HETATM   13  N   UNL     1      42.912  -8.935  -3.313  1.00  0.00    -0.168 NA
HETATM   14  C   UNL     1      41.496 -13.335  -3.212  1.00  0.00     0.032 A 
BRANCH   9  15
HETATM   15  C   UNL     1      43.782  -9.003  -1.012  1.00  0.00     0.270 C 
HETATM   16  N   UNL     1      43.105  -9.152   0.169  1.00  0.00    -0.365 N 
HETATM   17  H   UNL     1      42.223  -9.650   0.163  1.00  0.00     0.159 HD
HETATM   18  H   UNL     1      43.478  -8.743   1.010  1.00  0.00     0.159 HD
HETATM   19  O   UNL     1      44.843  -8.393  -1.058  1.00  0.00    -0.266 OA
ENDBRANCH   9  15
ENDBRANCH   2   5
BRANCH   1  20
HETATM   20  C   UNL     1      40.997 -16.141   0.402  1.00  0.00     0.278 C 
BRANCH  20  21
HETATM   21  O   UNL     1      42.332 -16.642   0.374  1.00  0.00    -0.342 OA
BRANCH  21  22
HETATM   22  C   UNL     1      42.697 -17.320   1.510  1.00  0.00     0.069 A 
HETATM   23  C   UNL     1      43.851 -18.089   1.420  1.00  0.00     0.037 A 
HETATM   24  C   UNL     1      44.315 -18.797   2.533  1.00  0.00     0.011 A 
HETATM   25  C   UNL     1      43.633 -18.757   3.764  1.00  0.00    -0.049 A 
HETATM   26  C   UNL     1      42.431 -18.016   3.836  1.00  0.00    -0.053 A 
HETATM   27  C   UNL     1      41.605 -17.948   5.095  1.00  0.00     0.049 C 
HETATM   28  C   UNL     1      41.980 -17.306   2.706  1.00  0.00     0.044 A 
BRANCH  25  29
HETATM   29  C   UNL     1      44.162 -19.533   4.967  1.00  0.00     0.011 C 
HETATM   30  C   UNL     1      44.834 -20.830   4.514  1.00  0.00     0.015 C 
HETATM   31  C   UNL     1      45.111 -18.724   5.861  1.00  0.00     0.015 C 
ENDBRANCH  25  29
ENDBRANCH  21  22
ENDBRANCH  20  21
ENDBRANCH   1  20
TORSDOF 6
ENDMDL
MODEL 10
REMARK VINA RESULT:      -7.7      5.767      8.416
REMARK  6 active torsions:
REMARK  status: ('A' for Active; 'I' for Inactive)
REMARK    1  A    between atoms: C_3  and  C_4 
REMARK    2  A    between atoms: C_9  and  O_10 
REMARK    3  A    between atoms: O_10  and  C_11 
REMARK    4  A    between atoms: C_11  and  C_12 
REMARK       I    between atoms: C_12  and  N_13 
REMARK    5  A    between atoms: N_13  and  C_14 
REMARK    6  A    between atoms: C_21  and  C_22 
REMARK       I    between atoms: C_22  and  N_23 
ROOT
HETATM    1  C   UNL     1      44.310 -14.025   7.105  1.00  0.00     0.246 C 
HETATM    2  N   UNL     1      43.274 -13.521   6.335  1.00  0.00    -0.325 N 
HETATM    3  O   UNL     1      44.681 -15.194   7.153  1.00  0.00    -0.271 OA
HETATM    4  H   UNL     1      43.124 -12.521   6.412  1.00  0.00     0.169 HD
ENDROOT
BRANCH   2   5
HETATM    5  C   UNL     1      42.434 -14.235   5.455  1.00  0.00     0.035 A 
HETATM    6  C   UNL     1      42.903 -15.178   4.530  1.00  0.00     0.046 A 
HETATM    7  C   UNL     1      41.992 -15.836   3.674  1.00  0.00     0.030 A 
HETATM    8  C   UNL     1      40.643 -15.524   3.768  1.00  0.00     0.063 A 
HETATM    9  C   UNL     1      42.075 -16.827   2.650  1.00  0.00     0.156 A 
HETATM   10  N   UNL     1      40.027 -16.297   2.822  1.00  0.00    -0.277 N 
HETATM   11  C   UNL     1      40.137 -14.594   4.679  1.00  0.00     0.034 A 
HETATM   12  H   UNL     1      39.038 -16.325   2.602  1.00  0.00     0.189 HD
HETATM   13  N   UNL     1      40.855 -17.098   2.132  1.00  0.00    -0.168 NA
HETATM   14  C   UNL     1      41.060 -13.965   5.525  1.00  0.00     0.032 A 
BRANCH   9  15
HETATM   15  C   UNL     1      43.280 -17.516   2.165  1.00  0.00     0.270 C 
HETATM   16  N   UNL     1      43.642 -17.177   0.888  1.00  0.00    -0.365 N 
HETATM   17  H   UNL     1      43.070 -16.512   0.382  1.00  0.00     0.159 HD
HETATM   18  H   UNL     1      44.445 -17.615   0.468  1.00  0.00     0.159 HD
HETATM   19  O   UNL     1      43.929 -18.330   2.809  1.00  0.00    -0.266 OA
ENDBRANCH   9  15
ENDBRANCH   2   5
BRANCH   1  20
HETATM   20  C   UNL     1      45.089 -12.942   7.850  1.00  0.00     0.278 C 
BRANCH  20  21
HETATM   21  O   UNL     1      45.139 -13.181   9.255  1.00  0.00    -0.342 OA
BRANCH  21  22
HETATM   22  C   UNL     1      44.345 -12.339   9.992  1.00  0.00     0.069 A 
HETATM   23  C   UNL     1      44.330 -12.555  11.364  1.00  0.00     0.037 A 
HETATM   24  C   UNL     1      43.569 -11.732  12.200  1.00  0.00     0.011 A 
HETATM   25  C   UNL     1      42.799 -10.673  11.683  1.00  0.00    -0.049 A 
HETATM   26  C   UNL     1      42.775 -10.489  10.282  1.00  0.00    -0.053 A 
HETATM   27  C   UNL     1      41.947  -9.413   9.627  1.00  0.00     0.049 C 
HETATM   28  C   UNL     1      43.550 -11.326   9.454  1.00  0.00     0.044 A 
BRANCH  25  29
HETATM   29  C   UNL     1      41.982  -9.784  12.616  1.00  0.00     0.011 C 
HETATM   30  C   UNL     1      41.228 -10.633  13.640  1.00  0.00     0.015 C 
HETATM   31  C   UNL     1      42.805  -8.700  13.323  1.00  0.00     0.015 C 
ENDBRANCH  25  29
ENDBRANCH  21  22
ENDBRANCH  20  21
ENDBRANCH   1  20
TORSDOF 6
ENDMDL
