MODEL 1
REMARK VINA RESULT:      -7.4      0.000      0.000
REMARK  5 active torsions:
REMARK  status: ('A' for Active; 'I' for Inactive)
REMARK    1  A    between atoms: C_3  and  N_4 
REMARK       I    between atoms: N_4  and  C_5 
REMARK       I    between atoms: C_5  and  N_6 
REMARK    2  A    between atoms: N_6  and  C_7 
REMARK    3  A    between atoms: C_8  and  O_9 
REMARK    4  A    between atoms: O_9  and  C_10 
REMARK    5  A    between atoms: C_10  and  C_11 
ROOT
HETATM    1  N   UNL     1      43.557 -16.434   2.532  1.00  0.00    -0.307 N 
HETATM    2  C   UNL     1      43.218 -17.679   3.033  1.00  0.00     0.325 C 
HETATM    3  N   UNL     1      44.297 -18.533   2.900  1.00  0.00    -0.306 N 
HETATM    4  O   UNL     1      42.139 -17.974   3.524  1.00  0.00    -0.247 OA
HETATM    5  H   UNL     1      44.533 -16.209   2.663  1.00  0.00     0.170 HD
HETATM    6  H   UNL     1      45.099 -18.190   2.387  1.00  0.00     0.171 HD
ENDROOT
BRANCH   3   7
HETATM    7  C   UNL     1      44.387 -19.907   3.205  1.00  0.00     0.069 A 
HETATM    8  C   UNL     1      44.788 -20.227   4.520  1.00  0.00     0.095 A 
HETATM    9  C   UNL     1      44.928 -21.562   4.904  1.00  0.00     0.039 A 
HETATM   10  C   UNL     1      44.677 -22.579   3.981  1.00  0.00     0.003 A 
HETATM   11  C   UNL     1      44.281 -22.264   2.682  1.00  0.00     0.002 A 
HETATM   12  C   UNL     1      44.134 -20.930   2.292  1.00  0.00     0.032 A 
BRANCH   8  13
HETATM   13  O   UNL     1      44.987 -19.148   5.350  1.00  0.00    -0.348 OA
BRANCH  13  14
HETATM   14  C   UNL     1      44.122 -19.037   6.480  1.00  0.00     0.180 C 
BRANCH  14  15
HETATM   15  C   UNL     1      43.992 -17.596   6.895  1.00  0.00     0.010 A 
HETATM   16  C   UNL     1      42.672 -16.864   6.897  1.00  0.00     0.007 A 
HETATM   17  C   UNL     1      43.337 -17.219   8.200  1.00  0.00     0.007 A 
ENDBRANCH  14  15
ENDBRANCH  13  14
ENDBRANCH   8  13
ENDBRANCH   3   7
BRANCH   1  18
HETATM   18  C   UNL     1      42.721 -15.346   2.189  1.00  0.00     0.059 A 
HETATM   19  C   UNL     1      41.797 -15.283   1.136  1.00  0.00    -0.032 A 
HETATM   20  C   UNL     1      41.522 -16.387   0.156  1.00  0.00     0.050 C 
HETATM   21  C   UNL     1      41.078 -14.087   0.955  1.00  0.00     0.028 A 
HETATM   22  C   UNL     1      41.329 -12.997   1.773  1.00  0.00     0.117 A 
HETATM   23  N   UNL     1      42.238 -13.008   2.761  1.00  0.00    -0.271 NA
HETATM   24  C   UNL     1      42.903 -14.175   2.940  1.00  0.00     0.146 A 
ENDBRANCH   1  18
TORSDOF 5
ENDMDL
MODEL 2
REMARK VINA RESULT:      -7.4      1.899      4.122
REMARK  5 active torsions:
REMARK  status: ('A' for Active; 'I' for Inactive)
REMARK    1  A    between atoms: C_3  and  N_4 
REMARK       I    between atoms: N_4  and  C_5 
REMARK       I    between atoms: C_5  and  N_6 
REMARK    2  A    between atoms: N_6  and  C_7 
REMARK    3  A    between atoms: C_8  and  O_9 
REMARK    4  A    between atoms: O_9  and  C_10 
REMARK    5  A    between atoms: C_10  and  C_11 
ROOT
HETATM    1  N   UNL     1      40.661 -16.573   2.918  1.00  0.00    -0.307 N 
HETATM    2  C   UNL     1      41.747 -16.495   3.773  1.00  0.00     0.325 C 
HETATM    3  N   UNL     1      41.640 -17.479   4.737  1.00  0.00    -0.306 N 
HETATM    4  O   UNL     1      42.662 -15.690   3.683  1.00  0.00    -0.247 OA
HETATM    5  H   UNL     1      40.327 -17.518   2.792  1.00  0.00     0.170 HD
HETATM    6  H   UNL     1      40.783 -18.017   4.758  1.00  0.00     0.171 HD
ENDROOT
BRANCH   3   7
HETATM    7  C   UNL     1      42.472 -17.731   5.848  1.00  0.00     0.069 A 
HETATM    8  C   UNL     1      43.470 -18.713   5.667  1.00  0.00     0.095 A 
HETATM    9  C   UNL     1      44.325 -19.045   6.721  1.00  0.00     0.039 A 
HETATM   10  C   UNL     1      44.183 -18.408   7.955  1.00  0.00     0.003 A 
HETATM   11  C   UNL     1      43.198 -17.439   8.135  1.00  0.00     0.002 A 
HETATM   12  C   UNL     1      42.343 -17.097   7.083  1.00  0.00     0.032 A 
BRANCH   8  13
HETATM   13  O   UNL     1      43.533 -19.259   4.406  1.00  0.00    -0.348 OA
BRANCH  13  14
HETATM   14  C   UNL     1      44.541 -20.244   4.180  1.00  0.00     0.180 C 
BRANCH  14  15
HETATM   15  C   UNL     1      44.664 -20.532   2.709  1.00  0.00     0.010 A 
HETATM   16  C   UNL     1      44.327 -21.877   2.110  1.00  0.00     0.007 A 
HETATM   17  C   UNL     1      43.438 -20.691   1.843  1.00  0.00     0.007 A 
ENDBRANCH  14  15
ENDBRANCH  13  14
ENDBRANCH   8  13
ENDBRANCH   3   7
BRANCH   1  18
HETATM   18  C   UNL     1      40.187 -15.627   1.980  1.00  0.00     0.059 A 
HETATM   19  C   UNL     1      40.580 -15.488   0.641  1.00  0.00    -0.032 A 
HETATM   20  C   UNL     1      41.601 -16.339  -0.057  1.00  0.00     0.050 C 
HETATM   21  C   UNL     1      39.994 -14.457  -0.118  1.00  0.00     0.028 A 
HETATM   22  C   UNL     1      39.097 -13.584   0.475  1.00  0.00     0.117 A 
HETATM   23  N   UNL     1      38.734 -13.660   1.766  1.00  0.00    -0.271 NA
HETATM   24  C   UNL     1      39.286 -14.674   2.476  1.00  0.00     0.146 A 
ENDBRANCH   1  18
TORSDOF 5
ENDMDL
MODEL 3
REMARK VINA RESULT:      -7.4      2.818      3.881
REMARK  5 active torsions:
REMARK  status: ('A' for Active; 'I' for Inactive)
REMARK    1  A    between atoms: C_3  and  N_4 
REMARK       I    between atoms: N_4  and  C_5 
REMARK       I    between atoms: C_5  and  N_6 
REMARK    2  A    between atoms: N_6  and  C_7 
REMARK    3  A    between atoms: C_8  and  O_9 
REMARK    4  A    between atoms: O_9  and  C_10 
REMARK    5  A    between atoms: C_10  and  C_11 
ROOT
HETATM    1  N   UNL     1      41.951 -15.650  -0.562  1.00  0.00    -0.307 N 
HETATM    2  C   UNL     1      41.832 -16.563   0.471  1.00  0.00     0.325 C 
HETATM    3  N   UNL     1      43.092 -16.956   0.881  1.00  0.00    -0.306 N 
HETATM    4  O   UNL     1      40.778 -16.954   0.952  1.00  0.00    -0.247 OA
HETATM    5  H   UNL     1      42.775 -15.071  -0.481  1.00  0.00     0.170 HD
HETATM    6  H   UNL     1      43.879 -16.632   0.335  1.00  0.00     0.171 HD
ENDROOT
BRANCH   3   7
HETATM    7  C   UNL     1      43.454 -17.918   1.848  1.00  0.00     0.069 A 
HETATM    8  C   UNL     1      43.668 -17.433   3.157  1.00  0.00     0.095 A 
HETATM    9  C   UNL     1      44.053 -18.310   4.173  1.00  0.00     0.039 A 
HETATM   10  C   UNL     1      44.232 -19.665   3.889  1.00  0.00     0.003 A 
HETATM   11  C   UNL     1      44.021 -20.144   2.597  1.00  0.00     0.002 A 
HETATM   12  C   UNL     1      43.630 -19.274   1.576  1.00  0.00     0.032 A 
BRANCH   8  13
HETATM   13  O   UNL     1      43.442 -16.087   3.327  1.00  0.00    -0.348 OA
BRANCH  13  14
HETATM   14  C   UNL     1      42.934 -15.675   4.596  1.00  0.00     0.180 C 
BRANCH  14  15
HETATM   15  C   UNL     1      41.475 -16.024   4.709  1.00  0.00     0.010 A 
HETATM   16  C   UNL     1      40.936 -16.939   5.783  1.00  0.00     0.007 A 
HETATM   17  C   UNL     1      40.626 -15.466   5.825  1.00  0.00     0.007 A 
ENDBRANCH  14  15
ENDBRANCH  13  14
ENDBRANCH   8  13
ENDBRANCH   3   7
BRANCH   1  18
HETATM   18  C   UNL     1      40.974 -15.197  -1.478  1.00  0.00     0.059 A 
HETATM   19  C   UNL     1      39.918 -14.310  -1.225  1.00  0.00    -0.032 A 
HETATM   20  C   UNL     1      39.624 -13.666   0.099  1.00  0.00     0.050 C 
HETATM   21  C   UNL     1      39.039 -14.008  -2.283  1.00  0.00     0.028 A 
HETATM   22  C   UNL     1      39.200 -14.620  -3.515  1.00  0.00     0.117 A 
HETATM   23  N   UNL     1      40.173 -15.508  -3.777  1.00  0.00    -0.271 NA
HETATM   24  C   UNL     1      41.027 -15.768  -2.758  1.00  0.00     0.146 A 
ENDBRANCH   1  18
TORSDOF 5
ENDMDL
MODEL 4
REMARK VINA RESULT:      -7.4      1.147      1.848
REMARK  5 active torsions:
REMARK  status: ('A' for Active; 'I' for Inactive)
REMARK    1  A    between atoms: C_3  and  N_4 
REMARK       I    between atoms: N_4  and  C_5 
REMARK       I    between atoms: C_5  and  N_6 
REMARK    2  A    between atoms: N_6  and  C_7 
REMARK    3  A    between atoms: C_8  and  O_9 
REMARK    4  A    between atoms: O_9  and  C_10 
REMARK    5  A    between atoms: C_10  and  C_11 
ROOT
HETATM    1  N   UNL     1      43.167 -16.000   3.433  1.00  0.00    -0.307 N 
HETATM    2  C   UNL     1      42.816 -17.338   3.425  1.00  0.00     0.325 C 
HETATM    3  N   UNL     1      43.938 -18.104   3.171  1.00  0.00    -0.306 N 
HETATM    4  O   UNL     1      41.692 -17.775   3.622  1.00  0.00    -0.247 OA
HETATM    5  H   UNL     1      44.105 -15.842   3.775  1.00  0.00     0.170 HD
HETATM    6  H   UNL     1      44.789 -17.613   2.929  1.00  0.00     0.171 HD
ENDROOT
BRANCH   3   7
HETATM    7  C   UNL     1      44.044 -19.500   3.001  1.00  0.00     0.069 A 
HETATM    8  C   UNL     1      44.558 -20.223   4.099  1.00  0.00     0.095 A 
HETATM    9  C   UNL     1      44.720 -21.607   4.012  1.00  0.00     0.039 A 
HETATM   10  C   UNL     1      44.379 -22.272   2.833  1.00  0.00     0.003 A 
HETATM   11  C   UNL     1      43.871 -21.559   1.748  1.00  0.00     0.002 A 
HETATM   12  C   UNL     1      43.701 -20.175   1.830  1.00  0.00     0.032 A 
BRANCH   8  13
HETATM   13  O   UNL     1      44.840 -19.470   5.215  1.00  0.00    -0.348 OA
BRANCH  13  14
HETATM   14  C   UNL     1      44.002 -19.669   6.354  1.00  0.00     0.180 C 
BRANCH  14  15
HETATM   15  C   UNL     1      43.363 -18.369   6.761  1.00  0.00     0.010 A 
HETATM   16  C   UNL     1      43.598 -17.732   8.110  1.00  0.00     0.007 A 
HETATM   17  C   UNL     1      44.176 -17.103   6.870  1.00  0.00     0.007 A 
ENDBRANCH  14  15
ENDBRANCH  13  14
ENDBRANCH   8  13
ENDBRANCH   3   7
BRANCH   1  18
HETATM   18  C   UNL     1      42.342 -14.854   3.360  1.00  0.00     0.059 A 
HETATM   19  C   UNL     1      41.487 -14.358   4.354  1.00  0.00    -0.032 A 
HETATM   20  C   UNL     1      41.285 -14.971   5.710  1.00  0.00     0.050 C 
HETATM   21  C   UNL     1      40.731 -13.205   4.065  1.00  0.00     0.028 A 
HETATM   22  C   UNL     1      40.807 -12.625   2.809  1.00  0.00     0.117 A 
HETATM   23  N   UNL     1      41.581 -13.101   1.820  1.00  0.00    -0.271 NA
HETATM   24  C   UNL     1      42.322 -14.193   2.123  1.00  0.00     0.146 A 
ENDBRANCH   1  18
TORSDOF 5
ENDMDL
MODEL 5
REMARK VINA RESULT:      -7.3      1.576      1.727
REMARK  5 active torsions:
REMARK  status: ('A' for Active; 'I' for Inactive)
REMARK    1  A    between atoms: C_3  and  N_4 
REMARK       I    between atoms: N_4  and  C_5 
REMARK       I    between atoms: C_5  and  N_6 
REMARK    2  A    between atoms: N_6  and  C_7 
REMARK    3  A    between atoms: C_8  and  O_9 
REMARK    4  A    between atoms: O_9  and  C_10 
REMARK    5  A    between atoms: C_10  and  C_11 
ROOT
HETATM    1  N   UNL     1      41.840 -16.610   1.037  1.00  0.00    -0.307 N 
HETATM    2  C   UNL     1      42.929 -17.428   1.280  1.00  0.00     0.325 C 
HETATM    3  N   UNL     1      42.515 -18.543   1.984  1.00  0.00    -0.306 N 
HETATM    4  O   UNL     1      44.075 -17.205   0.920  1.00  0.00    -0.247 OA
HETATM    5  H   UNL     1      40.980 -17.127   0.912  1.00  0.00     0.170 HD
HETATM    6  H   UNL     1      41.555 -18.559   2.305  1.00  0.00     0.171 HD
ENDROOT
BRANCH   3   7
HETATM    7  C   UNL     1      43.285 -19.603   2.507  1.00  0.00     0.069 A 
HETATM    8  C   UNL     1      43.861 -19.385   3.778  1.00  0.00     0.095 A 
HETATM    9  C   UNL     1      44.658 -20.371   4.363  1.00  0.00     0.039 A 
HETATM   10  C   UNL     1      44.891 -21.568   3.684  1.00  0.00     0.003 A 
HETATM   11  C   UNL     1      44.323 -21.784   2.429  1.00  0.00     0.002 A 
HETATM   12  C   UNL     1      43.519 -20.805   1.840  1.00  0.00     0.032 A 
BRANCH   8  13
HETATM   13  O   UNL     1      43.547 -18.181   4.363  1.00  0.00    -0.348 OA
BRANCH  13  14
HETATM   14  C   UNL     1      42.870 -18.232   5.619  1.00  0.00     0.180 C 
BRANCH  14  15
HETATM   15  C   UNL     1      43.752 -17.681   6.707  1.00  0.00     0.010 A 
HETATM   16  C   UNL     1      43.226 -17.305   8.071  1.00  0.00     0.007 A 
HETATM   17  C   UNL     1      44.110 -18.514   7.914  1.00  0.00     0.007 A 
ENDBRANCH  14  15
ENDBRANCH  13  14
ENDBRANCH   8  13
ENDBRANCH   3   7
BRANCH   1  18
HETATM   18  C   UNL     1      41.806 -15.259   0.622  1.00  0.00     0.059 A 
HETATM   19  C   UNL     1      41.436 -14.765  -0.637  1.00  0.00    -0.032 A 
HETATM   20  C   UNL     1      40.999 -15.604  -1.803  1.00  0.00     0.050 C 
HETATM   21  C   UNL     1      41.495 -13.374  -0.848  1.00  0.00     0.028 A 
HETATM   22  C   UNL     1      41.959 -12.541   0.156  1.00  0.00     0.117 A 
HETATM   23  N   UNL     1      42.364 -12.985   1.358  1.00  0.00    -0.271 NA
HETATM   24  C   UNL     1      42.275 -14.322   1.555  1.00  0.00     0.146 A 
ENDBRANCH   1  18
TORSDOF 5
ENDMDL
MODEL 6
REMARK VINA RESULT:      -7.2      1.944      6.262
REMARK  5 active torsions:
REMARK  status: ('A' for Active; 'I' for Inactive)
REMARK    1  A    between atoms: C_3  and  N_4 
REMARK       I    between atoms: N_4  and  C_5 
REMARK       I    between atoms: C_5  and  N_6 
REMARK    2  A    between atoms: N_6  and  C_7 
REMARK    3  A    between atoms: C_8  and  O_9 
REMARK    4  A    between atoms: O_9  and  C_10 
REMARK    5  A    between atoms: C_10  and  C_11 
ROOT
HETATM    1  N   UNL     1      43.633 -17.993   2.986  1.00  0.00    -0.307 N 
HETATM    2  C   UNL     1      42.576 -17.282   3.528  1.00  0.00     0.325 C 
HETATM    3  N   UNL     1      42.880 -15.934   3.519  1.00  0.00    -0.306 N 
HETATM    4  O   UNL     1      41.534 -17.768   3.941  1.00  0.00    -0.247 OA
HETATM    5  H   UNL     1      44.121 -17.482   2.265  1.00  0.00     0.170 HD
HETATM    6  H   UNL     1      43.817 -15.672   3.240  1.00  0.00     0.171 HD
ENDROOT
BRANCH   3   7
HETATM    7  C   UNL     1      42.138 -14.850   4.033  1.00  0.00     0.069 A 
HETATM    8  C   UNL     1      42.699 -14.183   5.144  1.00  0.00     0.095 A 
HETATM    9  C   UNL     1      42.023 -13.113   5.734  1.00  0.00     0.039 A 
HETATM   10  C   UNL     1      40.786 -12.711   5.225  1.00  0.00     0.003 A 
HETATM   11  C   UNL     1      40.231 -13.368   4.129  1.00  0.00     0.002 A 
HETATM   12  C   UNL     1      40.905 -14.436   3.530  1.00  0.00     0.032 A 
BRANCH   8  13
HETATM   13  O   UNL     1      43.929 -14.650   5.546  1.00  0.00    -0.348 OA
BRANCH  13  14
HETATM   14  C   UNL     1      44.049 -15.057   6.909  1.00  0.00     0.180 C 
BRANCH  14  15
HETATM   15  C   UNL     1      43.815 -16.539   7.030  1.00  0.00     0.010 A 
HETATM   16  C   UNL     1      43.457 -17.204   8.337  1.00  0.00     0.007 A 
HETATM   17  C   UNL     1      42.427 -17.092   7.244  1.00  0.00     0.007 A 
ENDBRANCH  14  15
ENDBRANCH  13  14
ENDBRANCH   8  13
ENDBRANCH   3   7
BRANCH   1  18
HETATM   18  C   UNL     1      43.908 -19.378   3.047  1.00  0.00     0.059 A 
HETATM   19  C   UNL     1      44.533 -20.076   4.091  1.00  0.00    -0.032 A 
HETATM   20  C   UNL     1      45.036 -19.462   5.365  1.00  0.00     0.050 C 
HETATM   21  C   UNL     1      44.732 -21.461   3.937  1.00  0.00     0.028 A 
HETATM   22  C   UNL     1      44.361 -22.087   2.758  1.00  0.00     0.117 A 
HETATM   23  N   UNL     1      43.803 -21.442   1.722  1.00  0.00    -0.271 NA
HETATM   24  C   UNL     1      43.593 -20.115   1.895  1.00  0.00     0.146 A 
ENDBRANCH   1  18
TORSDOF 5
ENDMDL
MODEL 7
REMARK VINA RESULT:      -7.1      2.835      4.998
REMARK  5 active torsions:
REMARK  status: ('A' for Active; 'I' for Inactive)
REMARK    1  A    between atoms: C_3  and  N_4 
REMARK       I    between atoms: N_4  and  C_5 
REMARK       I    between atoms: C_5  and  N_6 
REMARK    2  A    between atoms: N_6  and  C_7 
REMARK    3  A    between atoms: C_8  and  O_9 
REMARK    4  A    between atoms: O_9  and  C_10 
REMARK    5  A    between atoms: C_10  and  C_11 
ROOT
HETATM    1  N   UNL     1      40.906 -16.102  -0.425  1.00  0.00    -0.307 N 
HETATM    2  C   UNL     1      41.484 -15.909   0.817  1.00  0.00     0.325 C 
HETATM    3  N   UNL     1      41.287 -17.036   1.593  1.00  0.00    -0.306 N 
HETATM    4  O   UNL     1      42.083 -14.904   1.170  1.00  0.00    -0.247 OA
HETATM    5  H   UNL     1      40.938 -17.066  -0.728  1.00  0.00     0.170 HD
HETATM    6  H   UNL     1      40.689 -17.760   1.216  1.00  0.00     0.171 HD
ENDROOT
BRANCH   3   7
HETATM    7  C   UNL     1      41.636 -17.261   2.941  1.00  0.00     0.069 A 
HETATM    8  C   UNL     1      42.754 -18.094   3.163  1.00  0.00     0.095 A 
HETATM    9  C   UNL     1      43.159 -18.390   4.466  1.00  0.00     0.039 A 
HETATM   10  C   UNL     1      42.449 -17.867   5.548  1.00  0.00     0.003 A 
HETATM   11  C   UNL     1      41.344 -17.045   5.331  1.00  0.00     0.002 A 
HETATM   12  C   UNL     1      40.938 -16.739   4.029  1.00  0.00     0.032 A 
BRANCH   8  13
HETATM   13  O   UNL     1      43.390 -18.534   2.026  1.00  0.00    -0.348 OA
BRANCH  13  14
HETATM   14  C   UNL     1      44.362 -19.567   2.191  1.00  0.00     0.180 C 
BRANCH  14  15
HETATM   15  C   UNL     1      43.697 -20.917   2.149  1.00  0.00     0.010 A 
HETATM   16  C   UNL     1      44.209 -22.053   1.297  1.00  0.00     0.007 A 
HETATM   17  C   UNL     1      44.338 -22.120   2.796  1.00  0.00     0.007 A 
ENDBRANCH  14  15
ENDBRANCH  13  14
ENDBRANCH   8  13
ENDBRANCH   3   7
BRANCH   1  18
HETATM   18  C   UNL     1      40.598 -15.157  -1.430  1.00  0.00     0.059 A 
HETATM   19  C   UNL     1      39.650 -14.125  -1.365  1.00  0.00    -0.032 A 
HETATM   20  C   UNL     1      38.767 -13.832  -0.186  1.00  0.00     0.050 C 
HETATM   21  C   UNL     1      39.485 -13.303  -2.496  1.00  0.00     0.028 A 
HETATM   22  C   UNL     1      40.211 -13.557  -3.648  1.00  0.00     0.117 A 
HETATM   23  N   UNL     1      41.093 -14.564  -3.760  1.00  0.00    -0.271 NA
HETATM   24  C   UNL     1      41.261 -15.329  -2.654  1.00  0.00     0.146 A 
ENDBRANCH   1  18
TORSDOF 5
ENDMDL
MODEL 8
REMARK VINA RESULT:      -7.1      1.755      6.428
REMARK  5 active torsions:
REMARK  status: ('A' for Active; 'I' for Inactive)
REMARK    1  A    between atoms: C_3  and  N_4 
REMARK       I    between atoms: N_4  and  C_5 
REMARK       I    between atoms: C_5  and  N_6 
REMARK    2  A    between atoms: N_6  and  C_7 
REMARK    3  A    between atoms: C_8  and  O_9 
REMARK    4  A    between atoms: O_9  and  C_10 
REMARK    5  A    between atoms: C_10  and  C_11 
ROOT
HETATM    1  N   UNL     1      44.244 -18.982   2.391  1.00  0.00    -0.307 N 
HETATM    2  C   UNL     1      43.080 -18.379   1.946  1.00  0.00     0.325 C 
HETATM    3  N   UNL     1      43.347 -17.068   1.603  1.00  0.00    -0.306 N 
HETATM    4  O   UNL     1      41.990 -18.925   1.861  1.00  0.00    -0.247 OA
HETATM    5  H   UNL     1      45.071 -18.627   1.930  1.00  0.00     0.170 HD
HETATM    6  H   UNL     1      44.271 -16.712   1.813  1.00  0.00     0.171 HD
ENDROOT
BRANCH   3   7
HETATM    7  C   UNL     1      42.457 -16.062   1.171  1.00  0.00     0.069 A 
HETATM    8  C   UNL     1      42.201 -15.021   2.091  1.00  0.00     0.095 A 
HETATM    9  C   UNL     1      41.315 -13.995   1.758  1.00  0.00     0.039 A 
HETATM   10  C   UNL     1      40.677 -14.005   0.517  1.00  0.00     0.003 A 
HETATM   11  C   UNL     1      40.929 -15.032  -0.392  1.00  0.00     0.002 A 
HETATM   12  C   UNL     1      41.819 -16.059  -0.068  1.00  0.00     0.032 A 
BRANCH   8  13
HETATM   13  O   UNL     1      42.900 -15.101   3.273  1.00  0.00    -0.348 OA
BRANCH  13  14
HETATM   14  C   UNL     1      42.131 -15.234   4.468  1.00  0.00     0.180 C 
BRANCH  14  15
HETATM   15  C   UNL     1      42.385 -16.574   5.103  1.00  0.00     0.010 A 
HETATM   16  C   UNL     1      41.771 -16.982   6.420  1.00  0.00     0.007 A 
HETATM   17  C   UNL     1      41.310 -17.632   5.143  1.00  0.00     0.007 A 
ENDBRANCH  14  15
ENDBRANCH  13  14
ENDBRANCH   8  13
ENDBRANCH   3   7
BRANCH   1  18
HETATM   18  C   UNL     1      44.415 -20.189   3.106  1.00  0.00     0.059 A 
HETATM   19  C   UNL     1      44.713 -20.335   4.468  1.00  0.00    -0.032 A 
HETATM   20  C   UNL     1      44.913 -19.207   5.438  1.00  0.00     0.050 C 
HETATM   21  C   UNL     1      44.864 -21.639   4.978  1.00  0.00     0.028 A 
HETATM   22  C   UNL     1      44.768 -22.730   4.130  1.00  0.00     0.117 A 
HETATM   23  N   UNL     1      44.528 -22.624   2.813  1.00  0.00    -0.271 NA
HETATM   24  C   UNL     1      44.358 -21.365   2.342  1.00  0.00     0.146 A 
ENDBRANCH   1  18
TORSDOF 5
ENDMDL
MODEL 9
REMARK VINA RESULT:      -7.0      2.412      3.101
REMARK  5 active torsions:
REMARK  status: ('A' for Active; 'I' for Inactive)
REMARK    1  A    between atoms: C_3  and  N_4 
REMARK       I    between atoms: N_4  and  C_5 
REMARK       I    between atoms: C_5  and  N_6 
REMARK    2  A    between atoms: N_6  and  C_7 
REMARK    3  A    between atoms: C_8  and  O_9 
REMARK    4  A    between atoms: O_9  and  C_10 
REMARK    5  A    between atoms: C_10  and  C_11 
ROOT
HETATM    1  N   UNL     1      40.312 -15.840   3.432  1.00  0.00    -0.307 N 
HETATM    2  C   UNL     1      41.560 -16.362   3.137  1.00  0.00     0.325 C 
HETATM    3  N   UNL     1      41.645 -17.650   3.631  1.00  0.00    -0.306 N 
HETATM    4  O   UNL     1      42.443 -15.779   2.526  1.00  0.00    -0.247 OA
HETATM    5  H   UNL     1      39.585 -16.542   3.439  1.00  0.00     0.170 HD
HETATM    6  H   UNL     1      40.878 -17.979   4.203  1.00  0.00     0.171 HD
ENDROOT
BRANCH   3   7
HETATM    7  C   UNL     1      42.745 -18.534   3.627  1.00  0.00     0.069 A 
HETATM    8  C   UNL     1      43.475 -18.623   4.832  1.00  0.00     0.095 A 
HETATM    9  C   UNL     1      44.593 -19.455   4.912  1.00  0.00     0.039 A 
HETATM   10  C   UNL     1      44.990 -20.192   3.796  1.00  0.00     0.003 A 
HETATM   11  C   UNL     1      44.270 -20.105   2.605  1.00  0.00     0.002 A 
HETATM   12  C   UNL     1      43.146 -19.279   2.519  1.00  0.00     0.032 A 
BRANCH   8  13
HETATM   13  O   UNL     1      42.982 -17.870   5.872  1.00  0.00    -0.348 OA
BRANCH  13  14
HETATM   14  C   UNL     1      43.941 -17.249   6.728  1.00  0.00     0.180 C 
BRANCH  14  15
HETATM   15  C   UNL     1      43.617 -15.789   6.897  1.00  0.00     0.010 A 
HETATM   16  C   UNL     1      44.678 -14.714   6.903  1.00  0.00     0.007 A 
HETATM   17  C   UNL     1      43.731 -14.829   5.738  1.00  0.00     0.007 A 
ENDBRANCH  14  15
ENDBRANCH  13  14
ENDBRANCH   8  13
ENDBRANCH   3   7
BRANCH   1  18
HETATM   18  C   UNL     1      39.867 -14.499   3.395  1.00  0.00     0.059 A 
HETATM   19  C   UNL     1      39.817 -13.590   4.461  1.00  0.00    -0.032 A 
HETATM   20  C   UNL     1      40.236 -13.884   5.873  1.00  0.00     0.050 C 
HETATM   21  C   UNL     1      39.314 -12.299   4.209  1.00  0.00     0.028 A 
HETATM   22  C   UNL     1      38.838 -11.975   2.949  1.00  0.00     0.117 A 
HETATM   23  N   UNL     1      38.830 -12.835   1.918  1.00  0.00    -0.271 NA
HETATM   24  C   UNL     1      39.342 -14.064   2.169  1.00  0.00     0.146 A 
ENDBRANCH   1  18
TORSDOF 5
ENDMDL
MODEL 10
REMARK VINA RESULT:      -7.0      2.062      3.111
REMARK  5 active torsions:
REMARK  status: ('A' for Active; 'I' for Inactive)
REMARK    1  A    between atoms: C_3  and  N_4 
REMARK       I    between atoms: N_4  and  C_5 
REMARK       I    between atoms: C_5  and  N_6 
REMARK    2  A    between atoms: N_6  and  C_7 
REMARK    3  A    between atoms: C_8  and  O_9 
REMARK    4  A    between atoms: O_9  and  C_10 
REMARK    5  A    between atoms: C_10  and  C_11 
ROOT
HETATM    1  N   UNL     1      41.049 -16.642   0.678  1.00  0.00    -0.307 N 
HETATM    2  C   UNL     1      42.263 -17.154   1.104  1.00  0.00     0.325 C 
HETATM    3  N   UNL     1      42.042 -18.312   1.824  1.00  0.00    -0.306 N 
HETATM    4  O   UNL     1      43.358 -16.664   0.871  1.00  0.00    -0.247 OA
HETATM    5  H   UNL     1      40.366 -17.360   0.485  1.00  0.00     0.170 HD
HETATM    6  H   UNL     1      41.081 -18.556   2.028  1.00  0.00     0.171 HD
ENDROOT
BRANCH   3   7
HETATM    7  C   UNL     1      42.970 -19.128   2.504  1.00  0.00     0.069 A 
HETATM    8  C   UNL     1      43.291 -18.739   3.823  1.00  0.00     0.095 A 
HETATM    9  C   UNL     1      44.218 -19.475   4.564  1.00  0.00     0.039 A 
HETATM   10  C   UNL     1      44.833 -20.590   3.993  1.00  0.00     0.003 A 
HETATM   11  C   UNL     1      44.518 -20.975   2.691  1.00  0.00     0.002 A 
HETATM   12  C   UNL     1      43.586 -20.248   1.946  1.00  0.00     0.032 A 
BRANCH   8  13
HETATM   13  O   UNL     1      42.610 -17.639   4.291  1.00  0.00    -0.348 OA
BRANCH  13  14
HETATM   14  C   UNL     1      43.397 -16.522   4.702  1.00  0.00     0.180 C 
BRANCH  14  15
HETATM   15  C   UNL     1      42.761 -15.240   4.237  1.00  0.00     0.010 A 
HETATM   16  C   UNL     1      43.153 -13.889   4.787  1.00  0.00     0.007 A 
HETATM   17  C   UNL     1      43.521 -14.263   3.375  1.00  0.00     0.007 A 
ENDBRANCH  14  15
ENDBRANCH  13  14
ENDBRANCH   8  13
ENDBRANCH   3   7
BRANCH   1  18
HETATM   18  C   UNL     1      40.743 -15.356   0.175  1.00  0.00     0.059 A 
HETATM   19  C   UNL     1      40.143 -14.294   0.866  1.00  0.00    -0.032 A 
HETATM   20  C   UNL     1      39.704 -14.330   2.301  1.00  0.00     0.050 C 
HETATM   21  C   UNL     1      39.906 -13.096   0.164  1.00  0.00     0.028 A 
HETATM   22  C   UNL     1      40.215 -13.011  -1.184  1.00  0.00     0.117 A 
HETATM   23  N   UNL     1      40.748 -14.023  -1.886  1.00  0.00    -0.271 NA
HETATM   24  C   UNL     1      40.996 -15.159  -1.191  1.00  0.00     0.146 A 
ENDBRANCH   1  18
TORSDOF 5
ENDMDL
