MODEL 1
REMARK VINA RESULT:      -8.8      0.000      0.000
REMARK  6 active torsions:
REMARK  status: ('A' for Active; 'I' for Inactive)
REMARK    1  A    between atoms: O_2  and  C_3 
REMARK    2  A    between atoms: C_5  and  C_6 
REMARK    3  A    between atoms: C_12  and  C_13 
REMARK       I    between atoms: C_13  and  N_14 
REMARK    4  A    between atoms: N_14  and  C_15 
REMARK    5  A    between atoms: C_17  and  O_18 
REMARK    6  A    between atoms: C_23  and  C_24 
ROOT
HETATM    1  C   UNL     1      41.208 -17.421   5.370  1.00  0.00     0.118 C 
HETATM    2  N   UNL     1      40.540 -16.688   4.292  1.00  0.00    -0.365 N 
HETATM    3  C   UNL     1      40.825 -15.379   4.056  1.00  0.00     0.138 A 
HETATM    4  N   UNL     1      41.582 -14.640   4.928  1.00  0.00    -0.240 N 
HETATM    5  N   UNL     1      41.746 -13.362   4.551  1.00  0.00    -0.181 NA
HETATM    6  C   UNL     1      41.145 -13.313   3.358  1.00  0.00     0.160 A 
HETATM    7  C   UNL     1      40.520 -14.533   3.004  1.00  0.00     0.096 A 
HETATM    8  C   UNL     1      42.166 -15.144   6.156  1.00  0.00     0.221 C 
HETATM    9  C   UNL     1      41.528 -16.489   6.550  1.00  0.00     0.066 C 
HETATM   10  H   UNL     1      40.313 -17.295   3.501  1.00  0.00     0.161 HD
ENDROOT
BRANCH   7  11
HETATM   11  C   UNL     1      39.764 -14.818   1.798  1.00  0.00     0.261 C 
HETATM   12  N   UNL     1      40.347 -14.289   0.661  1.00  0.00    -0.323 N 
HETATM   13  H   UNL     1      41.292 -13.943   0.782  1.00  0.00     0.169 HD
HETATM   14  O   UNL     1      38.739 -15.487   1.838  1.00  0.00    -0.267 OA
BRANCH  12  15
HETATM   15  C   UNL     1      39.810 -14.226  -0.638  1.00  0.00     0.037 A 
HETATM   16  C   UNL     1      40.390 -14.849  -1.746  1.00  0.00     0.066 A 
HETATM   17  C   UNL     1      39.762 -14.771  -2.988  1.00  0.00     0.067 A 
HETATM   18  C   UNL     1      38.571 -14.076  -3.150  1.00  0.00     0.036 A 
HETATM   19  C   UNL     1      37.990 -13.449  -2.051  1.00  0.00     0.005 A 
HETATM   20  C   UNL     1      38.604 -13.529  -0.799  1.00  0.00     0.029 A 
BRANCH  17  21
HETATM   21  O   UNL     1      40.292 -15.383  -4.088  1.00  0.00    -0.361 OA
HETATM   22  H   UNL     1      40.612 -14.695  -4.697  1.00  0.00     0.217 HD
ENDBRANCH  17  21
ENDBRANCH  12  15
ENDBRANCH   7  11
BRANCH   1  23
HETATM   23  C   UNL     1      42.356 -18.277   4.872  1.00  0.00    -0.033 A 
HETATM   24  C   UNL     1      42.629 -18.311   3.492  1.00  0.00     0.046 A 
HETATM   25  C   UNL     1      43.703 -19.041   2.972  1.00  0.00     0.068 A 
HETATM   26  C   UNL     1      44.514 -19.771   3.836  1.00  0.00     0.037 A 
HETATM   27  C   UNL     1      44.259 -19.759   5.208  1.00  0.00     0.003 A 
HETATM   28  C   UNL     1      43.196 -19.014   5.721  1.00  0.00     0.009 A 
BRANCH  25  29
HETATM   29  O   UNL     1      43.849 -18.954   1.615  1.00  0.00    -0.356 OA
HETATM   30  C   UNL     1      43.641 -17.674   1.031  1.00  0.00     0.210 C 
ENDBRANCH  25  29
ENDBRANCH   1  23
BRANCH   8  31
HETATM   31  C   UNL     1      43.675 -15.195   6.050  1.00  0.00     0.409 C 
HETATM   32  F   UNL     1      44.278 -14.022   6.310  1.00  0.00    -0.169 F 
HETATM   33  F   UNL     1      44.215 -16.121   6.875  1.00  0.00    -0.169 F 
HETATM   34  F   UNL     1      44.039 -15.559   4.792  1.00  0.00    -0.169 F 
ENDBRANCH   8  31
TORSDOF 6
ENDMDL
MODEL 2
REMARK VINA RESULT:      -8.8      0.993      1.666
REMARK  6 active torsions:
REMARK  status: ('A' for Active; 'I' for Inactive)
REMARK    1  A    between atoms: O_2  and  C_3 
REMARK    2  A    between atoms: C_5  and  C_6 
REMARK    3  A    between atoms: C_12  and  C_13 
REMARK       I    between atoms: C_13  and  N_14 
REMARK    4  A    between atoms: N_14  and  C_15 
REMARK    5  A    between atoms: C_17  and  O_18 
REMARK    6  A    between atoms: C_23  and  C_24 
ROOT
HETATM    1  C   UNL     1      41.182 -17.443   4.884  1.00  0.00     0.118 C 
HETATM    2  N   UNL     1      40.448 -16.635   3.906  1.00  0.00    -0.365 N 
HETATM    3  C   UNL     1      40.677 -15.299   3.791  1.00  0.00     0.138 A 
HETATM    4  N   UNL     1      41.440 -14.620   4.705  1.00  0.00    -0.240 N 
HETATM    5  N   UNL     1      41.544 -13.306   4.450  1.00  0.00    -0.181 NA
HETATM    6  C   UNL     1      40.898 -13.164   3.290  1.00  0.00     0.160 A 
HETATM    7  C   UNL     1      40.303 -14.367   2.839  1.00  0.00     0.096 A 
HETATM    8  C   UNL     1      42.088 -15.218   5.857  1.00  0.00     0.221 C 
HETATM    9  C   UNL     1      41.514 -16.618   6.137  1.00  0.00     0.066 C 
HETATM   10  H   UNL     1      40.213 -17.171   3.068  1.00  0.00     0.161 HD
ENDROOT
BRANCH   7  11
HETATM   11  C   UNL     1      39.513 -14.563   1.637  1.00  0.00     0.261 C 
HETATM   12  N   UNL     1      40.108 -14.030   0.509  1.00  0.00    -0.323 N 
HETATM   13  H   UNL     1      41.075 -13.747   0.625  1.00  0.00     0.169 HD
HETATM   14  O   UNL     1      38.449 -15.170   1.672  1.00  0.00    -0.267 OA
BRANCH  12  15
HETATM   15  C   UNL     1      39.556 -13.889  -0.777  1.00  0.00     0.037 A 
HETATM   16  C   UNL     1      40.017 -14.584  -1.898  1.00  0.00     0.066 A 
HETATM   17  C   UNL     1      39.378 -14.415  -3.125  1.00  0.00     0.067 A 
HETATM   18  C   UNL     1      38.293 -13.558  -3.260  1.00  0.00     0.036 A 
HETATM   19  C   UNL     1      37.832 -12.858  -2.148  1.00  0.00     0.005 A 
HETATM   20  C   UNL     1      38.457 -13.028  -0.911  1.00  0.00     0.029 A 
BRANCH  17  21
HETATM   21  O   UNL     1      39.791 -15.092  -4.237  1.00  0.00    -0.361 OA
HETATM   22  H   UNL     1      39.067 -15.088  -4.885  1.00  0.00     0.217 HD
ENDBRANCH  17  21
ENDBRANCH  12  15
ENDBRANCH   7  11
BRANCH   1  23
HETATM   23  C   UNL     1      42.340 -18.201   4.264  1.00  0.00    -0.033 A 
HETATM   24  C   UNL     1      43.128 -19.028   5.085  1.00  0.00     0.046 A 
HETATM   25  C   UNL     1      44.179 -19.793   4.568  1.00  0.00     0.068 A 
HETATM   26  C   UNL     1      44.471 -19.720   3.209  1.00  0.00     0.037 A 
HETATM   27  C   UNL     1      43.709 -18.901   2.376  1.00  0.00     0.003 A 
HETATM   28  C   UNL     1      42.650 -18.155   2.896  1.00  0.00     0.009 A 
BRANCH  25  29
HETATM   29  O   UNL     1      44.833 -20.562   5.490  1.00  0.00    -0.356 OA
HETATM   30  C   UNL     1      44.882 -21.961   5.236  1.00  0.00     0.210 C 
ENDBRANCH  25  29
ENDBRANCH   1  23
BRANCH   8  31
HETATM   31  C   UNL     1      43.593 -15.200   5.694  1.00  0.00     0.409 C 
HETATM   32  F   UNL     1      44.173 -14.065   6.124  1.00  0.00    -0.169 F 
HETATM   33  F   UNL     1      44.190 -16.229   6.337  1.00  0.00    -0.169 F 
HETATM   34  F   UNL     1      43.919 -15.339   4.382  1.00  0.00    -0.169 F 
ENDBRANCH   8  31
TORSDOF 6
ENDMDL
MODEL 3
REMARK VINA RESULT:      -8.7      1.649      1.996
REMARK  6 active torsions:
REMARK  status: ('A' for Active; 'I' for Inactive)
REMARK    1  A    between atoms: O_2  and  C_3 
REMARK    2  A    between atoms: C_5  and  C_6 
REMARK    3  A    between atoms: C_12  and  C_13 
REMARK       I    between atoms: C_13  and  N_14 
REMARK    4  A    between atoms: N_14  and  C_15 
REMARK    5  A    between atoms: C_17  and  O_18 
REMARK    6  A    between atoms: C_23  and  C_24 
ROOT
HETATM    1  C   UNL     1      41.584 -17.561   5.097  1.00  0.00     0.118 C 
HETATM    2  N   UNL     1      41.561 -16.807   3.842  1.00  0.00    -0.365 N 
HETATM    3  C   UNL     1      42.127 -15.572   3.758  1.00  0.00     0.138 A 
HETATM    4  N   UNL     1      42.554 -14.901   4.875  1.00  0.00    -0.240 N 
HETATM    5  N   UNL     1      43.066 -13.688   4.612  1.00  0.00    -0.181 NA
HETATM    6  C   UNL     1      43.041 -13.625   3.277  1.00  0.00     0.160 A 
HETATM    7  C   UNL     1      42.435 -14.758   2.683  1.00  0.00     0.096 A 
HETATM    8  C   UNL     1      42.476 -15.408   6.231  1.00  0.00     0.221 C 
HETATM    9  C   UNL     1      41.523 -16.615   6.307  1.00  0.00     0.066 C 
HETATM   10  H   UNL     1      41.594 -17.422   3.026  1.00  0.00     0.161 HD
ENDROOT
BRANCH   7  11
HETATM   11  C   UNL     1      42.223 -15.003   1.267  1.00  0.00     0.261 C 
HETATM   12  N   UNL     1      41.929 -13.852   0.561  1.00  0.00    -0.323 N 
HETATM   13  H   UNL     1      42.079 -12.986   1.066  1.00  0.00     0.169 HD
HETATM   14  O   UNL     1      42.335 -16.128   0.798  1.00  0.00    -0.267 OA
BRANCH  12  15
HETATM   15  C   UNL     1      41.505 -13.741  -0.776  1.00  0.00     0.037 A 
HETATM   16  C   UNL     1      42.249 -13.105  -1.773  1.00  0.00     0.066 A 
HETATM   17  C   UNL     1      41.770 -13.083  -3.082  1.00  0.00     0.067 A 
HETATM   18  C   UNL     1      40.559 -13.676  -3.416  1.00  0.00     0.036 A 
HETATM   19  C   UNL     1      39.811 -14.308  -2.426  1.00  0.00     0.005 A 
HETATM   20  C   UNL     1      40.285 -14.345  -1.113  1.00  0.00     0.029 A 
BRANCH  17  21
HETATM   21  O   UNL     1      42.479 -12.485  -4.084  1.00  0.00    -0.361 OA
HETATM   22  H   UNL     1      42.107 -12.770  -4.937  1.00  0.00     0.217 HD
ENDBRANCH  17  21
ENDBRANCH  12  15
ENDBRANCH   7  11
BRANCH   1  23
HETATM   23  C   UNL     1      42.680 -18.609   5.130  1.00  0.00    -0.033 A 
HETATM   24  C   UNL     1      43.267 -19.016   3.918  1.00  0.00     0.046 A 
HETATM   25  C   UNL     1      44.317 -19.941   3.882  1.00  0.00     0.068 A 
HETATM   26  C   UNL     1      44.781 -20.492   5.074  1.00  0.00     0.037 A 
HETATM   27  C   UNL     1      44.210 -20.109   6.287  1.00  0.00     0.003 A 
HETATM   28  C   UNL     1      43.175 -19.172   6.316  1.00  0.00     0.009 A 
BRANCH  25  29
HETATM   29  O   UNL     1      44.794 -20.215   2.631  1.00  0.00    -0.356 OA
HETATM   30  C   UNL     1      44.186 -21.299   1.938  1.00  0.00     0.210 C 
ENDBRANCH  25  29
ENDBRANCH   1  23
BRANCH   8  31
HETATM   31  C   UNL     1      43.860 -15.690   6.778  1.00  0.00     0.409 C 
HETATM   32  F   UNL     1      44.668 -16.324   5.910  1.00  0.00    -0.169 F 
HETATM   33  F   UNL     1      44.493 -14.562   7.174  1.00  0.00    -0.169 F 
HETATM   34  F   UNL     1      43.769 -16.476   7.883  1.00  0.00    -0.169 F 
ENDBRANCH   8  31
TORSDOF 6
ENDMDL
MODEL 4
REMARK VINA RESULT:      -8.5      3.682      7.753
REMARK  6 active torsions:
REMARK  status: ('A' for Active; 'I' for Inactive)
REMARK    1  A    between atoms: O_2  and  C_3 
REMARK    2  A    between atoms: C_5  and  C_6 
REMARK    3  A    between atoms: C_12  and  C_13 
REMARK       I    between atoms: C_13  and  N_14 
REMARK    4  A    between atoms: N_14  and  C_15 
REMARK    5  A    between atoms: C_17  and  O_18 
REMARK    6  A    between atoms: C_23  and  C_24 
ROOT
HETATM    1  C   UNL     1      41.809 -12.516   0.579  1.00  0.00     0.118 C 
HETATM    2  N   UNL     1      42.153 -13.851   1.075  1.00  0.00    -0.365 N 
HETATM    3  C   UNL     1      41.184 -14.722   1.466  1.00  0.00     0.138 A 
HETATM    4  N   UNL     1      39.878 -14.327   1.608  1.00  0.00    -0.240 N 
HETATM    5  N   UNL     1      39.061 -15.308   2.022  1.00  0.00    -0.181 NA
HETATM    6  C   UNL     1      39.859 -16.379   2.062  1.00  0.00     0.160 A 
HETATM    7  C   UNL     1      41.207 -16.074   1.757  1.00  0.00     0.096 A 
HETATM    8  C   UNL     1      39.381 -12.990   1.352  1.00  0.00     0.221 C 
HETATM    9  C   UNL     1      40.543 -11.984   1.269  1.00  0.00     0.066 C 
HETATM   10  H   UNL     1      42.997 -14.217   0.631  1.00  0.00     0.161 HD
ENDROOT
BRANCH   7  11
HETATM   11  C   UNL     1      42.333 -16.990   1.732  1.00  0.00     0.261 C 
HETATM   12  N   UNL     1      42.102 -18.147   2.453  1.00  0.00    -0.323 N 
HETATM   13  H   UNL     1      41.141 -18.290   2.741  1.00  0.00     0.169 HD
HETATM   14  O   UNL     1      43.347 -16.726   1.098  1.00  0.00    -0.267 OA
BRANCH  12  15
HETATM   15  C   UNL     1      43.021 -19.161   2.781  1.00  0.00     0.037 A 
HETATM   16  C   UNL     1      43.241 -20.291   1.989  1.00  0.00     0.066 A 
HETATM   17  C   UNL     1      44.205 -21.223   2.370  1.00  0.00     0.067 A 
HETATM   18  C   UNL     1      44.949 -21.055   3.531  1.00  0.00     0.036 A 
HETATM   19  C   UNL     1      44.731 -19.934   4.327  1.00  0.00     0.005 A 
HETATM   20  C   UNL     1      43.775 -18.988   3.950  1.00  0.00     0.029 A 
BRANCH  17  21
HETATM   21  O   UNL     1      44.458 -22.329   1.611  1.00  0.00    -0.361 OA
HETATM   22  H   UNL     1      44.572 -23.090   2.206  1.00  0.00     0.217 HD
ENDBRANCH  17  21
ENDBRANCH  12  15
ENDBRANCH   7  11
BRANCH   1  23
HETATM   23  C   UNL     1      41.821 -12.435  -0.936  1.00  0.00    -0.033 A 
HETATM   24  C   UNL     1      41.731 -13.625  -1.681  1.00  0.00     0.046 A 
HETATM   25  C   UNL     1      41.687 -13.616  -3.080  1.00  0.00     0.068 A 
HETATM   26  C   UNL     1      41.757 -12.402  -3.757  1.00  0.00     0.037 A 
HETATM   27  C   UNL     1      41.855 -11.209  -3.040  1.00  0.00     0.003 A 
HETATM   28  C   UNL     1      41.879 -11.225  -1.644  1.00  0.00     0.009 A 
BRANCH  25  29
HETATM   29  O   UNL     1      41.575 -14.851  -3.655  1.00  0.00    -0.356 OA
HETATM   30  C   UNL     1      40.528 -15.687  -3.175  1.00  0.00     0.210 C 
ENDBRANCH  25  29
ENDBRANCH   1  23
BRANCH   8  31
HETATM   31  C   UNL     1      38.478 -12.977   0.136  1.00  0.00     0.409 C 
HETATM   32  F   UNL     1      38.749 -13.950  -0.752  1.00  0.00    -0.169 F 
HETATM   33  F   UNL     1      37.171 -13.084   0.469  1.00  0.00    -0.169 F 
HETATM   34  F   UNL     1      38.601 -11.794  -0.520  1.00  0.00    -0.169 F 
ENDBRANCH   8  31
TORSDOF 6
ENDMDL
MODEL 5
REMARK VINA RESULT:      -8.2      1.443      2.124
REMARK  6 active torsions:
REMARK  status: ('A' for Active; 'I' for Inactive)
REMARK    1  A    between atoms: O_2  and  C_3 
REMARK    2  A    between atoms: C_5  and  C_6 
REMARK    3  A    between atoms: C_12  and  C_13 
REMARK       I    between atoms: C_13  and  N_14 
REMARK    4  A    between atoms: N_14  and  C_15 
REMARK    5  A    between atoms: C_17  and  O_18 
REMARK    6  A    between atoms: C_23  and  C_24 
ROOT
HETATM    1  C   UNL     1      41.416 -17.764   5.203  1.00  0.00     0.118 C 
HETATM    2  N   UNL     1      40.659 -16.827   4.369  1.00  0.00    -0.365 N 
HETATM    3  C   UNL     1      40.897 -15.489   4.428  1.00  0.00     0.138 A 
HETATM    4  N   UNL     1      41.697 -14.944   5.401  1.00  0.00    -0.240 N 
HETATM    5  N   UNL     1      41.805 -13.609   5.323  1.00  0.00    -0.181 NA
HETATM    6  C   UNL     1      41.122 -13.307   4.215  1.00  0.00     0.160 A 
HETATM    7  C   UNL     1      40.501 -14.434   3.626  1.00  0.00     0.096 A 
HETATM    8  C   UNL     1      42.376 -15.697   6.437  1.00  0.00     0.221 C 
HETATM    9  C   UNL     1      41.797 -17.119   6.545  1.00  0.00     0.066 C 
HETATM   10  H   UNL     1      40.391 -17.243   3.475  1.00  0.00     0.161 HD
ENDROOT
BRANCH   7  11
HETATM   11  C   UNL     1      39.670 -14.461   2.435  1.00  0.00     0.261 C 
HETATM   12  N   UNL     1      39.690 -13.267   1.739  1.00  0.00    -0.323 N 
HETATM   13  H   UNL     1      40.405 -12.609   2.031  1.00  0.00     0.169 HD
HETATM   14  O   UNL     1      39.058 -15.472   2.115  1.00  0.00    -0.267 OA
BRANCH  12  15
HETATM   15  C   UNL     1      38.884 -12.885   0.651  1.00  0.00     0.037 A 
HETATM   16  C   UNL     1      39.167 -13.217  -0.676  1.00  0.00     0.066 A 
HETATM   17  C   UNL     1      38.286 -12.834  -1.686  1.00  0.00     0.067 A 
HETATM   18  C   UNL     1      37.130 -12.118  -1.400  1.00  0.00     0.036 A 
HETATM   19  C   UNL     1      36.844 -11.780  -0.080  1.00  0.00     0.005 A 
HETATM   20  C   UNL     1      37.715 -12.167   0.942  1.00  0.00     0.029 A 
BRANCH  17  21
HETATM   21  O   UNL     1      38.522 -13.157  -2.991  1.00  0.00    -0.361 OA
HETATM   22  H   UNL     1      39.075 -12.460  -3.385  1.00  0.00     0.217 HD
ENDBRANCH  17  21
ENDBRANCH  12  15
ENDBRANCH   7  11
BRANCH   1  23
HETATM   23  C   UNL     1      42.546 -18.437   4.447  1.00  0.00    -0.033 A 
HETATM   24  C   UNL     1      43.372 -19.349   5.130  1.00  0.00     0.046 A 
HETATM   25  C   UNL     1      44.400 -20.041   4.480  1.00  0.00     0.068 A 
HETATM   26  C   UNL     1      44.629 -19.808   3.126  1.00  0.00     0.037 A 
HETATM   27  C   UNL     1      43.828 -18.903   2.430  1.00  0.00     0.003 A 
HETATM   28  C   UNL     1      42.793 -18.230   3.081  1.00  0.00     0.009 A 
BRANCH  25  29
HETATM   29  O   UNL     1      45.096 -20.907   5.275  1.00  0.00    -0.356 OA
HETATM   30  C   UNL     1      45.008 -22.288   4.946  1.00  0.00     0.210 C 
ENDBRANCH  25  29
ENDBRANCH   1  23
BRANCH   8  31
HETATM   31  C   UNL     1      43.875 -15.664   6.228  1.00  0.00     0.409 C 
HETATM   32  F   UNL     1      44.482 -14.614   6.808  1.00  0.00    -0.169 F 
HETATM   33  F   UNL     1      44.479 -16.786   6.683  1.00  0.00    -0.169 F 
HETATM   34  F   UNL     1      44.156 -15.602   4.899  1.00  0.00    -0.169 F 
ENDBRANCH   8  31
TORSDOF 6
ENDMDL
MODEL 6
REMARK VINA RESULT:      -8.1      3.869      7.961
REMARK  6 active torsions:
REMARK  status: ('A' for Active; 'I' for Inactive)
REMARK    1  A    between atoms: O_2  and  C_3 
REMARK    2  A    between atoms: C_5  and  C_6 
REMARK    3  A    between atoms: C_12  and  C_13 
REMARK       I    between atoms: C_13  and  N_14 
REMARK    4  A    between atoms: N_14  and  C_15 
REMARK    5  A    between atoms: C_17  and  O_18 
REMARK    6  A    between atoms: C_23  and  C_24 
ROOT
HETATM    1  C   UNL     1      41.917 -12.382   0.923  1.00  0.00     0.118 C 
HETATM    2  N   UNL     1      42.250 -13.731   1.390  1.00  0.00    -0.365 N 
HETATM    3  C   UNL     1      41.273 -14.648   1.626  1.00  0.00     0.138 A 
HETATM    4  N   UNL     1      39.947 -14.299   1.638  1.00  0.00    -0.240 N 
HETATM    5  N   UNL     1      39.123 -15.324   1.909  1.00  0.00    -0.181 NA
HETATM    6  C   UNL     1      39.948 -16.372   1.986  1.00  0.00     0.160 A 
HETATM    7  C   UNL     1      41.310 -16.013   1.851  1.00  0.00     0.096 A 
HETATM    8  C   UNL     1      39.436 -12.965   1.393  1.00  0.00     0.221 C 
HETATM    9  C   UNL     1      40.565 -11.923   1.491  1.00  0.00     0.066 C 
HETATM   10  H   UNL     1      43.150 -14.049   1.026  1.00  0.00     0.161 HD
ENDROOT
BRANCH   7  11
HETATM   11  C   UNL     1      42.464 -16.893   1.909  1.00  0.00     0.261 C 
HETATM   12  N   UNL     1      42.168 -18.133   2.444  1.00  0.00    -0.323 N 
HETATM   13  H   UNL     1      41.179 -18.331   2.550  1.00  0.00     0.169 HD
HETATM   14  O   UNL     1      43.555 -16.533   1.487  1.00  0.00    -0.267 OA
BRANCH  12  15
HETATM   15  C   UNL     1      43.062 -19.158   2.802  1.00  0.00     0.037 A 
HETATM   16  C   UNL     1      43.305 -20.284   2.011  1.00  0.00     0.066 A 
HETATM   17  C   UNL     1      44.244 -21.228   2.424  1.00  0.00     0.067 A 
HETATM   18  C   UNL     1      44.941 -21.076   3.616  1.00  0.00     0.036 A 
HETATM   19  C   UNL     1      44.701 -19.958   4.411  1.00  0.00     0.005 A 
HETATM   20  C   UNL     1      43.770 -19.000   4.002  1.00  0.00     0.029 A 
BRANCH  17  21
HETATM   21  O   UNL     1      44.517 -22.331   1.668  1.00  0.00    -0.361 OA
HETATM   22  H   UNL     1      45.378 -22.200   1.234  1.00  0.00     0.217 HD
ENDBRANCH  17  21
ENDBRANCH  12  15
ENDBRANCH   7  11
BRANCH   1  23
HETATM   23  C   UNL     1      42.096 -12.221  -0.574  1.00  0.00    -0.033 A 
HETATM   24  C   UNL     1      42.327 -10.936  -1.097  1.00  0.00     0.046 A 
HETATM   25  C   UNL     1      42.549 -10.725  -2.462  1.00  0.00     0.068 A 
HETATM   26  C   UNL     1      42.520 -11.810  -3.334  1.00  0.00     0.037 A 
HETATM   27  C   UNL     1      42.285 -13.093  -2.840  1.00  0.00     0.003 A 
HETATM   28  C   UNL     1      42.082 -13.298  -1.474  1.00  0.00     0.009 A 
BRANCH  25  29
HETATM   29  O   UNL     1      42.782  -9.423  -2.808  1.00  0.00    -0.356 OA
HETATM   30  C   UNL     1      43.294  -8.573  -1.788  1.00  0.00     0.210 C 
ENDBRANCH  25  29
ENDBRANCH   1  23
BRANCH   8  31
HETATM   31  C   UNL     1      38.674 -12.915   0.085  1.00  0.00     0.409 C 
HETATM   32  F   UNL     1      38.809 -11.753  -0.578  1.00  0.00    -0.169 F 
HETATM   33  F   UNL     1      39.039 -13.908  -0.757  1.00  0.00    -0.169 F 
HETATM   34  F   UNL     1      37.346 -13.089   0.316  1.00  0.00    -0.169 F 
ENDBRANCH   8  31
TORSDOF 6
ENDMDL
MODEL 7
REMARK VINA RESULT:      -7.9      1.707      2.241
REMARK  6 active torsions:
REMARK  status: ('A' for Active; 'I' for Inactive)
REMARK    1  A    between atoms: O_2  and  C_3 
REMARK    2  A    between atoms: C_5  and  C_6 
REMARK    3  A    between atoms: C_12  and  C_13 
REMARK       I    between atoms: C_13  and  N_14 
REMARK    4  A    between atoms: N_14  and  C_15 
REMARK    5  A    between atoms: C_17  and  O_18 
REMARK    6  A    between atoms: C_23  and  C_24 
ROOT
HETATM    1  C   UNL     1      41.486 -17.732   5.480  1.00  0.00     0.118 C 
HETATM    2  N   UNL     1      40.767 -16.771   4.639  1.00  0.00    -0.365 N 
HETATM    3  C   UNL     1      41.054 -15.442   4.697  1.00  0.00     0.138 A 
HETATM    4  N   UNL     1      41.866 -14.924   5.673  1.00  0.00    -0.240 N 
HETATM    5  N   UNL     1      42.023 -13.594   5.593  1.00  0.00    -0.181 NA
HETATM    6  C   UNL     1      41.358 -13.270   4.480  1.00  0.00     0.160 A 
HETATM    7  C   UNL     1      40.701 -14.376   3.889  1.00  0.00     0.096 A 
HETATM    8  C   UNL     1      42.511 -15.698   6.716  1.00  0.00     0.221 C 
HETATM    9  C   UNL     1      41.881 -17.099   6.822  1.00  0.00     0.066 C 
HETATM   10  H   UNL     1      40.491 -17.179   3.744  1.00  0.00     0.161 HD
ENDROOT
BRANCH   7  11
HETATM   11  C   UNL     1      39.876 -14.375   2.694  1.00  0.00     0.261 C 
HETATM   12  N   UNL     1      39.614 -13.103   2.222  1.00  0.00    -0.323 N 
HETATM   13  H   UNL     1      40.167 -12.364   2.644  1.00  0.00     0.169 HD
HETATM   14  O   UNL     1      39.504 -15.424   2.183  1.00  0.00    -0.267 OA
BRANCH  12  15
HETATM   15  C   UNL     1      38.723 -12.724   1.201  1.00  0.00     0.037 A 
HETATM   16  C   UNL     1      37.406 -12.320   1.433  1.00  0.00     0.066 A 
HETATM   17  C   UNL     1      36.609 -11.918   0.363  1.00  0.00     0.067 A 
HETATM   18  C   UNL     1      37.098 -11.917  -0.938  1.00  0.00     0.036 A 
HETATM   19  C   UNL     1      38.408 -12.322  -1.176  1.00  0.00     0.005 A 
HETATM   20  C   UNL     1      39.219 -12.718  -0.110  1.00  0.00     0.029 A 
BRANCH  17  21
HETATM   21  O   UNL     1      35.324 -11.501   0.556  1.00  0.00    -0.361 OA
HETATM   22  H   UNL     1      34.737 -12.053   0.011  1.00  0.00     0.217 HD
ENDBRANCH  17  21
ENDBRANCH  12  15
ENDBRANCH   7  11
BRANCH   1  23
HETATM   23  C   UNL     1      42.595 -18.447   4.732  1.00  0.00    -0.033 A 
HETATM   24  C   UNL     1      42.754 -18.204   3.356  1.00  0.00     0.046 A 
HETATM   25  C   UNL     1      43.788 -18.792   2.618  1.00  0.00     0.068 A 
HETATM   26  C   UNL     1      44.671 -19.659   3.254  1.00  0.00     0.037 A 
HETATM   27  C   UNL     1      44.529 -19.922   4.617  1.00  0.00     0.003 A 
HETATM   28  C   UNL     1      43.507 -19.317   5.350  1.00  0.00     0.009 A 
BRANCH  25  29
HETATM   29  O   UNL     1      43.821 -18.436   1.298  1.00  0.00    -0.356 OA
HETATM   30  C   UNL     1      43.031 -17.315   0.919  1.00  0.00     0.210 C 
ENDBRANCH  25  29
ENDBRANCH   1  23
BRANCH   8  31
HETATM   31  C   UNL     1      44.012 -15.720   6.515  1.00  0.00     0.409 C 
HETATM   32  F   UNL     1      44.647 -14.662   7.050  1.00  0.00    -0.169 F 
HETATM   33  F   UNL     1      44.580 -16.836   7.027  1.00  0.00    -0.169 F 
HETATM   34  F   UNL     1      44.302 -15.729   5.188  1.00  0.00    -0.169 F 
ENDBRANCH   8  31
TORSDOF 6
ENDMDL
MODEL 8
REMARK VINA RESULT:      -7.8      3.368      7.424
REMARK  6 active torsions:
REMARK  status: ('A' for Active; 'I' for Inactive)
REMARK    1  A    between atoms: O_2  and  C_3 
REMARK    2  A    between atoms: C_5  and  C_6 
REMARK    3  A    between atoms: C_12  and  C_13 
REMARK       I    between atoms: C_13  and  N_14 
REMARK    4  A    between atoms: N_14  and  C_15 
REMARK    5  A    between atoms: C_17  and  O_18 
REMARK    6  A    between atoms: C_23  and  C_24 
ROOT
HETATM    1  C   UNL     1      39.483 -14.067   3.831  1.00  0.00     0.118 C 
HETATM    2  N   UNL     1      40.168 -15.340   3.594  1.00  0.00    -0.365 N 
HETATM    3  C   UNL     1      40.975 -15.508   2.511  1.00  0.00     0.138 A 
HETATM    4  N   UNL     1      41.022 -14.583   1.499  1.00  0.00    -0.240 N 
HETATM    5  N   UNL     1      41.853 -14.918   0.501  1.00  0.00    -0.181 NA
HETATM    6  C   UNL     1      42.416 -16.050   0.934  1.00  0.00     0.160 A 
HETATM    7  C   UNL     1      41.887 -16.491   2.170  1.00  0.00     0.096 A 
HETATM    8  C   UNL     1      40.260 -13.350   1.464  1.00  0.00     0.221 C 
HETATM    9  C   UNL     1      39.124 -13.382   2.503  1.00  0.00     0.066 C 
HETATM   10  H   UNL     1      40.408 -15.812   4.468  1.00  0.00     0.161 HD
ENDROOT
BRANCH   7  11
HETATM   11  C   UNL     1      42.252 -17.687   2.909  1.00  0.00     0.261 C 
HETATM   12  N   UNL     1      43.253 -18.414   2.293  1.00  0.00    -0.323 N 
HETATM   13  H   UNL     1      43.722 -17.941   1.529  1.00  0.00     0.169 HD
HETATM   14  O   UNL     1      41.715 -17.958   3.976  1.00  0.00    -0.267 OA
BRANCH  12  15
HETATM   15  C   UNL     1      43.728 -19.694   2.634  1.00  0.00     0.037 A 
HETATM   16  C   UNL     1      44.315 -20.000   3.864  1.00  0.00     0.066 A 
HETATM   17  C   UNL     1      44.716 -21.308   4.131  1.00  0.00     0.067 A 
HETATM   18  C   UNL     1      44.551 -22.317   3.191  1.00  0.00     0.036 A 
HETATM   19  C   UNL     1      43.970 -22.019   1.961  1.00  0.00     0.005 A 
HETATM   20  C   UNL     1      43.555 -20.714   1.686  1.00  0.00     0.029 A 
BRANCH  17  21
HETATM   21  O   UNL     1      45.277 -21.645   5.329  1.00  0.00    -0.361 OA
HETATM   22  H   UNL     1      46.077 -22.170   5.156  1.00  0.00     0.217 HD
ENDBRANCH  17  21
ENDBRANCH  12  15
ENDBRANCH   7  11
BRANCH   1  23
HETATM   23  C   UNL     1      40.195 -13.200   4.851  1.00  0.00    -0.033 A 
HETATM   24  C   UNL     1      39.442 -12.289   5.613  1.00  0.00     0.046 A 
HETATM   25  C   UNL     1      40.029 -11.496   6.606  1.00  0.00     0.068 A 
HETATM   26  C   UNL     1      41.399 -11.593   6.834  1.00  0.00     0.037 A 
HETATM   27  C   UNL     1      42.168 -12.484   6.085  1.00  0.00     0.003 A 
HETATM   28  C   UNL     1      41.572 -13.285   5.110  1.00  0.00     0.009 A 
BRANCH  25  29
HETATM   29  O   UNL     1      39.159 -10.680   7.273  1.00  0.00    -0.356 OA
HETATM   30  C   UNL     1      39.180 -10.749   8.694  1.00  0.00     0.210 C 
ENDBRANCH  25  29
ENDBRANCH   1  23
BRANCH   8  31
HETATM   31  C   UNL     1      41.175 -12.151   1.601  1.00  0.00     0.409 C 
HETATM   32  F   UNL     1      42.351 -12.430   2.192  1.00  0.00    -0.169 F 
HETATM   33  F   UNL     1      41.447 -11.576   0.408  1.00  0.00    -0.169 F 
HETATM   34  F   UNL     1      40.572 -11.191   2.350  1.00  0.00    -0.169 F 
ENDBRANCH   8  31
TORSDOF 6
ENDMDL
MODEL 9
REMARK VINA RESULT:      -7.6      4.485      7.905
REMARK  6 active torsions:
REMARK  status: ('A' for Active; 'I' for Inactive)
REMARK    1  A    between atoms: O_2  and  C_3 
REMARK    2  A    between atoms: C_5  and  C_6 
REMARK    3  A    between atoms: C_12  and  C_13 
REMARK       I    between atoms: C_13  and  N_14 
REMARK    4  A    between atoms: N_14  and  C_15 
REMARK    5  A    between atoms: C_17  and  O_18 
REMARK    6  A    between atoms: C_23  and  C_24 
ROOT
HETATM    1  C   UNL     1      43.089 -13.705   3.270  1.00  0.00     0.118 C 
HETATM    2  N   UNL     1      42.825 -12.605   4.201  1.00  0.00    -0.365 N 
HETATM    3  C   UNL     1      41.555 -12.172   4.428  1.00  0.00     0.138 A 
HETATM    4  N   UNL     1      40.503 -12.595   3.656  1.00  0.00    -0.240 N 
HETATM    5  N   UNL     1      39.327 -12.051   4.004  1.00  0.00    -0.181 NA
HETATM    6  C   UNL     1      39.629 -11.326   5.085  1.00  0.00     0.160 A 
HETATM    7  C   UNL     1      41.013 -11.332   5.384  1.00  0.00     0.096 A 
HETATM    8  C   UNL     1      40.604 -13.534   2.556  1.00  0.00     0.221 C 
HETATM    9  C   UNL     1      42.070 -13.707   2.120  1.00  0.00     0.066 C 
HETATM   10  H   UNL     1      43.499 -12.585   4.969  1.00  0.00     0.161 HD
ENDROOT
BRANCH   7  11
HETATM   11  C   UNL     1      41.683 -10.635   6.467  1.00  0.00     0.261 C 
HETATM   12  N   UNL     1      42.220 -11.494   7.408  1.00  0.00    -0.323 N 
HETATM   13  H   UNL     1      42.242 -12.471   7.137  1.00  0.00     0.169 HD
HETATM   14  O   UNL     1      41.760  -9.413   6.480  1.00  0.00    -0.267 OA
BRANCH  12  15
HETATM   15  C   UNL     1      42.781 -11.170   8.657  1.00  0.00     0.037 A 
HETATM   16  C   UNL     1      42.111 -10.438   9.640  1.00  0.00     0.066 A 
HETATM   17  C   UNL     1      42.729 -10.203  10.867  1.00  0.00     0.067 A 
HETATM   18  C   UNL     1      44.009 -10.676  11.130  1.00  0.00     0.036 A 
HETATM   19  C   UNL     1      44.684 -11.402  10.153  1.00  0.00     0.005 A 
HETATM   20  C   UNL     1      44.070 -11.653   8.924  1.00  0.00     0.029 A 
BRANCH  17  21
HETATM   21  O   UNL     1      42.097  -9.508  11.857  1.00  0.00    -0.361 OA
HETATM   22  H   UNL     1      42.341  -8.569  11.777  1.00  0.00     0.217 HD
ENDBRANCH  17  21
ENDBRANCH  12  15
ENDBRANCH   7  11
BRANCH   1  23
HETATM   23  C   UNL     1      43.295 -15.032   3.976  1.00  0.00    -0.033 A 
HETATM   24  C   UNL     1      43.355 -15.051   5.382  1.00  0.00     0.046 A 
HETATM   25  C   UNL     1      43.493 -16.246   6.096  1.00  0.00     0.068 A 
HETATM   26  C   UNL     1      43.596 -17.448   5.401  1.00  0.00     0.037 A 
HETATM   27  C   UNL     1      43.546 -17.453   4.007  1.00  0.00     0.003 A 
HETATM   28  C   UNL     1      43.390 -16.259   3.302  1.00  0.00     0.009 A 
BRANCH  25  29
HETATM   29  O   UNL     1      43.512 -16.100   7.455  1.00  0.00    -0.356 OA
HETATM   30  C   UNL     1      43.364 -17.285   8.228  1.00  0.00     0.210 C 
ENDBRANCH  25  29
ENDBRANCH   1  23
BRANCH   8  31
HETATM   31  C   UNL     1      39.914 -14.838   2.900  1.00  0.00     0.409 C 
HETATM   32  F   UNL     1      39.950 -15.142   4.210  1.00  0.00    -0.169 F 
HETATM   33  F   UNL     1      38.617 -14.848   2.516  1.00  0.00    -0.169 F 
HETATM   34  F   UNL     1      40.508 -15.865   2.238  1.00  0.00    -0.169 F 
ENDBRANCH   8  31
TORSDOF 6
ENDMDL
MODEL 10
REMARK VINA RESULT:      -7.6      2.091      3.148
REMARK  6 active torsions:
REMARK  status: ('A' for Active; 'I' for Inactive)
REMARK    1  A    between atoms: O_2  and  C_3 
REMARK    2  A    between atoms: C_5  and  C_6 
REMARK    3  A    between atoms: C_12  and  C_13 
REMARK       I    between atoms: C_13  and  N_14 
REMARK    4  A    between atoms: N_14  and  C_15 
REMARK    5  A    between atoms: C_17  and  O_18 
REMARK    6  A    between atoms: C_23  and  C_24 
ROOT
HETATM    1  C   UNL     1      40.975 -16.882   4.301  1.00  0.00     0.118 C 
HETATM    2  N   UNL     1      40.120 -15.942   3.572  1.00  0.00    -0.365 N 
HETATM    3  C   UNL     1      40.295 -14.599   3.695  1.00  0.00     0.138 A 
HETATM    4  N   UNL     1      41.128 -14.067   4.647  1.00  0.00    -0.240 N 
HETATM    5  N   UNL     1      41.164 -12.725   4.641  1.00  0.00    -0.181 NA
HETATM    6  C   UNL     1      40.397 -12.399   3.597  1.00  0.00     0.160 A 
HETATM    7  C   UNL     1      39.796 -13.523   2.982  1.00  0.00     0.096 A 
HETATM    8  C   UNL     1      41.909 -14.838   5.594  1.00  0.00     0.221 C 
HETATM    9  C   UNL     1      41.410 -16.294   5.653  1.00  0.00     0.066 C 
HETATM   10  H   UNL     1      39.816 -16.321   2.673  1.00  0.00     0.161 HD
ENDROOT
BRANCH   7  11
HETATM   11  C   UNL     1      38.892 -13.528   1.845  1.00  0.00     0.261 C 
HETATM   12  N   UNL     1      38.587 -12.257   1.397  1.00  0.00    -0.323 N 
HETATM   13  H   UNL     1      39.160 -11.514   1.782  1.00  0.00     0.169 HD
HETATM   14  O   UNL     1      38.496 -14.579   1.358  1.00  0.00    -0.267 OA
BRANCH  12  15
HETATM   15  C   UNL     1      37.625 -11.884   0.440  1.00  0.00     0.037 A 
HETATM   16  C   UNL     1      36.333 -11.463   0.764  1.00  0.00     0.066 A 
HETATM   17  C   UNL     1      35.461 -11.068  -0.249  1.00  0.00     0.067 A 
HETATM   18  C   UNL     1      35.849 -11.093  -1.583  1.00  0.00     0.036 A 
HETATM   19  C   UNL     1      37.134 -11.516  -1.913  1.00  0.00     0.005 A 
HETATM   20  C   UNL     1      38.020 -11.904  -0.906  1.00  0.00     0.029 A 
BRANCH  17  21
HETATM   21  O   UNL     1      34.198 -10.634   0.034  1.00  0.00    -0.361 OA
HETATM   22  H   UNL     1      34.259  -9.746   0.426  1.00  0.00     0.217 HD
ENDBRANCH  17  21
ENDBRANCH  12  15
ENDBRANCH   7  11
BRANCH   1  23
HETATM   23  C   UNL     1      42.086 -17.451   3.439  1.00  0.00    -0.033 A 
HETATM   24  C   UNL     1      42.909 -18.460   3.970  1.00  0.00     0.046 A 
HETATM   25  C   UNL     1      43.920 -19.062   3.212  1.00  0.00     0.068 A 
HETATM   26  C   UNL     1      44.133 -18.639   1.903  1.00  0.00     0.037 A 
HETATM   27  C   UNL     1      43.335 -17.634   1.357  1.00  0.00     0.003 A 
HETATM   28  C   UNL     1      42.317 -17.051   2.114  1.00  0.00     0.009 A 
BRANCH  25  29
HETATM   29  O   UNL     1      44.615 -20.042   3.863  1.00  0.00    -0.356 OA
HETATM   30  C   UNL     1      44.562 -20.027   5.284  1.00  0.00     0.210 C 
ENDBRANCH  25  29
ENDBRANCH   1  23
BRANCH   8  31
HETATM   31  C   UNL     1      43.388 -14.715   5.294  1.00  0.00     0.409 C 
HETATM   32  F   UNL     1      44.114 -15.772   5.699  1.00  0.00    -0.169 F 
HETATM   33  F   UNL     1      43.630 -14.536   3.976  1.00  0.00    -0.169 F 
HETATM   34  F   UNL     1      43.897 -13.621   5.919  1.00  0.00    -0.169 F 
ENDBRANCH   8  31
TORSDOF 6
ENDMDL
