MODEL 1
REMARK VINA RESULT:      -8.5      0.000      0.000
REMARK  9 active torsions:
REMARK  status: ('A' for Active; 'I' for Inactive)
REMARK    1  A    between atoms: C_4  and  C_5 
REMARK    2  A    between atoms: C_8  and  C_9 
REMARK       I    between atoms: C_9  and  N_10 
REMARK    3  A    between atoms: N_10  and  C_26 
REMARK    4  A    between atoms: N_10  and  C_11 
REMARK    5  A    between atoms: C_11  and  C_12 
REMARK    6  A    between atoms: C_11  and  C_21 
REMARK       I    between atoms: C_12  and  N_13 
REMARK    7  A    between atoms: N_13  and  C_14 
REMARK    8  A    between atoms: C_14  and  C_15 
REMARK    9  A    between atoms: C_26  and  C_27 
ROOT
HETATM    1  C   UNL     1      43.493 -14.468   3.272  1.00  0.00     0.271 C 
HETATM    2  N   UNL     1      42.365 -13.877   3.865  1.00  0.00    -0.324 N 
HETATM    3  O   UNL     1      44.588 -13.905   3.328  1.00  0.00    -0.266 OA
ENDROOT
BRANCH   2   4
HETATM    4  C   UNL     1      42.572 -12.579   4.516  1.00  0.00     0.173 C 
BRANCH   4   5
HETATM    5  C   UNL     1      41.309 -12.036   5.110  1.00  0.00     0.000 A 
HETATM    6  S   UNL     1      40.419 -10.826   4.281  1.00  0.00    -0.105 SA
HETATM    7  C   UNL     1      39.184 -10.828   5.462  1.00  0.00     0.050 A 
HETATM    8  C   UNL     1      39.429 -11.741   6.462  1.00  0.00     0.008 A 
HETATM    9  C   UNL     1      40.654 -12.440   6.259  1.00  0.00     0.017 A 
ENDBRANCH   4   5
ENDBRANCH   2   4
BRANCH   2  10
HETATM   10  C   UNL     1      41.009 -14.468   3.868  1.00  0.00     0.220 C 
BRANCH  10  11
HETATM   11  C   UNL     1      40.992 -15.857   4.559  1.00  0.00     0.245 C 
HETATM   12  N   UNL     1      41.266 -15.958   5.896  1.00  0.00    -0.357 N 
HETATM   13  H   UNL     1      41.713 -15.176   6.360  1.00  0.00     0.162 HD
HETATM   14  O   UNL     1      40.611 -16.853   3.927  1.00  0.00    -0.271 OA
BRANCH  12  15
HETATM   15  C   UNL     1      41.322 -17.243   6.576  1.00  0.00     0.154 C 
BRANCH  15  16
HETATM   16  C   UNL     1      42.551 -17.355   7.488  1.00  0.00     0.139 C 
HETATM   17  O   UNL     1      43.201 -18.627   7.259  1.00  0.00    -0.384 OA
HETATM   18  C   UNL     1      44.612 -18.391   7.229  1.00  0.00     0.168 C 
HETATM   19  C   UNL     1      44.765 -17.014   6.633  1.00  0.00     0.029 C 
HETATM   20  C   UNL     1      43.593 -16.269   7.232  1.00  0.00     0.035 C 
ENDBRANCH  15  16
ENDBRANCH  12  15
ENDBRANCH  10  11
BRANCH  10  21
HETATM   21  C   UNL     1      40.284 -14.274   2.544  1.00  0.00     0.014 A 
HETATM   22  S   UNL     1      40.807 -13.253   1.270  1.00  0.00    -0.104 SA
HETATM   23  C   UNL     1      39.475 -13.649   0.284  1.00  0.00     0.050 A 
HETATM   24  C   UNL     1      38.628 -14.541   0.899  1.00  0.00     0.008 A 
HETATM   25  C   UNL     1      39.093 -14.898   2.196  1.00  0.00     0.017 A 
ENDBRANCH  10  21
ENDBRANCH   2  10
BRANCH   1  26
HETATM   26  C   UNL     1      43.405 -15.788   2.669  1.00  0.00     0.101 C 
HETATM   27  N   UNL     1      43.565 -17.010   3.285  1.00  0.00    -0.351 N 
HETATM   28  C   UNL     1      43.547 -18.042   2.366  1.00  0.00     0.043 C 
HETATM   29  H   UNL     1      43.759 -17.127   4.275  1.00  0.00     0.166 HD
HETATM   30  C   UNL     1      43.125 -17.470   1.177  1.00  0.00     0.033 C 
HETATM   31  C   UNL     1      43.017 -16.074   1.371  1.00  0.00     0.037 C 
BRANCH  28  32
HETATM   32  C   UNL     1      43.921 -19.430   2.682  1.00  0.00    -0.009 A 
HETATM   33  C   UNL     1      43.692 -20.484   1.786  1.00  0.00     0.013 A 
HETATM   34  C   UNL     1      44.014 -21.802   2.129  1.00  0.00     0.001 A 
HETATM   35  C   UNL     1      44.574 -22.087   3.371  1.00  0.00     0.000 A 
HETATM   36  C   UNL     1      44.815 -21.055   4.271  1.00  0.00     0.001 A 
HETATM   37  C   UNL     1      44.491 -19.739   3.927  1.00  0.00     0.013 A 
ENDBRANCH  28  32
ENDBRANCH   1  26
TORSDOF 9
ENDMDL
MODEL 2
REMARK VINA RESULT:      -8.4      1.906      3.583
REMARK  9 active torsions:
REMARK  status: ('A' for Active; 'I' for Inactive)
REMARK    1  A    between atoms: C_4  and  C_5 
REMARK    2  A    between atoms: C_8  and  C_9 
REMARK       I    between atoms: C_9  and  N_10 
REMARK    3  A    between atoms: N_10  and  C_26 
REMARK    4  A    between atoms: N_10  and  C_11 
REMARK    5  A    between atoms: C_11  and  C_12 
REMARK    6  A    between atoms: C_11  and  C_21 
REMARK       I    between atoms: C_12  and  N_13 
REMARK    7  A    between atoms: N_13  and  C_14 
REMARK    8  A    between atoms: C_14  and  C_15 
REMARK    9  A    between atoms: C_26  and  C_27 
ROOT
HETATM    1  C   UNL     1      40.512 -15.893   2.014  1.00  0.00     0.271 C 
HETATM    2  N   UNL     1      40.689 -14.500   2.050  1.00  0.00    -0.324 N 
HETATM    3  O   UNL     1      39.381 -16.376   2.105  1.00  0.00    -0.266 OA
ENDROOT
BRANCH   2   4
HETATM    4  C   UNL     1      39.477 -13.691   2.218  1.00  0.00     0.173 C 
BRANCH   4   5
HETATM    5  C   UNL     1      38.812 -13.390   0.910  1.00  0.00     0.000 A 
HETATM    6  S   UNL     1      37.821 -11.998   0.749  1.00  0.00    -0.105 SA
HETATM    7  C   UNL     1      37.554 -12.298  -0.912  1.00  0.00     0.050 A 
HETATM    8  C   UNL     1      38.216 -13.423  -1.347  1.00  0.00     0.008 A 
HETATM    9  C   UNL     1      38.944 -14.053  -0.296  1.00  0.00     0.017 A 
ENDBRANCH   4   5
ENDBRANCH   2   4
BRANCH   2  10
HETATM   10  C   UNL     1      41.994 -13.814   1.938  1.00  0.00     0.220 C 
BRANCH  10  11
HETATM   11  C   UNL     1      42.749 -13.797   3.293  1.00  0.00     0.245 C 
HETATM   12  N   UNL     1      42.127 -14.246   4.427  1.00  0.00    -0.357 N 
HETATM   13  H   UNL     1      41.119 -14.348   4.419  1.00  0.00     0.162 HD
HETATM   14  O   UNL     1      43.951 -13.493   3.324  1.00  0.00    -0.271 OA
BRANCH  12  15
HETATM   15  C   UNL     1      42.770 -14.194   5.731  1.00  0.00     0.154 C 
BRANCH  15  16
HETATM   16  C   UNL     1      43.488 -15.508   6.068  1.00  0.00     0.139 C 
HETATM   17  O   UNL     1      43.717 -15.575   7.495  1.00  0.00    -0.384 OA
HETATM   18  C   UNL     1      43.419 -16.909   7.918  1.00  0.00     0.168 C 
HETATM   19  C   UNL     1      42.301 -17.363   7.013  1.00  0.00     0.029 C 
HETATM   20  C   UNL     1      42.685 -16.749   5.687  1.00  0.00     0.035 C 
ENDBRANCH  15  16
ENDBRANCH  12  15
ENDBRANCH  10  11
BRANCH  10  21
HETATM   21  C   UNL     1      41.918 -12.546   1.100  1.00  0.00     0.014 A 
HETATM   22  S   UNL     1      41.501 -10.993   1.691  1.00  0.00    -0.104 SA
HETATM   23  C   UNL     1      41.666 -10.265   0.159  1.00  0.00     0.050 A 
HETATM   24  C   UNL     1      42.028 -11.176  -0.805  1.00  0.00     0.008 A 
HETATM   25  C   UNL     1      42.171 -12.484  -0.265  1.00  0.00     0.017 A 
ENDBRANCH  10  21
ENDBRANCH   2  10
BRANCH   1  26
HETATM   26  C   UNL     1      41.642 -16.776   1.776  1.00  0.00     0.101 C 
HETATM   27  N   UNL     1      41.862 -18.028   2.308  1.00  0.00    -0.351 N 
HETATM   28  C   UNL     1      43.109 -18.509   1.961  1.00  0.00     0.043 C 
HETATM   29  H   UNL     1      41.224 -18.495   2.945  1.00  0.00     0.166 HD
HETATM   30  C   UNL     1      43.583 -17.641   0.991  1.00  0.00     0.033 C 
HETATM   31  C   UNL     1      42.662 -16.577   0.861  1.00  0.00     0.037 C 
BRANCH  28  32
HETATM   32  C   UNL     1      43.725 -19.704   2.559  1.00  0.00    -0.009 A 
HETATM   33  C   UNL     1      43.753 -20.939   1.895  1.00  0.00     0.013 A 
HETATM   34  C   UNL     1      44.302 -22.073   2.505  1.00  0.00     0.001 A 
HETATM   35  C   UNL     1      44.836 -21.989   3.787  1.00  0.00     0.000 A 
HETATM   36  C   UNL     1      44.825 -20.773   4.460  1.00  0.00     0.001 A 
HETATM   37  C   UNL     1      44.274 -19.642   3.850  1.00  0.00     0.013 A 
ENDBRANCH  28  32
ENDBRANCH   1  26
TORSDOF 9
ENDMDL
MODEL 3
REMARK VINA RESULT:      -8.4      1.867      2.735
REMARK  9 active torsions:
REMARK  status: ('A' for Active; 'I' for Inactive)
REMARK    1  A    between atoms: C_4  and  C_5 
REMARK    2  A    between atoms: C_8  and  C_9 
REMARK       I    between atoms: C_9  and  N_10 
REMARK    3  A    between atoms: N_10  and  C_26 
REMARK    4  A    between atoms: N_10  and  C_11 
REMARK    5  A    between atoms: C_11  and  C_12 
REMARK    6  A    between atoms: C_11  and  C_21 
REMARK       I    between atoms: C_12  and  N_13 
REMARK    7  A    between atoms: N_13  and  C_14 
REMARK    8  A    between atoms: C_14  and  C_15 
REMARK    9  A    between atoms: C_26  and  C_27 
ROOT
HETATM    1  C   UNL     1      40.566 -16.089   2.046  1.00  0.00     0.271 C 
HETATM    2  N   UNL     1      40.736 -14.696   2.100  1.00  0.00    -0.324 N 
HETATM    3  O   UNL     1      39.439 -16.580   2.129  1.00  0.00    -0.266 OA
ENDROOT
BRANCH   2   4
HETATM    4  C   UNL     1      39.519 -13.895   2.276  1.00  0.00     0.173 C 
BRANCH   4   5
HETATM    5  C   UNL     1      39.454 -13.255   3.628  1.00  0.00     0.000 A 
HETATM    6  S   UNL     1      39.090 -11.584   3.771  1.00  0.00    -0.105 SA
HETATM    7  C   UNL     1      39.107 -11.657   5.479  1.00  0.00     0.050 A 
HETATM    8  C   UNL     1      39.366 -12.928   5.938  1.00  0.00     0.008 A 
HETATM    9  C   UNL     1      39.564 -13.851   4.871  1.00  0.00     0.017 A 
ENDBRANCH   4   5
ENDBRANCH   2   4
BRANCH   2  10
HETATM   10  C   UNL     1      42.038 -14.002   1.999  1.00  0.00     0.220 C 
BRANCH  10  11
HETATM   11  C   UNL     1      42.658 -13.745   3.397  1.00  0.00     0.245 C 
HETATM   12  N   UNL     1      43.171 -14.789   4.120  1.00  0.00    -0.357 N 
HETATM   13  H   UNL     1      42.920 -15.733   3.852  1.00  0.00     0.162 HD
HETATM   14  O   UNL     1      42.801 -12.582   3.803  1.00  0.00    -0.271 OA
BRANCH  12  15
HETATM   15  C   UNL     1      43.708 -14.609   5.459  1.00  0.00     0.154 C 
BRANCH  15  16
HETATM   16  C   UNL     1      44.033 -15.950   6.131  1.00  0.00     0.139 C 
HETATM   17  O   UNL     1      43.951 -15.797   7.567  1.00  0.00    -0.384 OA
HETATM   18  C   UNL     1      43.284 -16.952   8.087  1.00  0.00     0.168 C 
HETATM   19  C   UNL     1      42.296 -17.345   7.017  1.00  0.00     0.029 C 
HETATM   20  C   UNL     1      43.065 -17.067   5.746  1.00  0.00     0.035 C 
ENDBRANCH  15  16
ENDBRANCH  12  15
ENDBRANCH  10  11
BRANCH  10  21
HETATM   21  C   UNL     1      42.027 -12.889   0.961  1.00  0.00     0.014 A 
HETATM   22  S   UNL     1      42.045 -13.119  -0.737  1.00  0.00    -0.104 SA
HETATM   23  C   UNL     1      42.019 -11.445  -1.056  1.00  0.00     0.050 A 
HETATM   24  C   UNL     1      42.003 -10.703   0.101  1.00  0.00     0.008 A 
HETATM   25  C   UNL     1      42.008 -11.531   1.257  1.00  0.00     0.017 A 
ENDBRANCH  10  21
ENDBRANCH   2  10
BRANCH   1  26
HETATM   26  C   UNL     1      41.702 -16.963   1.800  1.00  0.00     0.101 C 
HETATM   27  N   UNL     1      41.923 -18.225   2.308  1.00  0.00    -0.351 N 
HETATM   28  C   UNL     1      43.175 -18.694   1.962  1.00  0.00     0.043 C 
HETATM   29  H   UNL     1      41.281 -18.707   2.931  1.00  0.00     0.166 HD
HETATM   30  C   UNL     1      43.653 -17.804   1.013  1.00  0.00     0.033 C 
HETATM   31  C   UNL     1      42.729 -16.741   0.897  1.00  0.00     0.037 C 
BRANCH  28  32
HETATM   32  C   UNL     1      43.790 -19.898   2.541  1.00  0.00    -0.009 A 
HETATM   33  C   UNL     1      43.810 -21.125   1.861  1.00  0.00     0.013 A 
HETATM   34  C   UNL     1      44.360 -22.268   2.453  1.00  0.00     0.001 A 
HETATM   35  C   UNL     1      44.903 -22.202   3.733  1.00  0.00     0.000 A 
HETATM   36  C   UNL     1      44.900 -20.994   4.421  1.00  0.00     0.001 A 
HETATM   37  C   UNL     1      44.348 -19.853   3.829  1.00  0.00     0.013 A 
ENDBRANCH  28  32
ENDBRANCH   1  26
TORSDOF 9
ENDMDL
MODEL 4
REMARK VINA RESULT:      -8.2      3.785      8.120
REMARK  9 active torsions:
REMARK  status: ('A' for Active; 'I' for Inactive)
REMARK    1  A    between atoms: C_4  and  C_5 
REMARK    2  A    between atoms: C_8  and  C_9 
REMARK       I    between atoms: C_9  and  N_10 
REMARK    3  A    between atoms: N_10  and  C_26 
REMARK    4  A    between atoms: N_10  and  C_11 
REMARK    5  A    between atoms: C_11  and  C_12 
REMARK    6  A    between atoms: C_11  and  C_21 
REMARK       I    between atoms: C_12  and  N_13 
REMARK    7  A    between atoms: N_13  and  C_14 
REMARK    8  A    between atoms: C_14  and  C_15 
REMARK    9  A    between atoms: C_26  and  C_27 
ROOT
HETATM    1  C   UNL     1      41.234 -12.132   5.032  1.00  0.00     0.271 C 
HETATM    2  N   UNL     1      42.194 -13.153   4.934  1.00  0.00    -0.324 N 
HETATM    3  O   UNL     1      40.908 -11.491   4.031  1.00  0.00    -0.266 OA
ENDROOT
BRANCH   2   4
HETATM    4  C   UNL     1      42.772 -13.381   3.605  1.00  0.00     0.173 C 
BRANCH   4   5
HETATM    5  C   UNL     1      42.015 -14.414   2.828  1.00  0.00     0.000 A 
HETATM    6  S   UNL     1      42.837 -15.770   2.171  1.00  0.00    -0.105 SA
HETATM    7  C   UNL     1      41.384 -16.451   1.582  1.00  0.00     0.050 A 
HETATM    8  C   UNL     1      40.290 -15.677   1.891  1.00  0.00     0.008 A 
HETATM    9  C   UNL     1      40.652 -14.502   2.611  1.00  0.00     0.017 A 
ENDBRANCH   4   5
ENDBRANCH   2   4
BRANCH   2  10
HETATM   10  C   UNL     1      42.650 -13.990   6.064  1.00  0.00     0.220 C 
BRANCH  10  11
HETATM   11  C   UNL     1      44.080 -13.601   6.523  1.00  0.00     0.245 C 
HETATM   12  N   UNL     1      44.315 -13.287   7.834  1.00  0.00    -0.357 N 
HETATM   13  H   UNL     1      43.524 -13.071   8.430  1.00  0.00     0.162 HD
HETATM   14  O   UNL     1      45.028 -13.695   5.729  1.00  0.00    -0.271 OA
BRANCH  12  15
HETATM   15  C   UNL     1      45.623 -12.858   8.302  1.00  0.00     0.154 C 
BRANCH  15  16
HETATM   16  C   UNL     1      45.532 -11.623   9.208  1.00  0.00     0.139 C 
HETATM   17  O   UNL     1      44.312 -10.904   8.914  1.00  0.00    -0.384 OA
HETATM   18  C   UNL     1      43.738 -10.499  10.161  1.00  0.00     0.168 C 
HETATM   19  C   UNL     1      44.100 -11.597  11.130  1.00  0.00     0.029 C 
HETATM   20  C   UNL     1      45.500 -11.967  10.695  1.00  0.00     0.035 C 
ENDBRANCH  15  16
ENDBRANCH  12  15
ENDBRANCH  10  11
BRANCH  10  21
HETATM   21  C   UNL     1      42.287 -15.458   5.888  1.00  0.00     0.014 A 
HETATM   22  S   UNL     1      43.410 -16.741   5.708  1.00  0.00    -0.104 SA
HETATM   23  C   UNL     1      42.183 -17.918   5.582  1.00  0.00     0.050 A 
HETATM   24  C   UNL     1      40.929 -17.362   5.668  1.00  0.00     0.008 A 
HETATM   25  C   UNL     1      40.989 -15.952   5.842  1.00  0.00     0.017 A 
ENDBRANCH  10  21
ENDBRANCH   2  10
BRANCH   1  26
HETATM   26  C   UNL     1      40.549 -11.879   6.289  1.00  0.00     0.101 C 
HETATM   27  N   UNL     1      40.824 -10.900   7.219  1.00  0.00    -0.351 N 
HETATM   28  C   UNL     1      40.050 -11.054   8.353  1.00  0.00     0.043 C 
HETATM   29  H   UNL     1      41.562 -10.210   7.117  1.00  0.00     0.166 HD
HETATM   30  C   UNL     1      39.100 -12.007   8.026  1.00  0.00     0.033 C 
HETATM   31  C   UNL     1      39.397 -12.504   6.737  1.00  0.00     0.037 C 
BRANCH  28  32
HETATM   32  C   UNL     1      40.272 -10.314   9.605  1.00  0.00    -0.009 A 
HETATM   33  C   UNL     1      40.205 -10.936  10.860  1.00  0.00     0.013 A 
HETATM   34  C   UNL     1      40.374 -10.201  12.039  1.00  0.00     0.001 A 
HETATM   35  C   UNL     1      40.616  -8.831  11.982  1.00  0.00     0.000 A 
HETATM   36  C   UNL     1      40.693  -8.196  10.748  1.00  0.00     0.001 A 
HETATM   37  C   UNL     1      40.522  -8.932   9.571  1.00  0.00     0.013 A 
ENDBRANCH  28  32
ENDBRANCH   1  26
TORSDOF 9
ENDMDL
MODEL 5
REMARK VINA RESULT:      -8.2      2.647      4.315
REMARK  9 active torsions:
REMARK  status: ('A' for Active; 'I' for Inactive)
REMARK    1  A    between atoms: C_4  and  C_5 
REMARK    2  A    between atoms: C_8  and  C_9 
REMARK       I    between atoms: C_9  and  N_10 
REMARK    3  A    between atoms: N_10  and  C_26 
REMARK    4  A    between atoms: N_10  and  C_11 
REMARK    5  A    between atoms: C_11  and  C_12 
REMARK    6  A    between atoms: C_11  and  C_21 
REMARK       I    between atoms: C_12  and  N_13 
REMARK    7  A    between atoms: N_13  and  C_14 
REMARK    8  A    between atoms: C_14  and  C_15 
REMARK    9  A    between atoms: C_26  and  C_27 
ROOT
HETATM    1  C   UNL     1      42.169 -14.098   2.906  1.00  0.00     0.271 C 
HETATM    2  N   UNL     1      41.704 -13.511   4.095  1.00  0.00    -0.324 N 
HETATM    3  O   UNL     1      42.799 -13.425   2.089  1.00  0.00    -0.266 OA
ENDROOT
BRANCH   2   4
HETATM    4  C   UNL     1      41.995 -12.085   4.278  1.00  0.00     0.173 C 
BRANCH   4   5
HETATM    5  C   UNL     1      40.929 -11.211   3.690  1.00  0.00     0.000 A 
HETATM    6  S   UNL     1      40.674  -9.632   4.311  1.00  0.00    -0.105 SA
HETATM    7  C   UNL     1      39.471  -9.294   3.144  1.00  0.00     0.050 A 
HETATM    8  C   UNL     1      39.275 -10.351   2.286  1.00  0.00     0.008 A 
HETATM    9  C   UNL     1      40.117 -11.457   2.599  1.00  0.00     0.017 A 
ENDBRANCH   4   5
ENDBRANCH   2   4
BRANCH   2  10
HETATM   10  C   UNL     1      40.951 -14.226   5.148  1.00  0.00     0.220 C 
BRANCH  10  11
HETATM   11  C   UNL     1      39.987 -13.277   5.906  1.00  0.00     0.245 C 
HETATM   12  N   UNL     1      40.440 -12.556   6.977  1.00  0.00    -0.357 N 
HETATM   13  H   UNL     1      41.313 -12.831   7.412  1.00  0.00     0.162 HD
HETATM   14  O   UNL     1      38.845 -13.079   5.465  1.00  0.00    -0.271 OA
BRANCH  12  15
HETATM   15  C   UNL     1      39.562 -11.698   7.757  1.00  0.00     0.154 C 
BRANCH  15  16
HETATM   16  C   UNL     1      40.330 -10.558   8.438  1.00  0.00     0.139 C 
HETATM   17  O   UNL     1      40.472 -10.852   9.847  1.00  0.00    -0.384 OA
HETATM   18  C   UNL     1      41.807 -10.504  10.228  1.00  0.00     0.168 C 
HETATM   19  C   UNL     1      42.647 -10.790   9.008  1.00  0.00     0.029 C 
HETATM   20  C   UNL     1      41.738 -10.362   7.880  1.00  0.00     0.035 C 
ENDBRANCH  15  16
ENDBRANCH  12  15
ENDBRANCH  10  11
BRANCH  10  21
HETATM   21  C   UNL     1      41.821 -15.200   5.929  1.00  0.00     0.014 A 
HETATM   22  S   UNL     1      43.458 -14.936   6.363  1.00  0.00    -0.104 SA
HETATM   23  C   UNL     1      43.587 -16.442   7.151  1.00  0.00     0.050 A 
HETATM   24  C   UNL     1      42.413 -17.154   7.092  1.00  0.00     0.008 A 
HETATM   25  C   UNL     1      41.401 -16.442   6.390  1.00  0.00     0.017 A 
ENDBRANCH  10  21
ENDBRANCH   2  10
BRANCH   1  26
HETATM   26  C   UNL     1      41.997 -15.522   2.668  1.00  0.00     0.101 C 
HETATM   27  N   UNL     1      42.785 -16.556   3.124  1.00  0.00    -0.351 N 
HETATM   28  C   UNL     1      42.392 -17.764   2.582  1.00  0.00     0.043 C 
HETATM   29  H   UNL     1      43.604 -16.430   3.712  1.00  0.00     0.166 HD
HETATM   30  C   UNL     1      41.178 -17.513   1.961  1.00  0.00     0.033 C 
HETATM   31  C   UNL     1      40.924 -16.125   2.033  1.00  0.00     0.037 C 
BRANCH  28  32
HETATM   32  C   UNL     1      43.172 -19.007   2.691  1.00  0.00    -0.009 A 
HETATM   33  C   UNL     1      43.052 -20.046   1.757  1.00  0.00     0.013 A 
HETATM   34  C   UNL     1      43.770 -21.237   1.908  1.00  0.00     0.001 A 
HETATM   35  C   UNL     1      44.624 -21.408   2.995  1.00  0.00     0.000 A 
HETATM   36  C   UNL     1      44.763 -20.387   3.928  1.00  0.00     0.001 A 
HETATM   37  C   UNL     1      44.043 -19.198   3.776  1.00  0.00     0.013 A 
ENDBRANCH  28  32
ENDBRANCH   1  26
TORSDOF 9
ENDMDL
MODEL 6
REMARK VINA RESULT:      -8.2      2.213      4.311
REMARK  9 active torsions:
REMARK  status: ('A' for Active; 'I' for Inactive)
REMARK    1  A    between atoms: C_4  and  C_5 
REMARK    2  A    between atoms: C_8  and  C_9 
REMARK       I    between atoms: C_9  and  N_10 
REMARK    3  A    between atoms: N_10  and  C_26 
REMARK    4  A    between atoms: N_10  and  C_11 
REMARK    5  A    between atoms: C_11  and  C_12 
REMARK    6  A    between atoms: C_11  and  C_21 
REMARK       I    between atoms: C_12  and  N_13 
REMARK    7  A    between atoms: N_13  and  C_14 
REMARK    8  A    between atoms: C_14  and  C_15 
REMARK    9  A    between atoms: C_26  and  C_27 
ROOT
HETATM    1  C   UNL     1      40.084 -15.388   1.670  1.00  0.00     0.271 C 
HETATM    2  N   UNL     1      40.381 -14.029   1.473  1.00  0.00    -0.324 N 
HETATM    3  O   UNL     1      38.913 -15.754   1.792  1.00  0.00    -0.266 OA
ENDROOT
BRANCH   2   4
HETATM    4  C   UNL     1      39.240 -13.107   1.443  1.00  0.00     0.173 C 
BRANCH   4   5
HETATM    5  C   UNL     1      38.666 -12.963   0.067  1.00  0.00     0.000 A 
HETATM    6  S   UNL     1      38.191 -11.417  -0.508  1.00  0.00    -0.105 SA
HETATM    7  C   UNL     1      37.777 -12.042  -2.045  1.00  0.00     0.050 A 
HETATM    8  C   UNL     1      38.010 -13.395  -2.131  1.00  0.00     0.008 A 
HETATM    9  C   UNL     1      38.524 -13.927  -0.913  1.00  0.00     0.017 A 
ENDBRANCH   4   5
ENDBRANCH   2   4
BRANCH   2  10
HETATM   10  C   UNL     1      41.744 -13.481   1.303  1.00  0.00     0.220 C 
BRANCH  10  11
HETATM   11  C   UNL     1      42.377 -13.091   2.664  1.00  0.00     0.245 C 
HETATM   12  N   UNL     1      41.598 -12.543   3.648  1.00  0.00    -0.357 N 
HETATM   13  H   UNL     1      40.688 -12.174   3.397  1.00  0.00     0.162 HD
HETATM   14  O   UNL     1      43.557 -13.388   2.902  1.00  0.00    -0.271 OA
BRANCH  12  15
HETATM   15  C   UNL     1      42.155 -12.106   4.919  1.00  0.00     0.154 C 
BRANCH  15  16
HETATM   16  C   UNL     1      42.035 -13.187   6.000  1.00  0.00     0.139 C 
HETATM   17  O   UNL     1      41.073 -14.181   5.578  1.00  0.00    -0.384 OA
HETATM   18  C   UNL     1      41.609 -15.467   5.905  1.00  0.00     0.168 C 
HETATM   19  C   UNL     1      43.101 -15.319   5.746  1.00  0.00     0.029 C 
HETATM   20  C   UNL     1      43.347 -13.922   6.266  1.00  0.00     0.035 C 
ENDBRANCH  15  16
ENDBRANCH  12  15
ENDBRANCH  10  11
BRANCH  10  21
HETATM   21  C   UNL     1      41.848 -12.528   0.121  1.00  0.00     0.014 A 
HETATM   22  S   UNL     1      41.873 -10.818   0.228  1.00  0.00    -0.104 SA
HETATM   23  C   UNL     1      41.998 -10.623  -1.461  1.00  0.00     0.050 A 
HETATM   24  C   UNL     1      42.015 -11.831  -2.116  1.00  0.00     0.008 A 
HETATM   25  C   UNL     1      41.928 -12.923  -1.209  1.00  0.00     0.017 A 
ENDBRANCH  10  21
ENDBRANCH   2  10
BRANCH   1  26
HETATM   26  C   UNL     1      41.139 -16.387   1.640  1.00  0.00     0.101 C 
HETATM   27  N   UNL     1      41.446 -17.321   2.606  1.00  0.00    -0.351 N 
HETATM   28  C   UNL     1      42.599 -18.012   2.288  1.00  0.00     0.043 C 
HETATM   29  H   UNL     1      40.937 -17.423   3.479  1.00  0.00     0.166 HD
HETATM   30  C   UNL     1      42.886 -17.669   0.977  1.00  0.00     0.033 C 
HETATM   31  C   UNL     1      41.967 -16.676   0.568  1.00  0.00     0.037 C 
BRANCH  28  32
HETATM   32  C   UNL     1      43.307 -18.902   3.222  1.00  0.00    -0.009 A 
HETATM   33  C   UNL     1      43.298 -18.687   4.608  1.00  0.00     0.013 A 
HETATM   34  C   UNL     1      44.018 -19.521   5.471  1.00  0.00     0.001 A 
HETATM   35  C   UNL     1      44.756 -20.587   4.963  1.00  0.00     0.000 A 
HETATM   36  C   UNL     1      44.771 -20.821   3.592  1.00  0.00     0.001 A 
HETATM   37  C   UNL     1      44.053 -19.986   2.731  1.00  0.00     0.013 A 
ENDBRANCH  28  32
ENDBRANCH   1  26
TORSDOF 9
ENDMDL
MODEL 7
REMARK VINA RESULT:      -8.0      3.386      6.076
REMARK  9 active torsions:
REMARK  status: ('A' for Active; 'I' for Inactive)
REMARK    1  A    between atoms: C_4  and  C_5 
REMARK    2  A    between atoms: C_8  and  C_9 
REMARK       I    between atoms: C_9  and  N_10 
REMARK    3  A    between atoms: N_10  and  C_26 
REMARK    4  A    between atoms: N_10  and  C_11 
REMARK    5  A    between atoms: C_11  and  C_12 
REMARK    6  A    between atoms: C_11  and  C_21 
REMARK       I    between atoms: C_12  and  N_13 
REMARK    7  A    between atoms: N_13  and  C_14 
REMARK    8  A    between atoms: C_14  and  C_15 
REMARK    9  A    between atoms: C_26  and  C_27 
ROOT
HETATM    1  C   UNL     1      40.451 -15.246   2.356  1.00  0.00     0.271 C 
HETATM    2  N   UNL     1      40.245 -14.419   1.238  1.00  0.00    -0.324 N 
HETATM    3  O   UNL     1      39.553 -15.400   3.186  1.00  0.00    -0.266 OA
ENDROOT
BRANCH   2   4
HETATM    4  C   UNL     1      38.938 -13.761   1.143  1.00  0.00     0.173 C 
BRANCH   4   5
HETATM    5  C   UNL     1      38.973 -12.357   1.664  1.00  0.00     0.000 A 
HETATM    6  S   UNL     1      38.521 -11.051   0.646  1.00  0.00    -0.105 SA
HETATM    7  C   UNL     1      38.720  -9.912   1.904  1.00  0.00     0.050 A 
HETATM    8  C   UNL     1      39.105 -10.508   3.083  1.00  0.00     0.008 A 
HETATM    9  C   UNL     1      39.250 -11.919   2.945  1.00  0.00     0.017 A 
ENDBRANCH   4   5
ENDBRANCH   2   4
BRANCH   2  10
HETATM   10  C   UNL     1      41.247 -14.173   0.178  1.00  0.00     0.220 C 
BRANCH  10  11
HETATM   11  C   UNL     1      41.974 -12.819   0.382  1.00  0.00     0.245 C 
HETATM   12  N   UNL     1      41.893 -11.848  -0.580  1.00  0.00    -0.357 N 
HETATM   13  H   UNL     1      41.575 -12.109  -1.506  1.00  0.00     0.162 HD
HETATM   14  O   UNL     1      42.523 -12.572   1.466  1.00  0.00    -0.271 OA
BRANCH  12  15
HETATM   15  C   UNL     1      42.605 -10.585  -0.463  1.00  0.00     0.154 C 
BRANCH  15  16
HETATM   16  C   UNL     1      43.277 -10.182  -1.782  1.00  0.00     0.139 C 
HETATM   17  O   UNL     1      42.749 -10.995  -2.856  1.00  0.00    -0.384 OA
HETATM   18  C   UNL     1      42.529 -10.136  -3.979  1.00  0.00     0.168 C 
HETATM   19  C   UNL     1      42.140  -8.806  -3.383  1.00  0.00     0.029 C 
HETATM   20  C   UNL     1      43.029  -8.724  -2.164  1.00  0.00     0.035 C 
ENDBRANCH  15  16
ENDBRANCH  12  15
ENDBRANCH  10  11
BRANCH  10  21
HETATM   21  C   UNL     1      40.739 -14.558  -1.204  1.00  0.00     0.014 A 
HETATM   22  S   UNL     1      39.692 -13.608  -2.174  1.00  0.00    -0.104 SA
HETATM   23  C   UNL     1      39.677 -14.751  -3.438  1.00  0.00     0.050 A 
HETATM   24  C   UNL     1      40.447 -15.851  -3.144  1.00  0.00     0.008 A 
HETATM   25  C   UNL     1      41.056 -15.740  -1.863  1.00  0.00     0.017 A 
ENDBRANCH  10  21
ENDBRANCH   2  10
BRANCH   1  26
HETATM   26  C   UNL     1      41.685 -16.000   2.501  1.00  0.00     0.101 C 
HETATM   27  N   UNL     1      41.896 -17.335   2.229  1.00  0.00    -0.351 N 
HETATM   28  C   UNL     1      43.160 -17.732   2.618  1.00  0.00     0.043 C 
HETATM   29  H   UNL     1      41.181 -17.962   1.872  1.00  0.00     0.166 HD
HETATM   30  C   UNL     1      43.840 -16.563   2.917  1.00  0.00     0.033 C 
HETATM   31  C   UNL     1      42.930 -15.486   2.824  1.00  0.00     0.037 C 
BRANCH  28  32
HETATM   32  C   UNL     1      43.599 -19.136   2.674  1.00  0.00    -0.009 A 
HETATM   33  C   UNL     1      43.243 -20.068   1.688  1.00  0.00     0.013 A 
HETATM   34  C   UNL     1      43.634 -21.407   1.788  1.00  0.00     0.001 A 
HETATM   35  C   UNL     1      44.391 -21.838   2.874  1.00  0.00     0.000 A 
HETATM   36  C   UNL     1      44.761 -20.928   3.859  1.00  0.00     0.001 A 
HETATM   37  C   UNL     1      44.367 -19.590   3.758  1.00  0.00     0.013 A 
ENDBRANCH  28  32
ENDBRANCH   1  26
TORSDOF 9
ENDMDL
MODEL 8
REMARK VINA RESULT:      -8.0      3.484      7.496
REMARK  9 active torsions:
REMARK  status: ('A' for Active; 'I' for Inactive)
REMARK    1  A    between atoms: C_4  and  C_5 
REMARK    2  A    between atoms: C_8  and  C_9 
REMARK       I    between atoms: C_9  and  N_10 
REMARK    3  A    between atoms: N_10  and  C_26 
REMARK    4  A    between atoms: N_10  and  C_11 
REMARK    5  A    between atoms: C_11  and  C_12 
REMARK    6  A    between atoms: C_11  and  C_21 
REMARK       I    between atoms: C_12  and  N_13 
REMARK    7  A    between atoms: N_13  and  C_14 
REMARK    8  A    between atoms: C_14  and  C_15 
REMARK    9  A    between atoms: C_26  and  C_27 
ROOT
HETATM    1  C   UNL     1      43.516 -15.752   5.782  1.00  0.00     0.271 C 
HETATM    2  N   UNL     1      42.449 -15.432   4.926  1.00  0.00    -0.324 N 
HETATM    3  O   UNL     1      43.909 -16.917   5.872  1.00  0.00    -0.266 OA
ENDROOT
BRANCH   2   4
HETATM    4  C   UNL     1      41.844 -16.547   4.188  1.00  0.00     0.173 C 
BRANCH   4   5
HETATM    5  C   UNL     1      42.789 -17.141   3.189  1.00  0.00     0.000 A 
HETATM    6  S   UNL     1      43.020 -18.841   3.129  1.00  0.00    -0.105 SA
HETATM    7  C   UNL     1      44.068 -18.719   1.785  1.00  0.00     0.050 A 
HETATM    8  C   UNL     1      44.229 -17.416   1.373  1.00  0.00     0.008 A 
HETATM    9  C   UNL     1      43.490 -16.505   2.182  1.00  0.00     0.017 A 
ENDBRANCH   4   5
ENDBRANCH   2   4
BRANCH   2  10
HETATM   10  C   UNL     1      41.905 -14.071   4.733  1.00  0.00     0.220 C 
BRANCH  10  11
HETATM   11  C   UNL     1      40.829 -13.728   5.797  1.00  0.00     0.245 C 
HETATM   12  N   UNL     1      40.367 -12.445   5.912  1.00  0.00    -0.357 N 
HETATM   13  H   UNL     1      40.899 -11.697   5.483  1.00  0.00     0.162 HD
HETATM   14  O   UNL     1      40.303 -14.638   6.455  1.00  0.00    -0.271 OA
BRANCH  12  15
HETATM   15  C   UNL     1      39.404 -12.061   6.932  1.00  0.00     0.154 C 
BRANCH  15  16
HETATM   16  C   UNL     1      39.925 -10.916   7.810  1.00  0.00     0.139 C 
HETATM   17  O   UNL     1      39.380  -9.663   7.335  1.00  0.00    -0.384 OA
HETATM   18  C   UNL     1      38.994  -8.898   8.481  1.00  0.00     0.168 C 
HETATM   19  C   UNL     1      38.544  -9.918   9.497  1.00  0.00     0.029 C 
HETATM   20  C   UNL     1      39.522 -11.049   9.277  1.00  0.00     0.035 C 
ENDBRANCH  15  16
ENDBRANCH  12  15
ENDBRANCH  10  11
BRANCH  10  21
HETATM   21  C   UNL     1      41.647 -13.747   3.268  1.00  0.00     0.014 A 
HETATM   22  S   UNL     1      40.196 -14.083   2.420  1.00  0.00    -0.104 SA
HETATM   23  C   UNL     1      40.786 -13.423   0.964  1.00  0.00     0.050 A 
HETATM   24  C   UNL     1      42.071 -12.953   1.098  1.00  0.00     0.008 A 
HETATM   25  C   UNL     1      42.565 -13.141   2.419  1.00  0.00     0.017 A 
ENDBRANCH  10  21
ENDBRANCH   2  10
BRANCH   1  26
HETATM   26  C   UNL     1      44.229 -14.707   6.498  1.00  0.00     0.101 C 
HETATM   27  N   UNL     1      43.881 -14.114   7.692  1.00  0.00    -0.351 N 
HETATM   28  C   UNL     1      44.726 -13.065   7.996  1.00  0.00     0.043 C 
HETATM   29  H   UNL     1      43.056 -14.361   8.231  1.00  0.00     0.166 HD
HETATM   30  C   UNL     1      45.772 -13.158   7.092  1.00  0.00     0.033 C 
HETATM   31  C   UNL     1      45.473 -14.192   6.175  1.00  0.00     0.037 C 
BRANCH  28  32
HETATM   32  C   UNL     1      44.477 -12.096   9.076  1.00  0.00    -0.009 A 
HETATM   33  C   UNL     1      45.306 -12.009  10.204  1.00  0.00     0.013 A 
HETATM   34  C   UNL     1      45.021 -11.111  11.239  1.00  0.00     0.001 A 
HETATM   35  C   UNL     1      43.905 -10.282  11.161  1.00  0.00     0.000 A 
HETATM   36  C   UNL     1      43.075 -10.348  10.048  1.00  0.00     0.001 A 
HETATM   37  C   UNL     1      43.360 -11.247   9.015  1.00  0.00     0.013 A 
ENDBRANCH  28  32
ENDBRANCH   1  26
TORSDOF 9
ENDMDL
MODEL 9
REMARK VINA RESULT:      -7.9      2.819      5.915
REMARK  9 active torsions:
REMARK  status: ('A' for Active; 'I' for Inactive)
REMARK    1  A    between atoms: C_4  and  C_5 
REMARK    2  A    between atoms: C_8  and  C_9 
REMARK       I    between atoms: C_9  and  N_10 
REMARK    3  A    between atoms: N_10  and  C_26 
REMARK    4  A    between atoms: N_10  and  C_11 
REMARK    5  A    between atoms: C_11  and  C_12 
REMARK    6  A    between atoms: C_11  and  C_21 
REMARK       I    between atoms: C_12  and  N_13 
REMARK    7  A    between atoms: N_13  and  C_14 
REMARK    8  A    between atoms: C_14  and  C_15 
REMARK    9  A    between atoms: C_26  and  C_27 
ROOT
HETATM    1  C   UNL     1      39.356 -14.725   1.658  1.00  0.00     0.271 C 
HETATM    2  N   UNL     1      39.674 -13.360   1.746  1.00  0.00    -0.324 N 
HETATM    3  O   UNL     1      38.182 -15.081   1.536  1.00  0.00    -0.266 OA
ENDROOT
BRANCH   2   4
HETATM    4  C   UNL     1      38.547 -12.421   1.701  1.00  0.00     0.173 C 
BRANCH   4   5
HETATM    5  C   UNL     1      38.722 -11.283   2.659  1.00  0.00     0.000 A 
HETATM    6  S   UNL     1      39.107  -9.717   2.073  1.00  0.00    -0.105 SA
HETATM    7  C   UNL     1      39.037  -9.039   3.640  1.00  0.00     0.050 A 
HETATM    8  C   UNL     1      38.711  -9.976   4.593  1.00  0.00     0.008 A 
HETATM    9  C   UNL     1      38.527 -11.271   4.028  1.00  0.00     0.017 A 
ENDBRANCH   4   5
ENDBRANCH   2   4
BRANCH   2  10
HETATM   10  C   UNL     1      41.045 -12.822   1.883  1.00  0.00     0.220 C 
BRANCH  10  11
HETATM   11  C   UNL     1      41.734 -12.655   0.503  1.00  0.00     0.245 C 
HETATM   12  N   UNL     1      41.153 -13.181  -0.619  1.00  0.00    -0.357 N 
HETATM   13  H   UNL     1      40.423 -13.875  -0.507  1.00  0.00     0.162 HD
HETATM   14  O   UNL     1      42.743 -11.941   0.402  1.00  0.00    -0.271 OA
BRANCH  12  15
HETATM   15  C   UNL     1      41.788 -13.103  -1.925  1.00  0.00     0.154 C 
BRANCH  15  16
HETATM   16  C   UNL     1      40.782 -13.312  -3.065  1.00  0.00     0.139 C 
HETATM   17  O   UNL     1      40.933 -14.649  -3.596  1.00  0.00    -0.384 OA
HETATM   18  C   UNL     1      39.621 -15.176  -3.817  1.00  0.00     0.168 C 
HETATM   19  C   UNL     1      38.770 -14.570  -2.729  1.00  0.00     0.029 C 
HETATM   20  C   UNL     1      39.328 -13.170  -2.620  1.00  0.00     0.035 C 
ENDBRANCH  15  16
ENDBRANCH  12  15
ENDBRANCH  10  11
BRANCH  10  21
HETATM   21  C   UNL     1      41.809 -13.457   3.036  1.00  0.00     0.014 A 
HETATM   22  S   UNL     1      41.211 -13.653   4.630  1.00  0.00    -0.104 SA
HETATM   23  C   UNL     1      42.645 -14.395   5.175  1.00  0.00     0.050 A 
HETATM   24  C   UNL     1      43.581 -14.498   4.174  1.00  0.00     0.008 A 
HETATM   25  C   UNL     1      43.102 -13.959   2.948  1.00  0.00     0.017 A 
ENDBRANCH  10  21
ENDBRANCH   2  10
BRANCH   1  26
HETATM   26  C   UNL     1      40.407 -15.728   1.618  1.00  0.00     0.101 C 
HETATM   27  N   UNL     1      40.779 -16.602   2.617  1.00  0.00    -0.351 N 
HETATM   28  C   UNL     1      41.909 -17.315   2.264  1.00  0.00     0.043 C 
HETATM   29  H   UNL     1      40.332 -16.649   3.527  1.00  0.00     0.166 HD
HETATM   30  C   UNL     1      42.106 -17.055   0.918  1.00  0.00     0.033 C 
HETATM   31  C   UNL     1      41.160 -16.086   0.512  1.00  0.00     0.037 C 
BRANCH  28  32
HETATM   32  C   UNL     1      42.679 -18.149   3.201  1.00  0.00    -0.009 A 
HETATM   33  C   UNL     1      42.492 -18.078   4.589  1.00  0.00     0.013 A 
HETATM   34  C   UNL     1      43.270 -18.848   5.461  1.00  0.00     0.001 A 
HETATM   35  C   UNL     1      44.247 -19.704   4.959  1.00  0.00     0.000 A 
HETATM   36  C   UNL     1      44.443 -19.794   3.586  1.00  0.00     0.001 A 
HETATM   37  C   UNL     1      43.666 -19.023   2.716  1.00  0.00     0.013 A 
ENDBRANCH  28  32
ENDBRANCH   1  26
TORSDOF 9
ENDMDL
MODEL 10
REMARK VINA RESULT:      -7.9      2.778      5.643
REMARK  9 active torsions:
REMARK  status: ('A' for Active; 'I' for Inactive)
REMARK    1  A    between atoms: C_4  and  C_5 
REMARK    2  A    between atoms: C_8  and  C_9 
REMARK       I    between atoms: C_9  and  N_10 
REMARK    3  A    between atoms: N_10  and  C_26 
REMARK    4  A    between atoms: N_10  and  C_11 
REMARK    5  A    between atoms: C_11  and  C_12 
REMARK    6  A    between atoms: C_11  and  C_21 
REMARK       I    between atoms: C_12  and  N_13 
REMARK    7  A    between atoms: N_13  and  C_14 
REMARK    8  A    between atoms: C_14  and  C_15 
REMARK    9  A    between atoms: C_26  and  C_27 
ROOT
HETATM    1  C   UNL     1      43.058 -14.686   2.822  1.00  0.00     0.271 C 
HETATM    2  N   UNL     1      42.295 -13.752   2.100  1.00  0.00    -0.324 N 
HETATM    3  O   UNL     1      43.556 -14.373   3.905  1.00  0.00    -0.266 OA
ENDROOT
BRANCH   2   4
HETATM    4  C   UNL     1      42.156 -12.420   2.697  1.00  0.00     0.173 C 
BRANCH   4   5
HETATM    5  C   UNL     1      40.861 -12.263   3.434  1.00  0.00     0.000 A 
HETATM    6  S   UNL     1      40.574 -13.162   4.868  1.00  0.00    -0.105 SA
HETATM    7  C   UNL     1      39.063 -12.405   5.121  1.00  0.00     0.050 A 
HETATM    8  C   UNL     1      38.783 -11.474   4.147  1.00  0.00     0.008 A 
HETATM    9  C   UNL     1      39.821 -11.390   3.175  1.00  0.00     0.017 A 
ENDBRANCH   4   5
ENDBRANCH   2   4
BRANCH   2  10
HETATM   10  C   UNL     1      41.644 -14.023   0.800  1.00  0.00     0.220 C 
BRANCH  10  11
HETATM   11  C   UNL     1      42.249 -13.156  -0.335  1.00  0.00     0.245 C 
HETATM   12  N   UNL     1      42.286 -13.636  -1.616  1.00  0.00    -0.357 N 
HETATM   13  H   UNL     1      42.152 -14.629  -1.765  1.00  0.00     0.162 HD
HETATM   14  O   UNL     1      42.583 -11.984  -0.102  1.00  0.00    -0.271 OA
BRANCH  12  15
HETATM   15  C   UNL     1      42.897 -12.887  -2.703  1.00  0.00     0.154 C 
BRANCH  15  16
HETATM   16  C   UNL     1      41.848 -12.328  -3.673  1.00  0.00     0.139 C 
HETATM   17  O   UNL     1      40.615 -13.068  -3.523  1.00  0.00    -0.384 OA
HETATM   18  C   UNL     1      39.539 -12.125  -3.550  1.00  0.00     0.168 C 
HETATM   19  C   UNL     1      40.098 -10.879  -2.909  1.00  0.00     0.029 C 
HETATM   20  C   UNL     1      41.518 -10.858  -3.423  1.00  0.00     0.035 C 
ENDBRANCH  15  16
ENDBRANCH  12  15
ENDBRANCH  10  11
BRANCH  10  21
HETATM   21  C   UNL     1      40.133 -14.161   0.922  1.00  0.00     0.014 A 
HETATM   22  S   UNL     1      38.981 -13.195   0.097  1.00  0.00    -0.104 SA
HETATM   23  C   UNL     1      37.660 -14.011   0.800  1.00  0.00     0.050 A 
HETATM   24  C   UNL     1      38.067 -15.004   1.658  1.00  0.00     0.008 A 
HETATM   25  C   UNL     1      39.486 -15.089   1.728  1.00  0.00     0.017 A 
ENDBRANCH  10  21
ENDBRANCH   2  10
BRANCH   1  26
HETATM   26  C   UNL     1      43.192 -16.054   2.350  1.00  0.00     0.101 C 
HETATM   27  N   UNL     1      43.289 -17.202   3.106  1.00  0.00    -0.351 N 
HETATM   28  C   UNL     1      43.542 -18.305   2.314  1.00  0.00     0.043 C 
HETATM   29  H   UNL     1      43.267 -17.218   4.121  1.00  0.00     0.166 HD
HETATM   30  C   UNL     1      43.359 -17.874   1.010  1.00  0.00     0.033 C 
HETATM   31  C   UNL     1      43.120 -16.481   1.034  1.00  0.00     0.037 C 
BRANCH  28  32
HETATM   32  C   UNL     1      43.926 -19.624   2.840  1.00  0.00    -0.009 A 
HETATM   33  C   UNL     1      44.444 -19.788   4.133  1.00  0.00     0.013 A 
HETATM   34  C   UNL     1      44.845 -21.047   4.594  1.00  0.00     0.001 A 
HETATM   35  C   UNL     1      44.733 -22.164   3.771  1.00  0.00     0.000 A 
HETATM   36  C   UNL     1      44.216 -22.024   2.488  1.00  0.00     0.001 A 
HETATM   37  C   UNL     1      43.817 -20.765   2.028  1.00  0.00     0.013 A 
ENDBRANCH  28  32
ENDBRANCH   1  26
TORSDOF 9
ENDMDL
