MODEL 1
REMARK VINA RESULT:      -8.0      0.000      0.000
REMARK  5 active torsions:
REMARK  status: ('A' for Active; 'I' for Inactive)
REMARK    1  A    between atoms: C_2  and  O_3 
REMARK    2  A    between atoms: O_3  and  C_4 
REMARK    3  A    between atoms: C_5  and  C_6 
REMARK    4  A    between atoms: C_6  and  C_9 
REMARK       I    between atoms: C_9  and  N_10 
REMARK    5  A    between atoms: N_10  and  C_11 
ROOT
HETATM    1  C   UNL     1      42.302 -17.455   2.456  1.00  0.00     0.300 C 
HETATM    2  N   UNL     1      42.616 -16.560   3.482  1.00  0.00    -0.320 N 
HETATM    3  O   UNL     1      41.156 -17.736   2.109  1.00  0.00    -0.266 OA
HETATM    4  H   UNL     1      43.609 -16.460   3.681  1.00  0.00     0.169 HD
ENDROOT
BRANCH   1   5
HETATM    5  C   UNL     1      43.586 -18.051   1.795  1.00  0.00     0.352 C 
HETATM    6  F   UNL     1      44.628 -17.164   2.001  1.00  0.00    -0.190 F 
HETATM    7  F   UNL     1      43.452 -18.065   0.432  1.00  0.00    -0.190 F 
BRANCH   5   8
HETATM    8  C   UNL     1      43.925 -19.407   2.384  1.00  0.00     0.056 A 
HETATM    9  C   UNL     1      44.447 -19.547   3.676  1.00  0.00     0.081 A 
HETATM   10  C   UNL     1      44.708 -20.815   4.206  1.00  0.00     0.037 A 
HETATM   11  C   UNL     1      44.496 -21.955   3.433  1.00  0.00     0.003 A 
HETATM   12  C   UNL     1      44.012 -21.832   2.134  1.00  0.00     0.001 A 
HETATM   13  C   UNL     1      43.726 -20.569   1.614  1.00  0.00     0.017 A 
BRANCH   9  14
HETATM   14  O   UNL     1      44.619 -18.441   4.461  1.00  0.00    -0.351 OA
BRANCH  14  15
HETATM   15  C   UNL     1      44.394 -18.711   5.852  1.00  0.00     0.171 C 
HETATM   16  C   UNL     1      44.589 -17.439   6.656  1.00  0.00     0.034 C 
ENDBRANCH  14  15
ENDBRANCH   9  14
ENDBRANCH   5   8
ENDBRANCH   1   5
BRANCH   2  17
HETATM   17  C   UNL     1      41.726 -15.776   4.244  1.00  0.00     0.053 A 
HETATM   18  C   UNL     1      41.256 -16.107   5.519  1.00  0.00     0.148 A 
HETATM   19  N   UNL     1      40.376 -15.382   6.263  1.00  0.00    -0.239 NA
HETATM   20  C   UNL     1      39.979 -14.257   5.642  1.00  0.00     0.156 A 
HETATM   21  C   UNL     1      40.364 -13.799   4.394  1.00  0.00     0.039 A 
HETATM   22  N   UNL     1      39.103 -13.332   6.126  1.00  0.00    -0.260 N 
HETATM   23  C   UNL     1      41.268 -14.587   3.661  1.00  0.00     0.048 A 
HETATM   24  C   UNL     1      39.669 -12.571   4.235  1.00  0.00     0.065 A 
HETATM   25  N   UNL     1      38.898 -12.288   5.295  1.00  0.00    -0.177 NA
HETATM   26  C   UNL     1      39.731 -11.637   3.083  1.00  0.00     0.073 C 
HETATM   27  H   UNL     1      38.621 -13.361   7.015  1.00  0.00     0.191 HD
ENDBRANCH   2  17
TORSDOF 5
ENDMDL
MODEL 2
REMARK VINA RESULT:      -8.0      3.443      4.337
REMARK  5 active torsions:
REMARK  status: ('A' for Active; 'I' for Inactive)
REMARK    1  A    between atoms: C_2  and  O_3 
REMARK    2  A    between atoms: O_3  and  C_4 
REMARK    3  A    between atoms: C_5  and  C_6 
REMARK    4  A    between atoms: C_6  and  C_9 
REMARK       I    between atoms: C_9  and  N_10 
REMARK    5  A    between atoms: N_10  and  C_11 
ROOT
HETATM    1  C   UNL     1      43.431 -17.122   2.329  1.00  0.00     0.300 C 
HETATM    2  N   UNL     1      42.238 -16.414   2.165  1.00  0.00    -0.320 N 
HETATM    3  O   UNL     1      44.397 -17.034   1.573  1.00  0.00    -0.266 OA
HETATM    4  H   UNL     1      41.513 -16.622   2.849  1.00  0.00     0.169 HD
ENDROOT
BRANCH   1   5
HETATM    5  C   UNL     1      43.394 -18.032   3.598  1.00  0.00     0.352 C 
HETATM    6  F   UNL     1      42.117 -17.980   4.129  1.00  0.00    -0.190 F 
HETATM    7  F   UNL     1      44.167 -17.491   4.590  1.00  0.00    -0.190 F 
BRANCH   5   8
HETATM    8  C   UNL     1      43.763 -19.462   3.255  1.00  0.00     0.056 A 
HETATM    9  C   UNL     1      44.496 -20.272   4.131  1.00  0.00     0.081 A 
HETATM   10  C   UNL     1      44.781 -21.602   3.802  1.00  0.00     0.037 A 
HETATM   11  C   UNL     1      44.380 -22.122   2.574  1.00  0.00     0.003 A 
HETATM   12  C   UNL     1      43.683 -21.321   1.675  1.00  0.00     0.001 A 
HETATM   13  C   UNL     1      43.373 -20.002   2.013  1.00  0.00     0.017 A 
BRANCH   9  14
HETATM   14  O   UNL     1      44.857 -19.790   5.357  1.00  0.00    -0.351 OA
BRANCH  14  15
HETATM   15  C   UNL     1      44.034 -20.300   6.416  1.00  0.00     0.171 C 
HETATM   16  C   UNL     1      43.720 -19.187   7.398  1.00  0.00     0.034 C 
ENDBRANCH  14  15
ENDBRANCH   9  14
ENDBRANCH   5   8
ENDBRANCH   1   5
BRANCH   2  17
HETATM   17  C   UNL     1      41.938 -15.445   1.186  1.00  0.00     0.053 A 
HETATM   18  C   UNL     1      42.084 -14.064   1.353  1.00  0.00     0.148 A 
HETATM   19  N   UNL     1      41.775 -13.108   0.434  1.00  0.00    -0.239 NA
HETATM   20  C   UNL     1      41.298 -13.627  -0.711  1.00  0.00     0.156 A 
HETATM   21  C   UNL     1      41.109 -14.962  -1.020  1.00  0.00     0.039 A 
HETATM   22  N   UNL     1      40.898 -12.928  -1.811  1.00  0.00    -0.260 N 
HETATM   23  C   UNL     1      41.435 -15.911  -0.036  1.00  0.00     0.048 A 
HETATM   24  C   UNL     1      40.606 -14.954  -2.348  1.00  0.00     0.065 A 
HETATM   25  N   UNL     1      40.477 -13.708  -2.830  1.00  0.00    -0.177 NA
HETATM   26  C   UNL     1      40.250 -16.122  -3.190  1.00  0.00     0.073 C 
HETATM   27  H   UNL     1      40.895 -11.923  -1.922  1.00  0.00     0.191 HD
ENDBRANCH   2  17
TORSDOF 5
ENDMDL
MODEL 3
REMARK VINA RESULT:      -7.6      2.059      2.860
REMARK  5 active torsions:
REMARK  status: ('A' for Active; 'I' for Inactive)
REMARK    1  A    between atoms: C_2  and  O_3 
REMARK    2  A    between atoms: O_3  and  C_4 
REMARK    3  A    between atoms: C_5  and  C_6 
REMARK    4  A    between atoms: C_6  and  C_9 
REMARK       I    between atoms: C_9  and  N_10 
REMARK    5  A    between atoms: N_10  and  C_11 
ROOT
HETATM    1  C   UNL     1      42.897 -16.476   4.598  1.00  0.00     0.300 C 
HETATM    2  N   UNL     1      41.543 -16.259   4.869  1.00  0.00    -0.320 N 
HETATM    3  O   UNL     1      43.625 -15.669   4.025  1.00  0.00    -0.266 OA
HETATM    4  H   UNL     1      41.061 -17.037   5.314  1.00  0.00     0.169 HD
ENDROOT
BRANCH   1   5
HETATM    5  C   UNL     1      43.376 -17.868   5.121  1.00  0.00     0.352 C 
HETATM    6  F   UNL     1      42.432 -18.341   6.015  1.00  0.00    -0.190 F 
HETATM    7  F   UNL     1      44.495 -17.722   5.897  1.00  0.00    -0.190 F 
BRANCH   5   8
HETATM    8  C   UNL     1      43.555 -18.849   3.979  1.00  0.00     0.056 A 
HETATM    9  C   UNL     1      44.330 -20.008   4.108  1.00  0.00     0.081 A 
HETATM   10  C   UNL     1      44.439 -20.915   3.048  1.00  0.00     0.037 A 
HETATM   11  C   UNL     1      43.816 -20.649   1.831  1.00  0.00     0.003 A 
HETATM   12  C   UNL     1      43.072 -19.484   1.673  1.00  0.00     0.001 A 
HETATM   13  C   UNL     1      42.940 -18.592   2.738  1.00  0.00     0.017 A 
BRANCH   9  14
HETATM   14  O   UNL     1      44.911 -20.304   5.310  1.00  0.00    -0.351 OA
BRANCH  14  15
HETATM   15  C   UNL     1      44.384 -21.502   5.897  1.00  0.00     0.171 C 
HETATM   16  C   UNL     1      43.668 -21.162   7.191  1.00  0.00     0.034 C 
ENDBRANCH  14  15
ENDBRANCH   9  14
ENDBRANCH   5   8
ENDBRANCH   1   5
BRANCH   2  17
HETATM   17  C   UNL     1      40.790 -15.095   4.618  1.00  0.00     0.053 A 
HETATM   18  C   UNL     1      40.272 -14.728   3.371  1.00  0.00     0.148 A 
HETATM   19  N   UNL     1      39.567 -13.595   3.098  1.00  0.00    -0.239 NA
HETATM   20  C   UNL     1      39.391 -12.821   4.183  1.00  0.00     0.156 A 
HETATM   21  C   UNL     1      39.834 -13.060   5.472  1.00  0.00     0.039 A 
HETATM   22  N   UNL     1      38.734 -11.628   4.228  1.00  0.00    -0.260 N 
HETATM   23  C   UNL     1      40.566 -14.237   5.703  1.00  0.00     0.048 A 
HETATM   24  C   UNL     1      39.367 -11.947   6.221  1.00  0.00     0.065 A 
HETATM   25  N   UNL     1      38.695 -11.072   5.458  1.00  0.00    -0.177 NA
HETATM   26  C   UNL     1      39.537 -11.697   7.674  1.00  0.00     0.073 C 
HETATM   27  H   UNL     1      38.292 -11.150   3.454  1.00  0.00     0.191 HD
ENDBRANCH   2  17
TORSDOF 5
ENDMDL
MODEL 4
REMARK VINA RESULT:      -7.6      4.455      5.507
REMARK  5 active torsions:
REMARK  status: ('A' for Active; 'I' for Inactive)
REMARK    1  A    between atoms: C_2  and  O_3 
REMARK    2  A    between atoms: O_3  and  C_4 
REMARK    3  A    between atoms: C_5  and  C_6 
REMARK    4  A    between atoms: C_6  and  C_9 
REMARK       I    between atoms: C_9  and  N_10 
REMARK    5  A    between atoms: N_10  and  C_11 
ROOT
HETATM    1  C   UNL     1      41.980 -16.746   0.586  1.00  0.00     0.300 C 
HETATM    2  N   UNL     1      41.025 -16.220  -0.287  1.00  0.00    -0.320 N 
HETATM    3  O   UNL     1      43.183 -16.504   0.523  1.00  0.00    -0.266 OA
HETATM    4  H   UNL     1      40.073 -16.544  -0.134  1.00  0.00     0.169 HD
ENDROOT
BRANCH   1   5
HETATM    5  C   UNL     1      41.331 -17.674   1.662  1.00  0.00     0.352 C 
HETATM    6  F   UNL     1      40.534 -18.599   1.010  1.00  0.00    -0.190 F 
HETATM    7  F   UNL     1      40.433 -16.966   2.417  1.00  0.00    -0.190 F 
BRANCH   5   8
HETATM    8  C   UNL     1      42.390 -18.380   2.486  1.00  0.00     0.056 A 
HETATM    9  C   UNL     1      42.803 -17.901   3.735  1.00  0.00     0.081 A 
HETATM   10  C   UNL     1      43.751 -18.600   4.489  1.00  0.00     0.037 A 
HETATM   11  C   UNL     1      44.334 -19.760   3.982  1.00  0.00     0.003 A 
HETATM   12  C   UNL     1      43.963 -20.231   2.727  1.00  0.00     0.001 A 
HETATM   13  C   UNL     1      42.997 -19.548   1.985  1.00  0.00     0.017 A 
BRANCH   9  14
HETATM   14  O   UNL     1      42.209 -16.790   4.265  1.00  0.00    -0.351 OA
BRANCH  14  15
HETATM   15  C   UNL     1      43.158 -15.783   4.644  1.00  0.00     0.171 C 
HETATM   16  C   UNL     1      43.267 -14.746   3.542  1.00  0.00     0.034 C 
ENDBRANCH  14  15
ENDBRANCH   9  14
ENDBRANCH   5   8
ENDBRANCH   1   5
BRANCH   2  17
HETATM   17  C   UNL     1      41.227 -15.289  -1.326  1.00  0.00     0.053 A 
HETATM   18  C   UNL     1      40.976 -15.531  -2.681  1.00  0.00     0.148 A 
HETATM   19  N   UNL     1      41.190 -14.659  -3.704  1.00  0.00    -0.239 NA
HETATM   20  C   UNL     1      41.682 -13.481  -3.285  1.00  0.00     0.156 A 
HETATM   21  C   UNL     1      41.969 -13.098  -1.987  1.00  0.00     0.039 A 
HETATM   22  N   UNL     1      42.002 -12.412  -4.069  1.00  0.00    -0.260 N 
HETATM   23  C   UNL     1      41.740 -14.035  -0.965  1.00  0.00     0.048 A 
HETATM   24  C   UNL     1      42.442 -11.764  -2.104  1.00  0.00     0.065 A 
HETATM   25  N   UNL     1      42.462 -11.347  -3.379  1.00  0.00    -0.177 NA
HETATM   26  C   UNL     1      42.872 -10.855  -1.013  1.00  0.00     0.073 C 
HETATM   27  H   UNL     1      41.924 -12.355  -5.076  1.00  0.00     0.191 HD
ENDBRANCH   2  17
TORSDOF 5
ENDMDL
MODEL 5
REMARK VINA RESULT:      -7.6      2.760      7.204
REMARK  5 active torsions:
REMARK  status: ('A' for Active; 'I' for Inactive)
REMARK    1  A    between atoms: C_2  and  O_3 
REMARK    2  A    between atoms: O_3  and  C_4 
REMARK    3  A    between atoms: C_5  and  C_6 
REMARK    4  A    between atoms: C_6  and  C_9 
REMARK       I    between atoms: C_9  and  N_10 
REMARK    5  A    between atoms: N_10  and  C_11 
ROOT
HETATM    1  C   UNL     1      42.466 -15.892   4.145  1.00  0.00     0.300 C 
HETATM    2  N   UNL     1      43.603 -16.623   3.794  1.00  0.00    -0.320 N 
HETATM    3  O   UNL     1      41.533 -16.340   4.809  1.00  0.00    -0.266 OA
HETATM    4  H   UNL     1      44.272 -16.129   3.207  1.00  0.00     0.169 HD
ENDROOT
BRANCH   1   5
HETATM    5  C   UNL     1      42.527 -14.429   3.600  1.00  0.00     0.352 C 
HETATM    6  F   UNL     1      43.701 -14.286   2.882  1.00  0.00    -0.190 F 
HETATM    7  F   UNL     1      42.684 -13.546   4.635  1.00  0.00    -0.190 F 
BRANCH   5   8
HETATM    8  C   UNL     1      41.331 -14.124   2.720  1.00  0.00     0.056 A 
HETATM    9  C   UNL     1      41.191 -14.673   1.439  1.00  0.00     0.081 A 
HETATM   10  C   UNL     1      40.053 -14.406   0.670  1.00  0.00     0.037 A 
HETATM   11  C   UNL     1      39.067 -13.548   1.150  1.00  0.00     0.003 A 
HETATM   12  C   UNL     1      39.207 -12.964   2.406  1.00  0.00     0.001 A 
HETATM   13  C   UNL     1      40.329 -13.251   3.186  1.00  0.00     0.017 A 
BRANCH   9  14
HETATM   14  O   UNL     1      42.128 -15.552   0.972  1.00  0.00    -0.351 OA
BRANCH  14  15
HETATM   15  C   UNL     1      41.547 -16.648   0.251  1.00  0.00     0.171 C 
HETATM   16  C   UNL     1      41.100 -17.720   1.227  1.00  0.00     0.034 C 
ENDBRANCH  14  15
ENDBRANCH   9  14
ENDBRANCH   5   8
ENDBRANCH   1   5
BRANCH   2  17
HETATM   17  C   UNL     1      43.932 -17.940   4.172  1.00  0.00     0.053 A 
HETATM   18  C   UNL     1      44.306 -18.335   5.461  1.00  0.00     0.148 A 
HETATM   19  N   UNL     1      44.656 -19.594   5.845  1.00  0.00    -0.239 NA
HETATM   20  C   UNL     1      44.603 -20.477   4.832  1.00  0.00     0.156 A 
HETATM   21  C   UNL     1      44.244 -20.234   3.517  1.00  0.00     0.039 A 
HETATM   22  N   UNL     1      44.899 -21.806   4.899  1.00  0.00    -0.260 N 
HETATM   23  C   UNL     1      43.899 -18.917   3.168  1.00  0.00     0.048 A 
HETATM   24  C   UNL     1      44.341 -21.500   2.882  1.00  0.00     0.065 A 
HETATM   25  N   UNL     1      44.742 -22.460   3.729  1.00  0.00    -0.177 NA
HETATM   26  C   UNL     1      44.044 -21.829   1.466  1.00  0.00     0.073 C 
HETATM   27  H   UNL     1      45.207 -22.316   5.716  1.00  0.00     0.191 HD
ENDBRANCH   2  17
TORSDOF 5
ENDMDL
MODEL 6
REMARK VINA RESULT:      -7.6      3.359      4.810
REMARK  5 active torsions:
REMARK  status: ('A' for Active; 'I' for Inactive)
REMARK    1  A    between atoms: C_2  and  O_3 
REMARK    2  A    between atoms: O_3  and  C_4 
REMARK    3  A    between atoms: C_5  and  C_6 
REMARK    4  A    between atoms: C_6  and  C_9 
REMARK       I    between atoms: C_9  and  N_10 
REMARK    5  A    between atoms: N_10  and  C_11 
ROOT
HETATM    1  C   UNL     1      41.106 -16.094   4.399  1.00  0.00     0.300 C 
HETATM    2  N   UNL     1      40.630 -16.600   3.187  1.00  0.00    -0.320 N 
HETATM    3  O   UNL     1      41.547 -14.957   4.549  1.00  0.00    -0.266 OA
HETATM    4  H   UNL     1      40.334 -17.573   3.210  1.00  0.00     0.169 HD
ENDROOT
BRANCH   1   5
HETATM    5  C   UNL     1      41.001 -17.149   5.547  1.00  0.00     0.352 C 
HETATM    6  F   UNL     1      40.273 -18.227   5.076  1.00  0.00    -0.190 F 
HETATM    7  F   UNL     1      40.220 -16.665   6.563  1.00  0.00    -0.190 F 
BRANCH   5   8
HETATM    8  C   UNL     1      42.375 -17.600   6.002  1.00  0.00     0.056 A 
HETATM    9  C   UNL     1      43.253 -18.283   5.151  1.00  0.00     0.081 A 
HETATM   10  C   UNL     1      44.531 -18.646   5.588  1.00  0.00     0.037 A 
HETATM   11  C   UNL     1      44.928 -18.376   6.896  1.00  0.00     0.003 A 
HETATM   12  C   UNL     1      44.055 -17.732   7.767  1.00  0.00     0.001 A 
HETATM   13  C   UNL     1      42.789 -17.344   7.324  1.00  0.00     0.017 A 
BRANCH   9  14
HETATM   14  O   UNL     1      42.895 -18.515   3.853  1.00  0.00    -0.351 OA
BRANCH  14  15
HETATM   15  C   UNL     1      44.007 -18.904   3.034  1.00  0.00     0.171 C 
HETATM   16  C   UNL     1      43.620 -20.101   2.185  1.00  0.00     0.034 C 
ENDBRANCH  14  15
ENDBRANCH   9  14
ENDBRANCH   5   8
ENDBRANCH   1   5
BRANCH   2  17
HETATM   17  C   UNL     1      40.496 -15.917   1.962  1.00  0.00     0.053 A 
HETATM   18  C   UNL     1      41.380 -16.025   0.882  1.00  0.00     0.148 A 
HETATM   19  N   UNL     1      41.288 -15.354  -0.300  1.00  0.00    -0.239 NA
HETATM   20  C   UNL     1      40.217 -14.542  -0.351  1.00  0.00     0.156 A 
HETATM   21  C   UNL     1      39.260 -14.342   0.628  1.00  0.00     0.039 A 
HETATM   22  N   UNL     1      39.860 -13.740  -1.394  1.00  0.00    -0.260 N 
HETATM   23  C   UNL     1      39.402 -15.050   1.834  1.00  0.00     0.048 A 
HETATM   24  C   UNL     1      38.356 -13.408   0.056  1.00  0.00     0.065 A 
HETATM   25  N   UNL     1      38.725 -13.041  -1.180  1.00  0.00    -0.177 NA
HETATM   26  C   UNL     1      37.120 -12.855   0.663  1.00  0.00     0.073 C 
HETATM   27  H   UNL     1      40.349 -13.635  -2.273  1.00  0.00     0.191 HD
ENDBRANCH   2  17
TORSDOF 5
ENDMDL
MODEL 7
REMARK VINA RESULT:      -7.5      2.663      7.090
REMARK  5 active torsions:
REMARK  status: ('A' for Active; 'I' for Inactive)
REMARK    1  A    between atoms: C_2  and  O_3 
REMARK    2  A    between atoms: O_3  and  C_4 
REMARK    3  A    between atoms: C_5  and  C_6 
REMARK    4  A    between atoms: C_6  and  C_9 
REMARK       I    between atoms: C_9  and  N_10 
REMARK    5  A    between atoms: N_10  and  C_11 
ROOT
HETATM    1  C   UNL     1      42.317 -16.220   3.176  1.00  0.00     0.300 C 
HETATM    2  N   UNL     1      43.576 -16.697   3.548  1.00  0.00    -0.320 N 
HETATM    3  O   UNL     1      41.301 -16.910   3.135  1.00  0.00    -0.266 OA
HETATM    4  H   UNL     1      44.331 -16.017   3.495  1.00  0.00     0.169 HD
ENDROOT
BRANCH   1   5
HETATM    5  C   UNL     1      42.355 -14.697   2.828  1.00  0.00     0.352 C 
HETATM    6  F   UNL     1      42.053 -14.554   1.486  1.00  0.00    -0.190 F 
HETATM    7  F   UNL     1      43.638 -14.226   2.911  1.00  0.00    -0.190 F 
BRANCH   5   8
HETATM    8  C   UNL     1      41.368 -13.919   3.676  1.00  0.00     0.056 A 
HETATM    9  C   UNL     1      41.428 -13.917   5.075  1.00  0.00     0.081 A 
HETATM   10  C   UNL     1      40.529 -13.153   5.826  1.00  0.00     0.037 A 
HETATM   11  C   UNL     1      39.529 -12.421   5.190  1.00  0.00     0.003 A 
HETATM   12  C   UNL     1      39.431 -12.440   3.802  1.00  0.00     0.001 A 
HETATM   13  C   UNL     1      40.345 -13.181   3.050  1.00  0.00     0.017 A 
BRANCH   9  14
HETATM   14  O   UNL     1      42.430 -14.595   5.711  1.00  0.00    -0.351 OA
BRANCH  14  15
HETATM   15  C   UNL     1      43.402 -13.718   6.300  1.00  0.00     0.171 C 
HETATM   16  C   UNL     1      44.645 -14.508   6.665  1.00  0.00     0.034 C 
ENDBRANCH  14  15
ENDBRANCH   9  14
ENDBRANCH   5   8
ENDBRANCH   1   5
BRANCH   2  17
HETATM   17  C   UNL     1      43.909 -17.990   4.002  1.00  0.00     0.053 A 
HETATM   18  C   UNL     1      44.240 -18.317   5.321  1.00  0.00     0.148 A 
HETATM   19  N   UNL     1      44.592 -19.551   5.777  1.00  0.00    -0.239 NA
HETATM   20  C   UNL     1      44.589 -20.481   4.806  1.00  0.00     0.156 A 
HETATM   21  C   UNL     1      44.276 -20.307   3.470  1.00  0.00     0.039 A 
HETATM   22  N   UNL     1      44.900 -21.801   4.949  1.00  0.00    -0.260 N 
HETATM   23  C   UNL     1      43.927 -19.014   3.045  1.00  0.00     0.048 A 
HETATM   24  C   UNL     1      44.414 -21.600   2.900  1.00  0.00     0.065 A 
HETATM   25  N   UNL     1      44.797 -22.512   3.807  1.00  0.00    -0.177 NA
HETATM   26  C   UNL     1      44.175 -22.000   1.491  1.00  0.00     0.073 C 
HETATM   27  H   UNL     1      45.185 -22.267   5.800  1.00  0.00     0.191 HD
ENDBRANCH   2  17
TORSDOF 5
ENDMDL
MODEL 8
REMARK VINA RESULT:      -7.5      1.725      3.147
REMARK  5 active torsions:
REMARK  status: ('A' for Active; 'I' for Inactive)
REMARK    1  A    between atoms: C_2  and  O_3 
REMARK    2  A    between atoms: O_3  and  C_4 
REMARK    3  A    between atoms: C_5  and  C_6 
REMARK    4  A    between atoms: C_6  and  C_9 
REMARK       I    between atoms: C_9  and  N_10 
REMARK    5  A    between atoms: N_10  and  C_11 
ROOT
HETATM    1  C   UNL     1      42.899 -16.686   2.500  1.00  0.00     0.300 C 
HETATM    2  N   UNL     1      41.511 -16.544   2.428  1.00  0.00    -0.320 N 
HETATM    3  O   UNL     1      43.687 -15.747   2.581  1.00  0.00    -0.266 OA
HETATM    4  H   UNL     1      40.991 -17.413   2.324  1.00  0.00     0.169 HD
ENDROOT
BRANCH   1   5
HETATM    5  C   UNL     1      43.329 -18.188   2.477  1.00  0.00     0.352 C 
HETATM    6  F   UNL     1      44.488 -18.293   1.729  1.00  0.00    -0.190 F 
HETATM    7  F   UNL     1      42.426 -18.927   1.759  1.00  0.00    -0.190 F 
BRANCH   5   8
HETATM    8  C   UNL     1      43.559 -18.712   3.881  1.00  0.00     0.056 A 
HETATM    9  C   UNL     1      44.345 -19.843   4.133  1.00  0.00     0.081 A 
HETATM   10  C   UNL     1      44.574 -20.275   5.444  1.00  0.00     0.037 A 
HETATM   11  C   UNL     1      43.981 -19.610   6.515  1.00  0.00     0.003 A 
HETATM   12  C   UNL     1      43.166 -18.506   6.281  1.00  0.00     0.001 A 
HETATM   13  C   UNL     1      42.959 -18.058   4.975  1.00  0.00     0.017 A 
BRANCH   9  14
HETATM   14  O   UNL     1      44.970 -20.479   3.097  1.00  0.00    -0.351 OA
BRANCH  14  15
HETATM   15  C   UNL     1      44.447 -21.793   2.859  1.00  0.00     0.171 C 
HETATM   16  C   UNL     1      43.942 -21.889   1.431  1.00  0.00     0.034 C 
ENDBRANCH  14  15
ENDBRANCH   9  14
ENDBRANCH   5   8
ENDBRANCH   1   5
BRANCH   2  17
HETATM   17  C   UNL     1      40.761 -15.353   2.503  1.00  0.00     0.053 A 
HETATM   18  C   UNL     1      40.211 -14.681   1.406  1.00  0.00     0.148 A 
HETATM   19  N   UNL     1      39.508 -13.516   1.450  1.00  0.00    -0.239 NA
HETATM   20  C   UNL     1      39.372 -13.041   2.700  1.00  0.00     0.156 A 
HETATM   21  C   UNL     1      39.850 -13.599   3.873  1.00  0.00     0.039 A 
HETATM   22  N   UNL     1      38.727 -11.897   3.065  1.00  0.00    -0.260 N 
HETATM   23  C   UNL     1      40.576 -14.798   3.776  1.00  0.00     0.048 A 
HETATM   24  C   UNL     1      39.415 -12.711   4.893  1.00  0.00     0.065 A 
HETATM   25  N   UNL     1      38.729 -11.670   4.396  1.00  0.00    -0.177 NA
HETATM   26  C   UNL     1      39.629 -12.837   6.356  1.00  0.00     0.073 C 
HETATM   27  H   UNL     1      38.267 -11.238   2.451  1.00  0.00     0.191 HD
ENDBRANCH   2  17
TORSDOF 5
ENDMDL
MODEL 9
REMARK VINA RESULT:      -7.4      3.892      5.065
REMARK  5 active torsions:
REMARK  status: ('A' for Active; 'I' for Inactive)
REMARK    1  A    between atoms: C_2  and  O_3 
REMARK    2  A    between atoms: O_3  and  C_4 
REMARK    3  A    between atoms: C_5  and  C_6 
REMARK    4  A    between atoms: C_6  and  C_9 
REMARK       I    between atoms: C_9  and  N_10 
REMARK    5  A    between atoms: N_10  and  C_11 
ROOT
HETATM    1  C   UNL     1      41.871 -17.301   1.595  1.00  0.00     0.300 C 
HETATM    2  N   UNL     1      42.392 -16.429   0.635  1.00  0.00    -0.320 N 
HETATM    3  O   UNL     1      40.729 -17.235   2.043  1.00  0.00    -0.266 OA
HETATM    4  H   UNL     1      43.367 -16.585   0.391  1.00  0.00     0.169 HD
ENDROOT
BRANCH   1   5
HETATM    5  C   UNL     1      42.916 -18.381   2.022  1.00  0.00     0.352 C 
HETATM    6  F   UNL     1      43.991 -18.309   1.153  1.00  0.00    -0.190 F 
HETATM    7  F   UNL     1      42.417 -19.637   1.797  1.00  0.00    -0.190 F 
BRANCH   5   8
HETATM    8  C   UNL     1      43.378 -18.160   3.449  1.00  0.00     0.056 A 
HETATM    9  C   UNL     1      44.362 -18.958   4.045  1.00  0.00     0.081 A 
HETATM   10  C   UNL     1      44.797 -18.700   5.349  1.00  0.00     0.037 A 
HETATM   11  C   UNL     1      44.219 -17.671   6.090  1.00  0.00     0.003 A 
HETATM   12  C   UNL     1      43.214 -16.891   5.527  1.00  0.00     0.001 A 
HETATM   13  C   UNL     1      42.798 -17.131   4.216  1.00  0.00     0.017 A 
BRANCH   9  14
HETATM   14  O   UNL     1      44.970 -19.942   3.316  1.00  0.00    -0.351 OA
BRANCH  14  15
HETATM   15  C   UNL     1      44.561 -21.258   3.716  1.00  0.00     0.171 C 
HETATM   16  C   UNL     1      44.346 -22.121   2.486  1.00  0.00     0.034 C 
ENDBRANCH  14  15
ENDBRANCH   9  14
ENDBRANCH   5   8
ENDBRANCH   1   5
BRANCH   2  17
HETATM   17  C   UNL     1      41.721 -15.387  -0.037  1.00  0.00     0.053 A 
HETATM   18  C   UNL     1      41.693 -14.052   0.379  1.00  0.00     0.148 A 
HETATM   19  N   UNL     1      41.029 -13.034  -0.237  1.00  0.00    -0.239 NA
HETATM   20  C   UNL     1      40.374 -13.437  -1.339  1.00  0.00     0.156 A 
HETATM   21  C   UNL     1      40.320 -14.713  -1.872  1.00  0.00     0.039 A 
HETATM   22  N   UNL     1      39.619 -12.655  -2.163  1.00  0.00    -0.260 N 
HETATM   23  C   UNL     1      41.014 -15.732  -1.197  1.00  0.00     0.048 A 
HETATM   24  C   UNL     1      39.515 -14.580  -3.035  1.00  0.00     0.065 A 
HETATM   25  N   UNL     1      39.087 -13.321  -3.210  1.00  0.00    -0.177 NA
HETATM   26  C   UNL     1      39.147 -15.638  -4.008  1.00  0.00     0.073 C 
HETATM   27  H   UNL     1      39.437 -11.666  -2.059  1.00  0.00     0.191 HD
ENDBRANCH   2  17
TORSDOF 5
ENDMDL
MODEL 10
REMARK VINA RESULT:      -7.3      3.489      4.426
REMARK  5 active torsions:
REMARK  status: ('A' for Active; 'I' for Inactive)
REMARK    1  A    between atoms: C_2  and  O_3 
REMARK    2  A    between atoms: O_3  and  C_4 
REMARK    3  A    between atoms: C_5  and  C_6 
REMARK    4  A    between atoms: C_6  and  C_9 
REMARK       I    between atoms: C_9  and  N_10 
REMARK    5  A    between atoms: N_10  and  C_11 
ROOT
HETATM    1  C   UNL     1      43.319 -17.791   1.382  1.00  0.00     0.300 C 
HETATM    2  N   UNL     1      42.084 -17.203   1.097  1.00  0.00    -0.320 N 
HETATM    3  O   UNL     1      44.404 -17.237   1.214  1.00  0.00    -0.266 OA
HETATM    4  H   UNL     1      41.274 -17.800   1.250  1.00  0.00     0.169 HD
ENDROOT
BRANCH   1   5
HETATM    5  C   UNL     1      43.154 -19.237   1.950  1.00  0.00     0.352 C 
HETATM    6  F   UNL     1      43.951 -20.086   1.204  1.00  0.00    -0.190 F 
HETATM    7  F   UNL     1      41.889 -19.699   1.704  1.00  0.00    -0.190 F 
BRANCH   5   8
HETATM    8  C   UNL     1      43.547 -19.296   3.413  1.00  0.00     0.056 A 
HETATM    9  C   UNL     1      42.879 -18.552   4.394  1.00  0.00     0.081 A 
HETATM   10  C   UNL     1      43.238 -18.663   5.741  1.00  0.00     0.037 A 
HETATM   11  C   UNL     1      44.300 -19.481   6.119  1.00  0.00     0.003 A 
HETATM   12  C   UNL     1      45.000 -20.200   5.153  1.00  0.00     0.001 A 
HETATM   13  C   UNL     1      44.625 -20.111   3.812  1.00  0.00     0.017 A 
BRANCH   9  14
HETATM   14  O   UNL     1      41.807 -17.779   4.044  1.00  0.00    -0.351 OA
BRANCH  14  15
HETATM   15  C   UNL     1      41.146 -17.206   5.182  1.00  0.00     0.171 C 
HETATM   16  C   UNL     1      40.977 -15.713   4.973  1.00  0.00     0.034 C 
ENDBRANCH  14  15
ENDBRANCH   9  14
ENDBRANCH   5   8
ENDBRANCH   1   5
BRANCH   2  17
HETATM   17  C   UNL     1      41.837 -15.889   0.649  1.00  0.00     0.053 A 
HETATM   18  C   UNL     1      42.028 -14.732   1.413  1.00  0.00     0.148 A 
HETATM   19  N   UNL     1      41.770 -13.456   1.013  1.00  0.00    -0.239 NA
HETATM   20  C   UNL     1      41.299 -13.394  -0.245  1.00  0.00     0.156 A 
HETATM   21  C   UNL     1      41.071 -14.445  -1.115  1.00  0.00     0.039 A 
HETATM   22  N   UNL     1      40.946 -12.265  -0.922  1.00  0.00    -0.260 N 
HETATM   23  C   UNL     1      41.344 -15.745  -0.654  1.00  0.00     0.048 A 
HETATM   24  C   UNL     1      40.596 -13.829  -2.303  1.00  0.00     0.065 A 
HETATM   25  N   UNL     1      40.520 -12.494  -2.182  1.00  0.00    -0.177 NA
HETATM   26  C   UNL     1      40.217 -14.487  -3.578  1.00  0.00     0.073 C 
HETATM   27  H   UNL     1      40.980 -11.315  -0.575  1.00  0.00     0.191 HD
ENDBRANCH   2  17
TORSDOF 5
ENDMDL
