MODEL 1
REMARK VINA RESULT:      -9.8      0.000      0.000
REMARK  7 active torsions:
REMARK  status: ('A' for Active; 'I' for Inactive)
REMARK    1  A    between atoms: C_3  and  C_4 
REMARK    2  A    between atoms: C_4  and  C_5 
REMARK    3  A    between atoms: C_5  and  C_6 
REMARK       I    between atoms: C_6  and  N_7 
REMARK    4  A    between atoms: N_7  and  C_8 
REMARK    5  A    between atoms: C_8  and  C_9 
REMARK    6  A    between atoms: C_9  and  C_10 
REMARK    7  A    between atoms: C_29  and  O_30 
ROOT
HETATM    1  C   UNL     1      41.525 -15.372   4.095  1.00  0.00     0.107 C 
ENDROOT
BRANCH   1   2
HETATM    2  C   UNL     1      42.877 -15.772   3.489  1.00  0.00     0.055 C 
BRANCH   2   3
HETATM    3  C   UNL     1      43.254 -17.243   3.347  1.00  0.00     0.025 A 
HETATM    4  C   UNL     1      43.733 -17.957   4.395  1.00  0.00    -0.037 A 
HETATM    5  C   UNL     1      44.002 -17.357   5.758  1.00  0.00     0.050 C 
HETATM    6  C   UNL     1      44.057 -19.391   4.231  1.00  0.00     0.005 A 
HETATM    7  C   UNL     1      43.925 -19.982   2.974  1.00  0.00     0.099 A 
HETATM    8  C   UNL     1      44.496 -20.207   5.283  1.00  0.00     0.017 A 
HETATM    9  O   UNL     1      43.465 -19.212   1.892  1.00  0.00    -0.274 OA
HETATM   10  C   UNL     1      44.232 -21.336   2.719  1.00  0.00     0.006 A 
HETATM   11  C   UNL     1      43.113 -17.877   2.006  1.00  0.00     0.295 A 
HETATM   12  O   UNL     1      42.719 -17.266   1.019  1.00  0.00    -0.259 OA
HETATM   13  C   UNL     1      44.085 -21.925   1.346  1.00  0.00     0.054 C 
HETATM   14  C   UNL     1      44.675 -22.106   3.798  1.00  0.00     0.074 A 
HETATM   15  C   UNL     1      44.804 -21.552   5.067  1.00  0.00     0.038 A 
BRANCH  14  16
HETATM   16  O   UNL     1      45.003 -23.428   3.690  1.00  0.00    -0.360 OA
HETATM   17  H   UNL     1      45.966 -23.525   3.648  1.00  0.00     0.217 HD
ENDBRANCH  14  16
ENDBRANCH   2   3
ENDBRANCH   1   2
BRANCH   1  18
HETATM   18  C   UNL     1      40.492 -15.150   3.007  1.00  0.00     0.217 C 
HETATM   19  N   UNL     1      40.204 -13.817   2.789  1.00  0.00    -0.361 N 
HETATM   20  H   UNL     1      40.476 -13.158   3.508  1.00  0.00     0.162 HD
HETATM   21  O   UNL     1      39.962 -16.062   2.381  1.00  0.00    -0.274 OA
BRANCH  19  22
HETATM   22  C   UNL     1      39.135 -13.448   1.876  1.00  0.00     0.127 C 
BRANCH  22  23
HETATM   23  C   UNL     1      39.650 -12.758   0.614  1.00  0.00     0.060 C 
BRANCH  23  24
HETATM   24  C   UNL     1      40.302 -13.724  -0.323  1.00  0.00    -0.029 A 
HETATM   25  C   UNL     1      39.727 -14.288  -1.507  1.00  0.00    -0.000 A 
HETATM   26  C   UNL     1      40.690 -15.112  -2.091  1.00  0.00     0.043 A 
HETATM   27  C   UNL     1      38.472 -14.165  -2.141  1.00  0.00     0.038 A 
HETATM   28  C   UNL     1      40.469 -15.819  -3.279  1.00  0.00     0.032 A 
HETATM   29  N   UNL     1      41.806 -15.056  -1.289  1.00  0.00    -0.365 N 
HETATM   30  C   UNL     1      39.218 -15.682  -3.889  1.00  0.00     0.026 A 
HETATM   31  C   UNL     1      38.237 -14.869  -3.326  1.00  0.00     0.035 A 
HETATM   32 CL   UNL     1      36.706 -14.726  -4.102  1.00  0.00    -0.084 Cl
HETATM   33  H   UNL     1      42.667 -15.554  -1.472  1.00  0.00     0.165 HD
HETATM   34  C   UNL     1      41.584 -14.228  -0.223  1.00  0.00     0.096 A 
ENDBRANCH  23  24
ENDBRANCH  22  23
ENDBRANCH  19  22
ENDBRANCH   1  18
TORSDOF 7
ENDMDL
MODEL 2
REMARK VINA RESULT:      -9.6      5.916      8.552
REMARK  7 active torsions:
REMARK  status: ('A' for Active; 'I' for Inactive)
REMARK    1  A    between atoms: C_3  and  C_4 
REMARK    2  A    between atoms: C_4  and  C_5 
REMARK    3  A    between atoms: C_5  and  C_6 
REMARK       I    between atoms: C_6  and  N_7 
REMARK    4  A    between atoms: N_7  and  C_8 
REMARK    5  A    between atoms: C_8  and  C_9 
REMARK    6  A    between atoms: C_9  and  C_10 
REMARK    7  A    between atoms: C_29  and  O_30 
ROOT
HETATM    1  C   UNL     1      44.156 -14.953   6.321  1.00  0.00     0.107 C 
ENDROOT
BRANCH   1   2
HETATM    2  C   UNL     1      43.218 -16.158   6.470  1.00  0.00     0.055 C 
BRANCH   2   3
HETATM    3  C   UNL     1      43.567 -17.491   5.817  1.00  0.00     0.025 A 
HETATM    4  C   UNL     1      43.312 -17.727   4.505  1.00  0.00    -0.037 A 
HETATM    5  C   UNL     1      42.608 -16.737   3.602  1.00  0.00     0.050 C 
HETATM    6  C   UNL     1      43.693 -19.019   3.895  1.00  0.00     0.005 A 
HETATM    7  C   UNL     1      44.257 -20.014   4.696  1.00  0.00     0.099 A 
HETATM    8  C   UNL     1      43.520 -19.310   2.535  1.00  0.00     0.017 A 
HETATM    9  O   UNL     1      44.475 -19.761   6.062  1.00  0.00    -0.274 OA
HETATM   10  C   UNL     1      44.631 -21.282   4.206  1.00  0.00     0.006 A 
HETATM   11  C   UNL     1      44.169 -18.554   6.669  1.00  0.00     0.295 A 
HETATM   12  O   UNL     1      44.386 -18.404   7.866  1.00  0.00    -0.259 OA
HETATM   13  C   UNL     1      45.224 -22.326   5.109  1.00  0.00     0.054 C 
HETATM   14  C   UNL     1      44.429 -21.529   2.845  1.00  0.00     0.074 A 
HETATM   15  C   UNL     1      43.883 -20.555   2.016  1.00  0.00     0.038 A 
BRANCH  14  16
HETATM   16  O   UNL     1      44.748 -22.712   2.242  1.00  0.00    -0.360 OA
HETATM   17  H   UNL     1      45.691 -22.722   2.017  1.00  0.00     0.217 HD
ENDBRANCH  14  16
ENDBRANCH   2   3
ENDBRANCH   1   2
BRANCH   1  18
HETATM   18  C   UNL     1      43.419 -13.768   5.724  1.00  0.00     0.217 C 
HETATM   19  N   UNL     1      42.568 -13.147   6.615  1.00  0.00    -0.361 N 
HETATM   20  H   UNL     1      42.310 -13.660   7.449  1.00  0.00     0.162 HD
HETATM   21  O   UNL     1      43.564 -13.397   4.564  1.00  0.00    -0.274 OA
BRANCH  19  22
HETATM   22  C   UNL     1      41.690 -12.084   6.155  1.00  0.00     0.127 C 
BRANCH  22  23
HETATM   23  C   UNL     1      41.763 -10.837   7.036  1.00  0.00     0.060 C 
BRANCH  23  24
HETATM   24  C   UNL     1      40.838 -10.928   8.208  1.00  0.00    -0.029 A 
HETATM   25  C   UNL     1      41.183 -10.742   9.586  1.00  0.00    -0.000 A 
HETATM   26  C   UNL     1      40.014 -10.887  10.334  1.00  0.00     0.043 A 
HETATM   27  C   UNL     1      42.386 -10.453  10.264  1.00  0.00     0.038 A 
HETATM   28  C   UNL     1      39.982 -10.757  11.728  1.00  0.00     0.032 A 
HETATM   29  N   UNL     1      38.999 -11.158   9.447  1.00  0.00    -0.365 N 
HETATM   30  C   UNL     1      41.186 -10.472  12.379  1.00  0.00     0.026 A 
HETATM   31  C   UNL     1      42.367 -10.325  11.656  1.00  0.00     0.035 A 
HETATM   32 CL   UNL     1      43.834  -9.977  12.490  1.00  0.00    -0.084 Cl
HETATM   33  H   UNL     1      38.034 -11.307   9.710  1.00  0.00     0.165 HD
HETATM   34  C   UNL     1      39.482 -11.188   8.167  1.00  0.00     0.096 A 
ENDBRANCH  23  24
ENDBRANCH  22  23
ENDBRANCH  19  22
ENDBRANCH   1  18
TORSDOF 7
ENDMDL
MODEL 3
REMARK VINA RESULT:      -9.5      3.247      4.606
REMARK  7 active torsions:
REMARK  status: ('A' for Active; 'I' for Inactive)
REMARK    1  A    between atoms: C_3  and  C_4 
REMARK    2  A    between atoms: C_4  and  C_5 
REMARK    3  A    between atoms: C_5  and  C_6 
REMARK       I    between atoms: C_6  and  N_7 
REMARK    4  A    between atoms: N_7  and  C_8 
REMARK    5  A    between atoms: C_8  and  C_9 
REMARK    6  A    between atoms: C_9  and  C_10 
REMARK    7  A    between atoms: C_29  and  O_30 
ROOT
HETATM    1  C   UNL     1      44.359 -15.130   6.716  1.00  0.00     0.107 C 
ENDROOT
BRANCH   1   2
HETATM    2  C   UNL     1      43.370 -16.301   6.767  1.00  0.00     0.055 C 
BRANCH   2   3
HETATM    3  C   UNL     1      43.683 -17.608   6.045  1.00  0.00     0.025 A 
HETATM    4  C   UNL     1      43.444 -17.761   4.719  1.00  0.00    -0.037 A 
HETATM    5  C   UNL     1      42.792 -16.697   3.862  1.00  0.00     0.050 C 
HETATM    6  C   UNL     1      43.791 -19.029   4.043  1.00  0.00     0.005 A 
HETATM    7  C   UNL     1      44.304 -20.087   4.795  1.00  0.00     0.099 A 
HETATM    8  C   UNL     1      43.632 -19.238   2.666  1.00  0.00     0.017 A 
HETATM    9  O   UNL     1      44.506 -19.919   6.177  1.00  0.00    -0.274 OA
HETATM   10  C   UNL     1      44.642 -21.339   4.241  1.00  0.00     0.006 A 
HETATM   11  C   UNL     1      44.232 -18.738   6.845  1.00  0.00     0.295 A 
HETATM   12  O   UNL     1      44.432 -18.662   8.053  1.00  0.00    -0.259 OA
HETATM   13  C   UNL     1      45.182 -22.452   5.093  1.00  0.00     0.054 C 
HETATM   14  C   UNL     1      44.457 -21.502   2.865  1.00  0.00     0.074 A 
HETATM   15  C   UNL     1      43.960 -20.465   2.084  1.00  0.00     0.038 A 
BRANCH  14  16
HETATM   16  O   UNL     1      44.745 -22.660   2.202  1.00  0.00    -0.360 OA
HETATM   17  H   UNL     1      45.540 -23.066   2.579  1.00  0.00     0.217 HD
ENDBRANCH  14  16
ENDBRANCH   2   3
ENDBRANCH   1   2
BRANCH   1  18
HETATM   18  C   UNL     1      43.789 -13.978   5.911  1.00  0.00     0.217 C 
HETATM   19  N   UNL     1      42.687 -13.392   6.499  1.00  0.00    -0.361 N 
HETATM   20  H   UNL     1      42.212 -13.915   7.225  1.00  0.00     0.162 HD
HETATM   21  O   UNL     1      44.260 -13.602   4.842  1.00  0.00    -0.274 OA
BRANCH  19  22
HETATM   22  C   UNL     1      41.945 -12.366   5.784  1.00  0.00     0.127 C 
BRANCH  22  23
HETATM   23  C   UNL     1      40.434 -12.498   5.964  1.00  0.00     0.060 C 
BRANCH  23  24
HETATM   24  C   UNL     1      39.695 -12.227   4.692  1.00  0.00    -0.029 A 
HETATM   25  C   UNL     1      39.489 -13.144   3.611  1.00  0.00    -0.000 A 
HETATM   26  C   UNL     1      38.726 -12.487   2.644  1.00  0.00     0.043 A 
HETATM   27  C   UNL     1      39.877 -14.478   3.371  1.00  0.00     0.038 A 
HETATM   28  C   UNL     1      38.326 -13.095   1.448  1.00  0.00     0.032 A 
HETATM   29  N   UNL     1      38.483 -11.218   3.116  1.00  0.00    -0.365 N 
HETATM   30  C   UNL     1      38.724 -14.419   1.231  1.00  0.00     0.026 A 
HETATM   31  C   UNL     1      39.488 -15.096   2.179  1.00  0.00     0.035 A 
HETATM   32 CL   UNL     1      39.962 -16.725   1.878  1.00  0.00    -0.084 Cl
HETATM   33  H   UNL     1      37.946 -10.518   2.623  1.00  0.00     0.165 HD
HETATM   34  C   UNL     1      39.062 -11.050   4.344  1.00  0.00     0.096 A 
ENDBRANCH  23  24
ENDBRANCH  22  23
ENDBRANCH  19  22
ENDBRANCH   1  18
TORSDOF 7
ENDMDL
MODEL 4
REMARK VINA RESULT:      -9.5      2.484      2.932
REMARK  7 active torsions:
REMARK  status: ('A' for Active; 'I' for Inactive)
REMARK    1  A    between atoms: C_3  and  C_4 
REMARK    2  A    between atoms: C_4  and  C_5 
REMARK    3  A    between atoms: C_5  and  C_6 
REMARK       I    between atoms: C_6  and  N_7 
REMARK    4  A    between atoms: N_7  and  C_8 
REMARK    5  A    between atoms: C_8  and  C_9 
REMARK    6  A    between atoms: C_9  and  C_10 
REMARK    7  A    between atoms: C_29  and  O_30 
ROOT
HETATM    1  C   UNL     1      41.825 -15.214   3.872  1.00  0.00     0.107 C 
ENDROOT
BRANCH   1   2
HETATM    2  C   UNL     1      43.261 -15.702   3.643  1.00  0.00     0.055 C 
BRANCH   2   3
HETATM    3  C   UNL     1      43.555 -17.189   3.483  1.00  0.00     0.025 A 
HETATM    4  C   UNL     1      43.934 -17.955   4.536  1.00  0.00    -0.037 A 
HETATM    5  C   UNL     1      44.165 -17.404   5.926  1.00  0.00     0.050 C 
HETATM    6  C   UNL     1      44.178 -19.402   4.353  1.00  0.00     0.005 A 
HETATM    7  C   UNL     1      44.078 -19.956   3.076  1.00  0.00     0.099 A 
HETATM    8  C   UNL     1      44.510 -20.267   5.404  1.00  0.00     0.017 A 
HETATM    9  O   UNL     1      43.723 -19.134   1.991  1.00  0.00    -0.274 OA
HETATM   10  C   UNL     1      44.315 -21.320   2.802  1.00  0.00     0.006 A 
HETATM   11  C   UNL     1      43.448 -17.783   2.121  1.00  0.00     0.295 A 
HETATM   12  O   UNL     1      43.145 -17.127   1.131  1.00  0.00    -0.259 OA
HETATM   13  C   UNL     1      44.206 -21.868   1.409  1.00  0.00     0.054 C 
HETATM   14  C   UNL     1      44.652 -22.140   3.882  1.00  0.00     0.074 A 
HETATM   15  C   UNL     1      44.747 -21.624   5.170  1.00  0.00     0.038 A 
BRANCH  14  16
HETATM   16  O   UNL     1      44.905 -23.477   3.758  1.00  0.00    -0.360 OA
HETATM   17  H   UNL     1      45.773 -23.684   4.136  1.00  0.00     0.217 HD
ENDBRANCH  14  16
ENDBRANCH   2   3
ENDBRANCH   1   2
BRANCH   1  18
HETATM   18  C   UNL     1      41.309 -14.467   2.656  1.00  0.00     0.217 C 
HETATM   19  N   UNL     1      40.700 -15.288   1.727  1.00  0.00    -0.361 N 
HETATM   20  H   UNL     1      40.880 -16.282   1.794  1.00  0.00     0.162 HD
HETATM   21  O   UNL     1      41.421 -13.255   2.509  1.00  0.00    -0.274 OA
BRANCH  19  22
HETATM   22  C   UNL     1      40.278 -14.743   0.447  1.00  0.00     0.127 C 
BRANCH  22  23
HETATM   23  C   UNL     1      41.192 -15.165  -0.703  1.00  0.00     0.060 C 
BRANCH  23  24
HETATM   24  C   UNL     1      40.972 -14.331  -1.925  1.00  0.00    -0.029 A 
HETATM   25  C   UNL     1      41.570 -13.062  -2.214  1.00  0.00    -0.000 A 
HETATM   26  C   UNL     1      41.111 -12.657  -3.468  1.00  0.00     0.043 A 
HETATM   27  C   UNL     1      42.470 -12.224  -1.523  1.00  0.00     0.038 A 
HETATM   28  C   UNL     1      41.505 -11.458  -4.072  1.00  0.00     0.032 A 
HETATM   29  N   UNL     1      40.260 -13.638  -3.921  1.00  0.00    -0.365 N 
HETATM   30  C   UNL     1      42.397 -10.642  -3.369  1.00  0.00     0.026 A 
HETATM   31  C   UNL     1      42.869 -11.022  -2.115  1.00  0.00     0.035 A 
HETATM   32 CL   UNL     1      43.966  -9.992  -1.275  1.00  0.00    -0.084 Cl
HETATM   33  H   UNL     1      39.780 -13.614  -4.811  1.00  0.00     0.165 HD
HETATM   34  C   UNL     1      40.166 -14.648  -3.002  1.00  0.00     0.096 A 
ENDBRANCH  23  24
ENDBRANCH  22  23
ENDBRANCH  19  22
ENDBRANCH   1  18
TORSDOF 7
ENDMDL
MODEL 5
REMARK VINA RESULT:      -9.4      2.565      3.589
REMARK  7 active torsions:
REMARK  status: ('A' for Active; 'I' for Inactive)
REMARK    1  A    between atoms: C_3  and  C_4 
REMARK    2  A    between atoms: C_4  and  C_5 
REMARK    3  A    between atoms: C_5  and  C_6 
REMARK       I    between atoms: C_6  and  N_7 
REMARK    4  A    between atoms: N_7  and  C_8 
REMARK    5  A    between atoms: C_8  and  C_9 
REMARK    6  A    between atoms: C_9  and  C_10 
REMARK    7  A    between atoms: C_29  and  O_30 
ROOT
HETATM    1  C   UNL     1      43.966 -14.748   5.776  1.00  0.00     0.107 C 
ENDROOT
BRANCH   1   2
HETATM    2  C   UNL     1      42.999 -15.933   5.890  1.00  0.00     0.055 C 
BRANCH   2   3
HETATM    3  C   UNL     1      43.394 -17.305   5.353  1.00  0.00     0.025 A 
HETATM    4  C   UNL     1      43.133 -17.668   4.073  1.00  0.00    -0.037 A 
HETATM    5  C   UNL     1      42.378 -16.793   3.096  1.00  0.00     0.050 C 
HETATM    6  C   UNL     1      43.560 -18.993   3.575  1.00  0.00     0.005 A 
HETATM    7  C   UNL     1      44.175 -19.888   4.452  1.00  0.00     0.099 A 
HETATM    8  C   UNL     1      43.382 -19.413   2.250  1.00  0.00     0.017 A 
HETATM    9  O   UNL     1      44.399 -19.505   5.787  1.00  0.00    -0.274 OA
HETATM   10  C   UNL     1      44.595 -21.180   4.072  1.00  0.00     0.006 A 
HETATM   11  C   UNL     1      44.051 -18.261   6.287  1.00  0.00     0.295 A 
HETATM   12  O   UNL     1      44.277 -17.995   7.462  1.00  0.00    -0.259 OA
HETATM   13  C   UNL     1      45.242 -22.113   5.055  1.00  0.00     0.054 C 
HETATM   14  C   UNL     1      44.386 -21.556   2.742  1.00  0.00     0.074 A 
HETATM   15  C   UNL     1      43.789 -20.684   1.838  1.00  0.00     0.038 A 
BRANCH  14  16
HETATM   16  O   UNL     1      44.746 -22.775   2.243  1.00  0.00    -0.360 OA
HETATM   17  H   UNL     1      43.956 -23.313   2.086  1.00  0.00     0.217 HD
ENDBRANCH  14  16
ENDBRANCH   2   3
ENDBRANCH   1   2
BRANCH   1  18
HETATM   18  C   UNL     1      43.544 -13.813   4.658  1.00  0.00     0.217 C 
HETATM   19  N   UNL     1      42.355 -13.159   4.910  1.00  0.00    -0.361 N 
HETATM   20  H   UNL     1      41.761 -13.535   5.639  1.00  0.00     0.162 HD
HETATM   21  O   UNL     1      44.194 -13.653   3.630  1.00  0.00    -0.274 OA
BRANCH  19  22
HETATM   22  C   UNL     1      41.749 -12.336   3.877  1.00  0.00     0.127 C 
BRANCH  22  23
HETATM   23  C   UNL     1      40.287 -12.698   3.618  1.00  0.00     0.060 C 
BRANCH  23  24
HETATM   24  C   UNL     1      40.140 -13.637   2.463  1.00  0.00    -0.029 A 
HETATM   25  C   UNL     1      40.753 -13.510   1.175  1.00  0.00    -0.000 A 
HETATM   26  C   UNL     1      40.371 -14.618   0.417  1.00  0.00     0.043 A 
HETATM   27  C   UNL     1      41.608 -12.555   0.587  1.00  0.00     0.038 A 
HETATM   28  C   UNL     1      40.800 -14.825  -0.899  1.00  0.00     0.032 A 
HETATM   29  N   UNL     1      39.551 -15.386   1.212  1.00  0.00    -0.365 N 
HETATM   30  C   UNL     1      41.646 -13.864  -1.462  1.00  0.00     0.026 A 
HETATM   31  C   UNL     1      42.041 -12.748  -0.729  1.00  0.00     0.035 A 
HETATM   32 CL   UNL     1      43.082 -11.582  -1.454  1.00  0.00    -0.084 Cl
HETATM   33  H   UNL     1      39.127 -16.257   0.923  1.00  0.00     0.165 HD
HETATM   34  C   UNL     1      39.403 -14.805   2.442  1.00  0.00     0.096 A 
ENDBRANCH  23  24
ENDBRANCH  22  23
ENDBRANCH  19  22
ENDBRANCH   1  18
TORSDOF 7
ENDMDL
MODEL 6
REMARK VINA RESULT:      -9.4      3.012      5.115
REMARK  7 active torsions:
REMARK  status: ('A' for Active; 'I' for Inactive)
REMARK    1  A    between atoms: C_3  and  C_4 
REMARK    2  A    between atoms: C_4  and  C_5 
REMARK    3  A    between atoms: C_5  and  C_6 
REMARK       I    between atoms: C_6  and  N_7 
REMARK    4  A    between atoms: N_7  and  C_8 
REMARK    5  A    between atoms: C_8  and  C_9 
REMARK    6  A    between atoms: C_9  and  C_10 
REMARK    7  A    between atoms: C_29  and  O_30 
ROOT
HETATM    1  C   UNL     1      41.497 -17.022   0.568  1.00  0.00     0.107 C 
ENDROOT
BRANCH   1   2
HETATM    2  C   UNL     1      42.927 -17.213   1.088  1.00  0.00     0.055 C 
BRANCH   2   3
HETATM    3  C   UNL     1      43.172 -17.677   2.520  1.00  0.00     0.025 A 
HETATM    4  C   UNL     1      43.408 -16.794   3.522  1.00  0.00    -0.037 A 
HETATM    5  C   UNL     1      43.519 -15.300   3.307  1.00  0.00     0.050 C 
HETATM    6  C   UNL     1      43.608 -17.276   4.905  1.00  0.00     0.005 A 
HETATM    7  C   UNL     1      43.616 -18.649   5.157  1.00  0.00     0.099 A 
HETATM    8  C   UNL     1      43.793 -16.422   6.001  1.00  0.00     0.017 A 
HETATM    9  O   UNL     1      43.410 -19.548   4.095  1.00  0.00    -0.274 OA
HETATM   10  C   UNL     1      43.821 -19.200   6.439  1.00  0.00     0.006 A 
HETATM   11  C   UNL     1      43.180 -19.142   2.791  1.00  0.00     0.295 A 
HETATM   12  O   UNL     1      43.008 -19.982   1.915  1.00  0.00    -0.259 OA
HETATM   13  C   UNL     1      43.832 -20.686   6.659  1.00  0.00     0.054 C 
HETATM   14  C   UNL     1      44.010 -18.308   7.497  1.00  0.00     0.074 A 
HETATM   15  C   UNL     1      43.995 -16.934   7.285  1.00  0.00     0.038 A 
BRANCH  14  16
HETATM   16  O   UNL     1      44.217 -18.707   8.787  1.00  0.00    -0.360 OA
HETATM   17  H   UNL     1      44.792 -18.072   9.239  1.00  0.00     0.217 HD
ENDBRANCH  14  16
ENDBRANCH   2   3
ENDBRANCH   1   2
BRANCH   1  18
HETATM   18  C   UNL     1      41.193 -15.551   0.354  1.00  0.00     0.217 C 
HETATM   19  N   UNL     1      39.842 -15.270   0.318  1.00  0.00    -0.361 N 
HETATM   20  H   UNL     1      39.208 -16.046   0.169  1.00  0.00     0.162 HD
HETATM   21  O   UNL     1      42.061 -14.694   0.225  1.00  0.00    -0.274 OA
BRANCH  19  22
HETATM   22  C   UNL     1      39.390 -13.930  -0.017  1.00  0.00     0.127 C 
BRANCH  22  23
HETATM   23  C   UNL     1      38.714 -13.225   1.158  1.00  0.00     0.060 C 
BRANCH  23  24
HETATM   24  C   UNL     1      39.709 -12.576   2.067  1.00  0.00    -0.029 A 
HETATM   25  C   UNL     1      40.209 -13.100   3.302  1.00  0.00    -0.000 A 
HETATM   26  C   UNL     1      41.137 -12.184   3.802  1.00  0.00     0.043 A 
HETATM   27  C   UNL     1      39.962 -14.278   4.037  1.00  0.00     0.038 A 
HETATM   28  C   UNL     1      41.834 -12.384   4.999  1.00  0.00     0.032 A 
HETATM   29  N   UNL     1      41.193 -11.140   2.909  1.00  0.00    -0.365 N 
HETATM   30  C   UNL     1      41.572 -13.558   5.712  1.00  0.00     0.026 A 
HETATM   31  C   UNL     1      40.649 -14.487   5.237  1.00  0.00     0.035 A 
HETATM   32 CL   UNL     1      40.349 -15.922   6.142  1.00  0.00    -0.084 Cl
HETATM   33  H   UNL     1      41.788 -10.330   3.012  1.00  0.00     0.165 HD
HETATM   34  C   UNL     1      40.338 -11.363   1.863  1.00  0.00     0.096 A 
ENDBRANCH  23  24
ENDBRANCH  22  23
ENDBRANCH  19  22
ENDBRANCH   1  18
TORSDOF 7
ENDMDL
MODEL 7
REMARK VINA RESULT:      -9.0      5.474      8.009
REMARK  7 active torsions:
REMARK  status: ('A' for Active; 'I' for Inactive)
REMARK    1  A    between atoms: C_3  and  C_4 
REMARK    2  A    between atoms: C_4  and  C_5 
REMARK    3  A    between atoms: C_5  and  C_6 
REMARK       I    between atoms: C_6  and  N_7 
REMARK    4  A    between atoms: N_7  and  C_8 
REMARK    5  A    between atoms: C_8  and  C_9 
REMARK    6  A    between atoms: C_9  and  C_10 
REMARK    7  A    between atoms: C_29  and  O_30 
ROOT
HETATM    1  C   UNL     1      40.996 -15.767   5.997  1.00  0.00     0.107 C 
ENDROOT
BRANCH   1   2
HETATM    2  C   UNL     1      42.490 -16.046   5.786  1.00  0.00     0.055 C 
BRANCH   2   3
HETATM    3  C   UNL     1      42.949 -17.361   5.166  1.00  0.00     0.025 A 
HETATM    4  C   UNL     1      43.438 -18.371   5.926  1.00  0.00    -0.037 A 
HETATM    5  C   UNL     1      43.638 -18.266   7.423  1.00  0.00     0.050 C 
HETATM    6  C   UNL     1      43.843 -19.646   5.297  1.00  0.00     0.005 A 
HETATM    7  C   UNL     1      43.777 -19.775   3.908  1.00  0.00     0.099 A 
HETATM    8  C   UNL     1      44.297 -20.755   6.023  1.00  0.00     0.017 A 
HETATM    9  O   UNL     1      43.304 -18.699   3.136  1.00  0.00    -0.274 OA
HETATM   10  C   UNL     1      44.162 -20.944   3.220  1.00  0.00     0.006 A 
HETATM   11  C   UNL     1      42.878 -17.501   3.684  1.00  0.00     0.295 A 
HETATM   12  O   UNL     1      42.478 -16.605   2.950  1.00  0.00    -0.259 OA
HETATM   13  C   UNL     1      44.084 -21.032   1.723  1.00  0.00     0.054 C 
HETATM   14  C   UNL     1      44.618 -22.019   3.988  1.00  0.00     0.074 A 
HETATM   15  C   UNL     1      44.683 -21.930   5.374  1.00  0.00     0.038 A 
BRANCH  14  16
HETATM   16  O   UNL     1      45.020 -23.209   3.450  1.00  0.00    -0.360 OA
HETATM   17  H   UNL     1      45.525 -23.048   2.639  1.00  0.00     0.217 HD
ENDBRANCH  14  16
ENDBRANCH   2   3
ENDBRANCH   1   2
BRANCH   1  18
HETATM   18  C   UNL     1      40.659 -14.333   5.632  1.00  0.00     0.217 C 
HETATM   19  N   UNL     1      39.971 -13.663   6.624  1.00  0.00    -0.361 N 
HETATM   20  H   UNL     1      39.534 -14.222   7.347  1.00  0.00     0.162 HD
HETATM   21  O   UNL     1      40.965 -13.818   4.562  1.00  0.00    -0.274 OA
BRANCH  19  22
HETATM   22  C   UNL     1      39.456 -12.328   6.372  1.00  0.00     0.127 C 
BRANCH  22  23
HETATM   23  C   UNL     1      40.413 -11.230   6.837  1.00  0.00     0.060 C 
BRANCH  23  24
HETATM   24  C   UNL     1      40.336 -11.014   8.315  1.00  0.00    -0.029 A 
HETATM   25  C   UNL     1      41.439 -10.838   9.211  1.00  0.00    -0.000 A 
HETATM   26  C   UNL     1      40.914 -10.637  10.489  1.00  0.00     0.043 A 
HETATM   27  C   UNL     1      42.840 -10.824   9.049  1.00  0.00     0.038 A 
HETATM   28  C   UNL     1      41.715 -10.420  11.616  1.00  0.00     0.032 A 
HETATM   29  N   UNL     1      39.544 -10.695  10.374  1.00  0.00    -0.365 N 
HETATM   30  C   UNL     1      43.102 -10.411  11.431  1.00  0.00     0.026 A 
HETATM   31  C   UNL     1      43.652 -10.612  10.168  1.00  0.00     0.035 A 
HETATM   32 CL   UNL     1      45.364 -10.597   9.977  1.00  0.00    -0.084 Cl
HETATM   33  H   UNL     1      38.901 -10.578  11.145  1.00  0.00     0.165 HD
HETATM   34  C   UNL     1      39.186 -10.923   9.074  1.00  0.00     0.096 A 
ENDBRANCH  23  24
ENDBRANCH  22  23
ENDBRANCH  19  22
ENDBRANCH   1  18
TORSDOF 7
ENDMDL
MODEL 8
REMARK VINA RESULT:      -9.0      1.781      2.286
REMARK  7 active torsions:
REMARK  status: ('A' for Active; 'I' for Inactive)
REMARK    1  A    between atoms: C_3  and  C_4 
REMARK    2  A    between atoms: C_4  and  C_5 
REMARK    3  A    between atoms: C_5  and  C_6 
REMARK       I    between atoms: C_6  and  N_7 
REMARK    4  A    between atoms: N_7  and  C_8 
REMARK    5  A    between atoms: C_8  and  C_9 
REMARK    6  A    between atoms: C_9  and  C_10 
REMARK    7  A    between atoms: C_29  and  O_30 
ROOT
HETATM    1  C   UNL     1      42.061 -15.284   4.990  1.00  0.00     0.107 C 
ENDROOT
BRANCH   1   2
HETATM    2  C   UNL     1      43.101 -15.702   3.942  1.00  0.00     0.055 C 
BRANCH   2   3
HETATM    3  C   UNL     1      43.406 -17.177   3.704  1.00  0.00     0.025 A 
HETATM    4  C   UNL     1      43.922 -17.962   4.683  1.00  0.00    -0.037 A 
HETATM    5  C   UNL     1      44.301 -17.443   6.053  1.00  0.00     0.050 C 
HETATM    6  C   UNL     1      44.175 -19.396   4.429  1.00  0.00     0.005 A 
HETATM    7  C   UNL     1      43.939 -19.918   3.156  1.00  0.00     0.099 A 
HETATM    8  C   UNL     1      44.646 -20.281   5.408  1.00  0.00     0.017 A 
HETATM    9  O   UNL     1      43.442 -19.076   2.144  1.00  0.00    -0.274 OA
HETATM   10  C   UNL     1      44.172 -21.267   2.816  1.00  0.00     0.006 A 
HETATM   11  C   UNL     1      43.154 -17.736   2.346  1.00  0.00     0.295 A 
HETATM   12  O   UNL     1      42.723 -17.061   1.418  1.00  0.00    -0.259 OA
HETATM   13  C   UNL     1      43.914 -21.780   1.429  1.00  0.00     0.054 C 
HETATM   14  C   UNL     1      44.651 -22.108   3.825  1.00  0.00     0.074 A 
HETATM   15  C   UNL     1      44.884 -21.625   5.107  1.00  0.00     0.038 A 
BRANCH  14  16
HETATM   16  O   UNL     1      44.916 -23.434   3.632  1.00  0.00    -0.360 OA
HETATM   17  H   UNL     1      45.748 -23.535   3.145  1.00  0.00     0.217 HD
ENDBRANCH  14  16
ENDBRANCH   2   3
ENDBRANCH   1   2
BRANCH   1  18
HETATM   18  C   UNL     1      40.706 -15.061   4.345  1.00  0.00     0.217 C 
HETATM   19  N   UNL     1      40.735 -15.139   2.967  1.00  0.00    -0.361 N 
HETATM   20  H   UNL     1      41.639 -15.065   2.515  1.00  0.00     0.162 HD
HETATM   21  O   UNL     1      39.683 -14.834   4.983  1.00  0.00    -0.274 OA
BRANCH  19  22
HETATM   22  C   UNL     1      39.546 -14.812   2.199  1.00  0.00     0.127 C 
BRANCH  22  23
HETATM   23  C   UNL     1      39.317 -13.306   2.079  1.00  0.00     0.060 C 
BRANCH  23  24
HETATM   24  C   UNL     1      40.467 -12.618   1.415  1.00  0.00    -0.029 A 
HETATM   25  C   UNL     1      41.017 -12.920   0.127  1.00  0.00    -0.000 A 
HETATM   26  C   UNL     1      42.054 -12.017  -0.109  1.00  0.00     0.043 A 
HETATM   27  C   UNL     1      40.718 -13.878  -0.864  1.00  0.00     0.038 A 
HETATM   28  C   UNL     1      42.810 -12.018  -1.287  1.00  0.00     0.032 A 
HETATM   29  N   UNL     1      42.137 -11.202   0.996  1.00  0.00    -0.365 N 
HETATM   30  C   UNL     1      42.497 -12.976  -2.256  1.00  0.00     0.026 A 
HETATM   31  C   UNL     1      41.468 -13.891  -2.044  1.00  0.00     0.035 A 
HETATM   32 CL   UNL     1      41.111 -15.060  -3.258  1.00  0.00    -0.084 Cl
HETATM   33  H   UNL     1      42.801 -10.447   1.101  1.00  0.00     0.165 HD
HETATM   34  C   UNL     1      41.191 -11.555   1.919  1.00  0.00     0.096 A 
ENDBRANCH  23  24
ENDBRANCH  22  23
ENDBRANCH  19  22
ENDBRANCH   1  18
TORSDOF 7
ENDMDL
MODEL 9
REMARK VINA RESULT:      -9.0      3.470      8.299
REMARK  7 active torsions:
REMARK  status: ('A' for Active; 'I' for Inactive)
REMARK    1  A    between atoms: C_3  and  C_4 
REMARK    2  A    between atoms: C_4  and  C_5 
REMARK    3  A    between atoms: C_5  and  C_6 
REMARK       I    between atoms: C_6  and  N_7 
REMARK    4  A    between atoms: N_7  and  C_8 
REMARK    5  A    between atoms: C_8  and  C_9 
REMARK    6  A    between atoms: C_9  and  C_10 
REMARK    7  A    between atoms: C_29  and  O_30 
ROOT
HETATM    1  C   UNL     1      39.281 -12.754   2.891  1.00  0.00     0.107 C 
ENDROOT
BRANCH   1   2
HETATM    2  C   UNL     1      39.808 -12.230   1.549  1.00  0.00     0.055 C 
BRANCH   2   3
HETATM    3  C   UNL     1      39.474 -12.958   0.252  1.00  0.00     0.025 A 
HETATM    4  C   UNL     1      40.360 -13.797  -0.340  1.00  0.00    -0.037 A 
HETATM    5  C   UNL     1      41.761 -14.031   0.182  1.00  0.00     0.050 C 
HETATM    6  C   UNL     1      39.991 -14.513  -1.580  1.00  0.00     0.005 A 
HETATM    7  C   UNL     1      38.749 -14.267  -2.168  1.00  0.00     0.099 A 
HETATM    8  C   UNL     1      40.828 -15.442  -2.212  1.00  0.00     0.017 A 
HETATM    9  O   UNL     1      37.862 -13.362  -1.559  1.00  0.00    -0.274 OA
HETATM   10  C   UNL     1      38.321 -14.887  -3.361  1.00  0.00     0.006 A 
HETATM   11  C   UNL     1      38.149 -12.698  -0.378  1.00  0.00     0.295 A 
HETATM   12  O   UNL     1      37.328 -11.922   0.097  1.00  0.00    -0.259 OA
HETATM   13  C   UNL     1      36.980 -14.582  -3.963  1.00  0.00     0.054 C 
HETATM   14  C   UNL     1      39.196 -15.798  -3.959  1.00  0.00     0.074 A 
HETATM   15  C   UNL     1      40.435 -16.077  -3.392  1.00  0.00     0.038 A 
BRANCH  14  16
HETATM   16  O   UNL     1      38.906 -16.469  -5.113  1.00  0.00    -0.360 OA
HETATM   17  H   UNL     1      39.287 -17.359  -5.081  1.00  0.00     0.217 HD
ENDBRANCH  14  16
ENDBRANCH   2   3
ENDBRANCH   1   2
BRANCH   1  18
HETATM   18  C   UNL     1      40.208 -13.812   3.458  1.00  0.00     0.217 C 
HETATM   19  N   UNL     1      39.850 -15.099   3.109  1.00  0.00    -0.361 N 
HETATM   20  H   UNL     1      38.910 -15.243   2.762  1.00  0.00     0.162 HD
HETATM   21  O   UNL     1      41.181 -13.553   4.159  1.00  0.00    -0.274 OA
BRANCH  19  22
HETATM   22  C   UNL     1      40.558 -16.229   3.688  1.00  0.00     0.127 C 
BRANCH  22  23
HETATM   23  C   UNL     1      41.875 -16.527   2.973  1.00  0.00     0.060 C 
BRANCH  23  24
HETATM   24  C   UNL     1      42.845 -17.236   3.864  1.00  0.00    -0.029 A 
HETATM   25  C   UNL     1      43.448 -18.513   3.628  1.00  0.00    -0.000 A 
HETATM   26  C   UNL     1      44.307 -18.776   4.696  1.00  0.00     0.043 A 
HETATM   27  C   UNL     1      43.346 -19.467   2.594  1.00  0.00     0.038 A 
HETATM   28  C   UNL     1      45.073 -19.944   4.787  1.00  0.00     0.032 A 
HETATM   29  N   UNL     1      44.224 -17.703   5.553  1.00  0.00    -0.365 N 
HETATM   30  C   UNL     1      44.956 -20.876   3.751  1.00  0.00     0.026 A 
HETATM   31  C   UNL     1      44.104 -20.640   2.674  1.00  0.00     0.035 A 
HETATM   32 CL   UNL     1      43.982 -21.811   1.417  1.00  0.00    -0.084 Cl
HETATM   33  H   UNL     1      44.745 -17.618   6.415  1.00  0.00     0.165 HD
HETATM   34  C   UNL     1      43.348 -16.773   5.065  1.00  0.00     0.096 A 
ENDBRANCH  23  24
ENDBRANCH  22  23
ENDBRANCH  19  22
ENDBRANCH   1  18
TORSDOF 7
ENDMDL
MODEL 10
REMARK VINA RESULT:      -8.8      1.887      2.586
REMARK  7 active torsions:
REMARK  status: ('A' for Active; 'I' for Inactive)
REMARK    1  A    between atoms: C_3  and  C_4 
REMARK    2  A    between atoms: C_4  and  C_5 
REMARK    3  A    between atoms: C_5  and  C_6 
REMARK       I    between atoms: C_6  and  N_7 
REMARK    4  A    between atoms: N_7  and  C_8 
REMARK    5  A    between atoms: C_8  and  C_9 
REMARK    6  A    between atoms: C_9  and  C_10 
REMARK    7  A    between atoms: C_29  and  O_30 
ROOT
HETATM    1  C   UNL     1      43.203 -14.622   4.566  1.00  0.00     0.107 C 
ENDROOT
BRANCH   1   2
HETATM    2  C   UNL     1      42.406 -15.872   4.961  1.00  0.00     0.055 C 
BRANCH   2   3
HETATM    3  C   UNL     1      42.957 -17.263   4.666  1.00  0.00     0.025 A 
HETATM    4  C   UNL     1      42.740 -17.874   3.475  1.00  0.00    -0.037 A 
HETATM    5  C   UNL     1      41.890 -17.277   2.375  1.00  0.00     0.050 C 
HETATM    6  C   UNL     1      43.317 -19.209   3.209  1.00  0.00     0.005 A 
HETATM    7  C   UNL     1      44.030 -19.860   4.218  1.00  0.00     0.099 A 
HETATM    8  C   UNL     1      43.189 -19.875   1.982  1.00  0.00     0.017 A 
HETATM    9  O   UNL     1      44.207 -19.224   5.460  1.00  0.00    -0.274 OA
HETATM   10  C   UNL     1      44.596 -21.142   4.063  1.00  0.00     0.006 A 
HETATM   11  C   UNL     1      43.719 -17.959   5.741  1.00  0.00     0.295 A 
HETATM   12  O   UNL     1      43.911 -17.465   6.846  1.00  0.00    -0.259 OA
HETATM   13  C   UNL     1      45.345 -21.807   5.181  1.00  0.00     0.054 C 
HETATM   14  C   UNL     1      44.433 -21.769   2.824  1.00  0.00     0.074 A 
HETATM   15  C   UNL     1      43.741 -21.144   1.793  1.00  0.00     0.038 A 
BRANCH  14  16
HETATM   16  O   UNL     1      44.932 -23.008   2.539  1.00  0.00    -0.360 OA
HETATM   17  H   UNL     1      45.012 -23.525   3.355  1.00  0.00     0.217 HD
ENDBRANCH  14  16
ENDBRANCH   2   3
ENDBRANCH   1   2
BRANCH   1  18
HETATM   18  C   UNL     1      42.502 -13.865   3.454  1.00  0.00     0.217 C 
HETATM   19  N   UNL     1      41.125 -13.885   3.561  1.00  0.00    -0.361 N 
HETATM   20  H   UNL     1      40.715 -14.584   4.168  1.00  0.00     0.162 HD
HETATM   21  O   UNL     1      43.096 -13.292   2.547  1.00  0.00    -0.274 OA
BRANCH  19  22
HETATM   22  C   UNL     1      40.309 -13.323   2.498  1.00  0.00     0.127 C 
BRANCH  22  23
HETATM   23  C   UNL     1      39.698 -14.394   1.595  1.00  0.00     0.060 C 
BRANCH  23  24
HETATM   24  C   UNL     1      40.230 -14.316   0.199  1.00  0.00    -0.029 A 
HETATM   25  C   UNL     1      39.593 -13.699  -0.926  1.00  0.00    -0.000 A 
HETATM   26  C   UNL     1      40.451 -13.832  -2.019  1.00  0.00     0.043 A 
HETATM   27  C   UNL     1      38.365 -13.031  -1.110  1.00  0.00     0.038 A 
HETATM   28  C   UNL     1      40.148 -13.330  -3.290  1.00  0.00     0.032 A 
HETATM   29  N   UNL     1      41.564 -14.509  -1.577  1.00  0.00    -0.365 N 
HETATM   30  C   UNL     1      38.924 -12.672  -3.450  1.00  0.00     0.026 A 
HETATM   31  C   UNL     1      38.049 -12.528  -2.376  1.00  0.00     0.035 A 
HETATM   32 CL   UNL     1      36.548 -11.715  -2.609  1.00  0.00    -0.084 Cl
HETATM   33  H   UNL     1      42.358 -14.744  -2.157  1.00  0.00     0.165 HD
HETATM   34  C   UNL     1      41.442 -14.807  -0.247  1.00  0.00     0.096 A 
ENDBRANCH  23  24
ENDBRANCH  22  23
ENDBRANCH  19  22
ENDBRANCH   1  18
TORSDOF 7
ENDMDL
