MODEL 1
REMARK VINA RESULT:     -10.0      0.000      0.000
REMARK  7 active torsions:
REMARK  status: ('A' for Active; 'I' for Inactive)
REMARK    1  A    between atoms: C_4  and  C_5 
REMARK    2  A    between atoms: N_6  and  C_7 
REMARK    3  A    between atoms: C_14  and  C_15 
REMARK       I    between atoms: C_15  and  N_16 
REMARK    4  A    between atoms: N_16  and  N_17 
REMARK       I    between atoms: N_17  and  C_18 
REMARK    5  A    between atoms: C_18  and  C_19 
REMARK    6  A    between atoms: C_19  and  C_20 
REMARK    7  A    between atoms: C_23  and  O_24 
ROOT
HETATM    1  C   UNL     1      44.129 -17.176   5.866  1.00  0.00     0.164 C 
HETATM    2  N   UNL     1      43.439 -16.409   4.929  1.00  0.00    -0.213 N 
HETATM    3  N   UNL     1      43.496 -15.096   5.298  1.00  0.00    -0.139 NA
HETATM    4  C   UNL     1      44.381 -15.107   6.309  1.00  0.00     0.241 C 
HETATM    5  N   UNL     1      44.799 -16.364   6.664  1.00  0.00    -0.202 NA
ENDROOT
BRANCH   4   6
HETATM    6  C   UNL     1      44.848 -13.880   6.981  1.00  0.00     0.309 C 
HETATM    7  N   UNL     1      43.975 -13.402   7.944  1.00  0.00    -0.261 N 
HETATM    8  H   UNL     1      43.077 -13.857   8.119  1.00  0.00     0.190 HD
HETATM    9  O   UNL     1      45.907 -13.306   6.724  1.00  0.00    -0.262 OA
BRANCH   7  10
HETATM   10  N   UNL     1      44.257 -12.198   8.591  1.00  0.00    -0.267 N 
HETATM   11  C   UNL     1      44.474 -12.207   9.953  1.00  0.00     0.240 C 
HETATM   12  O   UNL     1      44.429 -13.232  10.631  1.00  0.00    -0.272 OA
HETATM   13  H   UNL     1      44.383 -11.377   8.002  1.00  0.00     0.190 HD
BRANCH  11  14
HETATM   14  C   UNL     1      44.752 -10.838  10.541  1.00  0.00     0.143 C 
BRANCH  14  15
HETATM   15  C   UNL     1      43.593 -10.282  11.329  1.00  0.00    -0.049 A 
HETATM   16  C   UNL     1      43.696 -10.085  12.715  1.00  0.00     0.010 A 
HETATM   17  C   UNL     1      42.627  -9.546  13.437  1.00  0.00     0.037 A 
HETATM   18  C   UNL     1      41.454  -9.205  12.773  1.00  0.00     0.065 A 
HETATM   19  C   UNL     1      41.332  -9.397  11.403  1.00  0.00     0.037 A 
HETATM   20  C   UNL     1      42.399  -9.934  10.682  1.00  0.00     0.010 A 
BRANCH  18  21
HETATM   21  O   UNL     1      40.391  -8.670  13.438  1.00  0.00    -0.361 OA
HETATM   22  H   UNL     1      39.819  -9.393  13.741  1.00  0.00     0.217 HD
ENDBRANCH  18  21
ENDBRANCH  14  15
ENDBRANCH  11  14
ENDBRANCH   7  10
ENDBRANCH   4   6
BRANCH   2  23
HETATM   23  C   UNL     1      42.776 -16.773   3.721  1.00  0.00     0.060 A 
HETATM   24  C   UNL     1      41.372 -16.731   3.675  1.00  0.00     0.031 A 
HETATM   25  C   UNL     1      40.692 -17.082   2.506  1.00  0.00     0.002 A 
HETATM   26  C   UNL     1      41.403 -17.459   1.370  1.00  0.00     0.000 A 
HETATM   27  C   UNL     1      42.796 -17.476   1.397  1.00  0.00     0.002 A 
HETATM   28  C   UNL     1      43.484 -17.127   2.564  1.00  0.00     0.031 A 
ENDBRANCH   2  23
BRANCH   1  29
HETATM   29  C   UNL     1      44.102 -18.630   6.036  1.00  0.00     0.012 A 
HETATM   30  C   UNL     1      44.697 -19.449   5.066  1.00  0.00     0.015 A 
HETATM   31  C   UNL     1      44.709 -20.836   5.217  1.00  0.00     0.001 A 
HETATM   32  C   UNL     1      44.139 -21.419   6.347  1.00  0.00     0.000 A 
HETATM   33  C   UNL     1      43.568 -20.615   7.331  1.00  0.00     0.001 A 
HETATM   34  C   UNL     1      43.557 -19.227   7.183  1.00  0.00     0.015 A 
ENDBRANCH   1  29
TORSDOF 7
ENDMDL
MODEL 2
REMARK VINA RESULT:      -9.9      0.420      3.439
REMARK  7 active torsions:
REMARK  status: ('A' for Active; 'I' for Inactive)
REMARK    1  A    between atoms: C_4  and  C_5 
REMARK    2  A    between atoms: N_6  and  C_7 
REMARK    3  A    between atoms: C_14  and  C_15 
REMARK       I    between atoms: C_15  and  N_16 
REMARK    4  A    between atoms: N_16  and  N_17 
REMARK       I    between atoms: N_17  and  C_18 
REMARK    5  A    between atoms: C_18  and  C_19 
REMARK    6  A    between atoms: C_19  and  C_20 
REMARK    7  A    between atoms: C_23  and  O_24 
ROOT
HETATM    1  C   UNL     1      43.437 -16.173   4.975  1.00  0.00     0.164 C 
HETATM    2  N   UNL     1      44.086 -16.994   5.896  1.00  0.00    -0.213 N 
HETATM    3  N   UNL     1      44.813 -16.219   6.752  1.00  0.00    -0.139 NA
HETATM    4  C   UNL     1      44.408 -14.975   6.447  1.00  0.00     0.241 C 
HETATM    5  N   UNL     1      43.552 -14.919   5.377  1.00  0.00    -0.202 NA
ENDROOT
BRANCH   4   6
HETATM    6  C   UNL     1      44.855 -13.780   7.188  1.00  0.00     0.309 C 
HETATM    7  N   UNL     1      43.871 -13.212   7.980  1.00  0.00    -0.261 N 
HETATM    8  H   UNL     1      42.920 -13.585   7.994  1.00  0.00     0.190 HD
HETATM    9  O   UNL     1      45.989 -13.305   7.122  1.00  0.00    -0.262 OA
BRANCH   7  10
HETATM   10  N   UNL     1      44.140 -12.026   8.664  1.00  0.00    -0.267 N 
HETATM   11  C   UNL     1      44.389 -12.078  10.019  1.00  0.00     0.240 C 
HETATM   12  O   UNL     1      44.386 -13.128  10.660  1.00  0.00    -0.272 OA
HETATM   13  H   UNL     1      44.231 -11.181   8.102  1.00  0.00     0.190 HD
BRANCH  11  14
HETATM   14  C   UNL     1      44.649 -10.724  10.650  1.00  0.00     0.143 C 
BRANCH  14  15
HETATM   15  C   UNL     1      43.498 -10.229  11.490  1.00  0.00    -0.049 A 
HETATM   16  C   UNL     1      43.671  -9.958  12.856  1.00  0.00     0.010 A 
HETATM   17  C   UNL     1      42.608  -9.476  13.625  1.00  0.00     0.037 A 
HETATM   18  C   UNL     1      41.370  -9.266  13.028  1.00  0.00     0.065 A 
HETATM   19  C   UNL     1      41.178  -9.531  11.678  1.00  0.00     0.037 A 
HETATM   20  C   UNL     1      42.240 -10.012  10.910  1.00  0.00     0.010 A 
BRANCH  18  21
HETATM   21  O   UNL     1      40.310  -8.789  13.739  1.00  0.00    -0.361 OA
HETATM   22  H   UNL     1      39.851  -9.538  14.152  1.00  0.00     0.217 HD
ENDBRANCH  18  21
ENDBRANCH  14  15
ENDBRANCH  11  14
ENDBRANCH   7  10
ENDBRANCH   4   6
BRANCH   2  23
HETATM   23  C   UNL     1      44.063 -18.409   6.073  1.00  0.00     0.060 A 
HETATM   24  C   UNL     1      44.608 -19.230   5.072  1.00  0.00     0.031 A 
HETATM   25  C   UNL     1      44.600 -20.619   5.214  1.00  0.00     0.002 A 
HETATM   26  C   UNL     1      44.068 -21.201   6.362  1.00  0.00     0.000 A 
HETATM   27  C   UNL     1      43.552 -20.394   7.374  1.00  0.00     0.002 A 
HETATM   28  C   UNL     1      43.555 -19.002   7.236  1.00  0.00     0.031 A 
ENDBRANCH   2  23
BRANCH   1  29
HETATM   29  C   UNL     1      42.785 -16.561   3.724  1.00  0.00     0.012 A 
HETATM   30  C   UNL     1      43.562 -16.774   2.578  1.00  0.00     0.015 A 
HETATM   31  C   UNL     1      42.968 -17.171   1.379  1.00  0.00     0.001 A 
HETATM   32  C   UNL     1      41.590 -17.371   1.317  1.00  0.00     0.000 A 
HETATM   33  C   UNL     1      40.809 -17.186   2.455  1.00  0.00     0.001 A 
HETATM   34  C   UNL     1      41.402 -16.792   3.657  1.00  0.00     0.015 A 
ENDBRANCH   1  29
TORSDOF 7
ENDMDL
MODEL 3
REMARK VINA RESULT:      -9.8      1.583      2.408
REMARK  7 active torsions:
REMARK  status: ('A' for Active; 'I' for Inactive)
REMARK    1  A    between atoms: C_4  and  C_5 
REMARK    2  A    between atoms: N_6  and  C_7 
REMARK    3  A    between atoms: C_14  and  C_15 
REMARK       I    between atoms: C_15  and  N_16 
REMARK    4  A    between atoms: N_16  and  N_17 
REMARK       I    between atoms: N_17  and  C_18 
REMARK    5  A    between atoms: C_18  and  C_19 
REMARK    6  A    between atoms: C_19  and  C_20 
REMARK    7  A    between atoms: C_23  and  O_24 
ROOT
HETATM    1  C   UNL     1      43.905 -18.328   4.884  1.00  0.00     0.164 C 
HETATM    2  N   UNL     1      43.097 -17.343   4.321  1.00  0.00    -0.213 N 
HETATM    3  N   UNL     1      42.845 -16.382   5.257  1.00  0.00    -0.139 NA
HETATM    4  C   UNL     1      43.672 -16.718   6.261  1.00  0.00     0.241 C 
HETATM    5  N   UNL     1      44.347 -17.893   6.051  1.00  0.00    -0.202 NA
ENDROOT
BRANCH   4   6
HETATM    6  C   UNL     1      43.828 -15.902   7.480  1.00  0.00     0.309 C 
HETATM    7  N   UNL     1      44.049 -14.558   7.230  1.00  0.00    -0.261 N 
HETATM    8  H   UNL     1      44.134 -14.203   6.276  1.00  0.00     0.190 HD
HETATM    9  O   UNL     1      43.779 -16.349   8.627  1.00  0.00    -0.262 OA
BRANCH   7  10
HETATM   10  N   UNL     1      44.301 -13.693   8.296  1.00  0.00    -0.267 N 
HETATM   11  C   UNL     1      45.421 -12.889   8.253  1.00  0.00     0.240 C 
HETATM   12  O   UNL     1      46.216 -12.898   7.315  1.00  0.00    -0.272 OA
HETATM   13  H   UNL     1      43.585 -13.631   9.017  1.00  0.00     0.190 HD
BRANCH  11  14
HETATM   14  C   UNL     1      45.593 -12.010   9.476  1.00  0.00     0.143 C 
BRANCH  14  15
HETATM   15  C   UNL     1      44.285 -11.591  10.098  1.00  0.00    -0.049 A 
HETATM   16  C   UNL     1      43.340 -10.861   9.359  1.00  0.00     0.010 A 
HETATM   17  C   UNL     1      42.118 -10.496   9.932  1.00  0.00     0.037 A 
HETATM   18  C   UNL     1      41.841 -10.861  11.245  1.00  0.00     0.065 A 
HETATM   19  C   UNL     1      42.765 -11.579  11.993  1.00  0.00     0.037 A 
HETATM   20  C   UNL     1      43.985 -11.944  11.421  1.00  0.00     0.010 A 
BRANCH  18  21
HETATM   21  O   UNL     1      40.660 -10.533  11.839  1.00  0.00    -0.361 OA
HETATM   22  H   UNL     1      40.529 -11.108  12.610  1.00  0.00     0.217 HD
ENDBRANCH  18  21
ENDBRANCH  14  15
ENDBRANCH  11  14
ENDBRANCH   7  10
ENDBRANCH   4   6
BRANCH   2  23
HETATM   23  C   UNL     1      42.576 -17.195   3.002  1.00  0.00     0.060 A 
HETATM   24  C   UNL     1      41.190 -17.305   2.800  1.00  0.00     0.031 A 
HETATM   25  C   UNL     1      40.648 -17.166   1.520  1.00  0.00     0.002 A 
HETATM   26  C   UNL     1      41.479 -16.898   0.436  1.00  0.00     0.000 A 
HETATM   27  C   UNL     1      42.851 -16.758   0.630  1.00  0.00     0.002 A 
HETATM   28  C   UNL     1      43.401 -16.898   1.909  1.00  0.00     0.031 A 
ENDBRANCH   2  23
BRANCH   1  29
HETATM   29  C   UNL     1      44.198 -19.663   4.360  1.00  0.00     0.012 A 
HETATM   30  C   UNL     1      44.573 -20.684   5.245  1.00  0.00     0.015 A 
HETATM   31  C   UNL     1      44.832 -21.973   4.775  1.00  0.00     0.001 A 
HETATM   32  C   UNL     1      44.704 -22.257   3.417  1.00  0.00     0.000 A 
HETATM   33  C   UNL     1      44.308 -21.259   2.530  1.00  0.00     0.001 A 
HETATM   34  C   UNL     1      44.046 -19.969   2.999  1.00  0.00     0.015 A 
ENDBRANCH   1  29
TORSDOF 7
ENDMDL
MODEL 4
REMARK VINA RESULT:      -9.6      1.572      4.051
REMARK  7 active torsions:
REMARK  status: ('A' for Active; 'I' for Inactive)
REMARK    1  A    between atoms: C_4  and  C_5 
REMARK    2  A    between atoms: N_6  and  C_7 
REMARK    3  A    between atoms: C_14  and  C_15 
REMARK       I    between atoms: C_15  and  N_16 
REMARK    4  A    between atoms: N_16  and  N_17 
REMARK       I    between atoms: N_17  and  C_18 
REMARK    5  A    between atoms: C_18  and  C_19 
REMARK    6  A    between atoms: C_19  and  C_20 
REMARK    7  A    between atoms: C_23  and  O_24 
ROOT
HETATM    1  C   UNL     1      43.085 -17.235   4.349  1.00  0.00     0.164 C 
HETATM    2  N   UNL     1      43.881 -18.234   4.907  1.00  0.00    -0.213 N 
HETATM    3  N   UNL     1      44.389 -17.790   6.094  1.00  0.00    -0.139 NA
HETATM    4  C   UNL     1      43.718 -16.644   6.297  1.00  0.00     0.241 C 
HETATM    5  N   UNL     1      42.899 -16.291   5.255  1.00  0.00    -0.202 NA
ENDROOT
BRANCH   4   6
HETATM    6  C   UNL     1      43.861 -15.837   7.523  1.00  0.00     0.309 C 
HETATM    7  N   UNL     1      44.074 -14.490   7.284  1.00  0.00    -0.261 N 
HETATM    8  H   UNL     1      44.163 -14.126   6.333  1.00  0.00     0.190 HD
HETATM    9  O   UNL     1      43.808 -16.293   8.666  1.00  0.00    -0.262 OA
BRANCH   7  10
HETATM   10  N   UNL     1      44.314 -13.631   8.358  1.00  0.00    -0.267 N 
HETATM   11  C   UNL     1      45.431 -12.822   8.330  1.00  0.00     0.240 C 
HETATM   12  O   UNL     1      46.233 -12.822   7.398  1.00  0.00    -0.272 OA
HETATM   13  H   UNL     1      43.592 -13.577   9.074  1.00  0.00     0.190 HD
BRANCH  11  14
HETATM   14  C   UNL     1      45.590 -11.950   9.560  1.00  0.00     0.143 C 
BRANCH  14  15
HETATM   15  C   UNL     1      44.275 -11.559  10.186  1.00  0.00    -0.049 A 
HETATM   16  C   UNL     1      43.326 -10.821   9.462  1.00  0.00     0.010 A 
HETATM   17  C   UNL     1      42.099 -10.481  10.038  1.00  0.00     0.037 A 
HETATM   18  C   UNL     1      41.821 -10.879  11.341  1.00  0.00     0.065 A 
HETATM   19  C   UNL     1      42.748 -11.606  12.075  1.00  0.00     0.037 A 
HETATM   20  C   UNL     1      43.973 -11.946  11.500  1.00  0.00     0.010 A 
BRANCH  18  21
HETATM   21  O   UNL     1      40.634 -10.577  11.938  1.00  0.00    -0.361 OA
HETATM   22  H   UNL     1      40.427 -11.267  12.588  1.00  0.00     0.217 HD
ENDBRANCH  18  21
ENDBRANCH  14  15
ENDBRANCH  11  14
ENDBRANCH   7  10
ENDBRANCH   4   6
BRANCH   2  23
HETATM   23  C   UNL     1      44.177 -19.556   4.464  1.00  0.00     0.060 A 
HETATM   24  C   UNL     1      44.483 -20.542   5.417  1.00  0.00     0.031 A 
HETATM   25  C   UNL     1      44.778 -21.847   5.016  1.00  0.00     0.002 A 
HETATM   26  C   UNL     1      44.752 -22.185   3.666  1.00  0.00     0.000 A 
HETATM   27  C   UNL     1      44.422 -21.222   2.715  1.00  0.00     0.002 A 
HETATM   28  C   UNL     1      44.128 -19.913   3.110  1.00  0.00     0.031 A 
ENDBRANCH   2  23
BRANCH   1  29
HETATM   29  C   UNL     1      42.570 -17.151   2.982  1.00  0.00     0.012 A 
HETATM   30  C   UNL     1      41.197 -17.314   2.751  1.00  0.00     0.015 A 
HETATM   31  C   UNL     1      40.675 -17.211   1.460  1.00  0.00     0.001 A 
HETATM   32  C   UNL     1      41.520 -16.931   0.388  1.00  0.00     0.000 A 
HETATM   33  C   UNL     1      42.883 -16.741   0.607  1.00  0.00     0.001 A 
HETATM   34  C   UNL     1      43.406 -16.841   1.899  1.00  0.00     0.015 A 
ENDBRANCH   1  29
TORSDOF 7
ENDMDL
MODEL 5
REMARK VINA RESULT:      -9.2      1.500      1.696
REMARK  7 active torsions:
REMARK  status: ('A' for Active; 'I' for Inactive)
REMARK    1  A    between atoms: C_4  and  C_5 
REMARK    2  A    between atoms: N_6  and  C_7 
REMARK    3  A    between atoms: C_14  and  C_15 
REMARK       I    between atoms: C_15  and  N_16 
REMARK    4  A    between atoms: N_16  and  N_17 
REMARK       I    between atoms: N_17  and  C_18 
REMARK    5  A    between atoms: C_18  and  C_19 
REMARK    6  A    between atoms: C_19  and  C_20 
REMARK    7  A    between atoms: C_23  and  O_24 
ROOT
HETATM    1  C   UNL     1      43.952 -17.352   5.589  1.00  0.00     0.164 C 
HETATM    2  N   UNL     1      43.275 -16.566   4.659  1.00  0.00    -0.213 N 
HETATM    3  N   UNL     1      43.082 -15.320   5.182  1.00  0.00    -0.139 NA
HETATM    4  C   UNL     1      43.826 -15.346   6.301  1.00  0.00     0.241 C 
HETATM    5  N   UNL     1      44.384 -16.572   6.564  1.00  0.00    -0.202 NA
ENDROOT
BRANCH   4   6
HETATM    6  C   UNL     1      44.011 -14.170   7.170  1.00  0.00     0.309 C 
HETATM    7  N   UNL     1      43.015 -13.216   7.040  1.00  0.00    -0.261 N 
HETATM    8  H   UNL     1      42.258 -13.327   6.363  1.00  0.00     0.190 HD
HETATM    9  O   UNL     1      44.957 -14.019   7.944  1.00  0.00    -0.262 OA
BRANCH   7  10
HETATM   10  N   UNL     1      43.119 -12.014   7.743  1.00  0.00    -0.267 N 
HETATM   11  C   UNL     1      42.019 -11.185   7.815  1.00  0.00     0.240 C 
HETATM   12  O   UNL     1      40.942 -11.455   7.285  1.00  0.00    -0.272 OA
HETATM   13  H   UNL     1      43.986 -11.852   8.252  1.00  0.00     0.190 HD
BRANCH  11  14
HETATM   14  C   UNL     1      42.263  -9.904   8.588  1.00  0.00     0.143 C 
BRANCH  14  15
HETATM   15  C   UNL     1      42.363 -10.118  10.078  1.00  0.00    -0.049 A 
HETATM   16  C   UNL     1      43.578  -9.920  10.752  1.00  0.00     0.010 A 
HETATM   17  C   UNL     1      43.659 -10.096  12.136  1.00  0.00     0.037 A 
HETATM   18  C   UNL     1      42.524 -10.471  12.847  1.00  0.00     0.065 A 
HETATM   19  C   UNL     1      41.314 -10.676  12.197  1.00  0.00     0.037 A 
HETATM   20  C   UNL     1      41.232 -10.500  10.815  1.00  0.00     0.010 A 
BRANCH  18  21
HETATM   21  O   UNL     1      42.557 -10.646  14.198  1.00  0.00    -0.361 OA
HETATM   22  H   UNL     1      41.646 -10.714  14.525  1.00  0.00     0.217 HD
ENDBRANCH  18  21
ENDBRANCH  14  15
ENDBRANCH  11  14
ENDBRANCH   7  10
ENDBRANCH   4   6
BRANCH   2  23
HETATM   23  C   UNL     1      42.831 -16.850   3.334  1.00  0.00     0.060 A 
HETATM   24  C   UNL     1      41.454 -16.987   3.091  1.00  0.00     0.031 A 
HETATM   25  C   UNL     1      40.987 -17.267   1.805  1.00  0.00     0.002 A 
HETATM   26  C   UNL     1      41.884 -17.392   0.748  1.00  0.00     0.000 A 
HETATM   27  C   UNL     1      43.249 -17.228   0.973  1.00  0.00     0.002 A 
HETATM   28  C   UNL     1      43.724 -16.951   2.259  1.00  0.00     0.031 A 
ENDBRANCH   2  23
BRANCH   1  29
HETATM   29  C   UNL     1      44.128 -18.805   5.585  1.00  0.00     0.012 A 
HETATM   30  C   UNL     1      44.843 -19.409   4.542  1.00  0.00     0.015 A 
HETATM   31  C   UNL     1      45.049 -20.790   4.527  1.00  0.00     0.001 A 
HETATM   32  C   UNL     1      44.553 -21.579   5.563  1.00  0.00     0.000 A 
HETATM   33  C   UNL     1      43.862 -20.988   6.618  1.00  0.00     0.001 A 
HETATM   34  C   UNL     1      43.657 -19.607   6.636  1.00  0.00     0.015 A 
ENDBRANCH   1  29
TORSDOF 7
ENDMDL
MODEL 6
REMARK VINA RESULT:      -8.8      5.618      9.915
REMARK  7 active torsions:
REMARK  status: ('A' for Active; 'I' for Inactive)
REMARK    1  A    between atoms: C_4  and  C_5 
REMARK    2  A    between atoms: N_6  and  C_7 
REMARK    3  A    between atoms: C_14  and  C_15 
REMARK       I    between atoms: C_15  and  N_16 
REMARK    4  A    between atoms: N_16  and  N_17 
REMARK       I    between atoms: N_17  and  C_18 
REMARK    5  A    between atoms: C_18  and  C_19 
REMARK    6  A    between atoms: C_19  and  C_20 
REMARK    7  A    between atoms: C_23  and  O_24 
ROOT
HETATM    1  C   UNL     1      42.668 -16.544   3.656  1.00  0.00     0.164 C 
HETATM    2  N   UNL     1      42.768 -17.559   2.707  1.00  0.00    -0.213 N 
HETATM    3  N   UNL     1      42.186 -17.143   1.544  1.00  0.00    -0.139 NA
HETATM    4  C   UNL     1      41.954 -15.840   1.775  1.00  0.00     0.241 C 
HETATM    5  N   UNL     1      42.258 -15.442   3.053  1.00  0.00    -0.202 NA
ENDROOT
BRANCH   4   6
HETATM    6  C   UNL     1      41.411 -14.927   0.752  1.00  0.00     0.309 C 
HETATM    7  N   UNL     1      40.484 -15.519  -0.090  1.00  0.00    -0.261 N 
HETATM    8  H   UNL     1      40.251 -16.510  -0.010  1.00  0.00     0.190 HD
HETATM    9  O   UNL     1      41.739 -13.746   0.629  1.00  0.00    -0.262 OA
BRANCH   7  10
HETATM   10  N   UNL     1      39.960 -14.787  -1.156  1.00  0.00    -0.267 N 
HETATM   11  C   UNL     1      40.348 -15.108  -2.441  1.00  0.00     0.240 C 
HETATM   12  O   UNL     1      41.141 -16.013  -2.694  1.00  0.00    -0.272 OA
HETATM   13  H   UNL     1      39.236 -14.106  -0.936  1.00  0.00     0.190 HD
BRANCH  11  14
HETATM   14  C   UNL     1      39.725 -14.230  -3.509  1.00  0.00     0.143 C 
BRANCH  14  15
HETATM   15  C   UNL     1      40.378 -12.876  -3.622  1.00  0.00    -0.049 A 
HETATM   16  C   UNL     1      39.603 -11.713  -3.754  1.00  0.00     0.010 A 
HETATM   17  C   UNL     1      40.212 -10.458  -3.834  1.00  0.00     0.037 A 
HETATM   18  C   UNL     1      41.599 -10.365  -3.782  1.00  0.00     0.065 A 
HETATM   19  C   UNL     1      42.383 -11.504  -3.656  1.00  0.00     0.037 A 
HETATM   20  C   UNL     1      41.775 -12.757  -3.576  1.00  0.00     0.010 A 
BRANCH  18  21
HETATM   21  O   UNL     1      42.233  -9.161  -3.849  1.00  0.00    -0.361 OA
HETATM   22  H   UNL     1      41.728  -8.575  -4.436  1.00  0.00     0.217 HD
ENDBRANCH  18  21
ENDBRANCH  14  15
ENDBRANCH  11  14
ENDBRANCH   7  10
ENDBRANCH   4   6
BRANCH   2  23
HETATM   23  C   UNL     1      43.379 -18.846   2.768  1.00  0.00     0.060 A 
HETATM   24  C   UNL     1      43.038 -19.809   1.803  1.00  0.00     0.031 A 
HETATM   25  C   UNL     1      43.618 -21.079   1.835  1.00  0.00     0.002 A 
HETATM   26  C   UNL     1      44.556 -21.394   2.815  1.00  0.00     0.000 A 
HETATM   27  C   UNL     1      44.923 -20.437   3.758  1.00  0.00     0.002 A 
HETATM   28  C   UNL     1      44.343 -19.164   3.733  1.00  0.00     0.031 A 
ENDBRANCH   2  23
BRANCH   1  29
HETATM   29  C   UNL     1      42.896 -16.633   5.099  1.00  0.00     0.012 A 
HETATM   30  C   UNL     1      43.869 -15.820   5.696  1.00  0.00     0.015 A 
HETATM   31  C   UNL     1      44.087 -15.866   7.074  1.00  0.00     0.001 A 
HETATM   32  C   UNL     1      43.324 -16.716   7.872  1.00  0.00     0.000 A 
HETATM   33  C   UNL     1      42.336 -17.511   7.296  1.00  0.00     0.001 A 
HETATM   34  C   UNL     1      42.115 -17.464   5.917  1.00  0.00     0.015 A 
ENDBRANCH   1  29
TORSDOF 7
ENDMDL
MODEL 7
REMARK VINA RESULT:      -8.8      2.142      4.152
REMARK  7 active torsions:
REMARK  status: ('A' for Active; 'I' for Inactive)
REMARK    1  A    between atoms: C_4  and  C_5 
REMARK    2  A    between atoms: N_6  and  C_7 
REMARK    3  A    between atoms: C_14  and  C_15 
REMARK       I    between atoms: C_15  and  N_16 
REMARK    4  A    between atoms: N_16  and  N_17 
REMARK       I    between atoms: N_17  and  C_18 
REMARK    5  A    between atoms: C_18  and  C_19 
REMARK    6  A    between atoms: C_19  and  C_20 
REMARK    7  A    between atoms: C_23  and  O_24 
ROOT
HETATM    1  C   UNL     1      42.092 -14.663   4.362  1.00  0.00     0.164 C 
HETATM    2  N   UNL     1      43.048 -15.671   4.244  1.00  0.00    -0.213 N 
HETATM    3  N   UNL     1      43.943 -15.560   5.268  1.00  0.00    -0.139 NA
HETATM    4  C   UNL     1      43.375 -14.637   6.063  1.00  0.00     0.241 C 
HETATM    5  N   UNL     1      42.232 -14.086   5.542  1.00  0.00    -0.202 NA
ENDROOT
BRANCH   4   6
HETATM    6  C   UNL     1      43.939 -14.246   7.369  1.00  0.00     0.309 C 
HETATM    7  N   UNL     1      43.733 -12.915   7.691  1.00  0.00    -0.261 N 
HETATM    8  H   UNL     1      43.268 -12.277   7.042  1.00  0.00     0.190 HD
HETATM    9  O   UNL     1      44.548 -15.009   8.120  1.00  0.00    -0.262 OA
BRANCH   7  10
HETATM   10  N   UNL     1      44.294 -12.396   8.859  1.00  0.00    -0.267 N 
HETATM   11  C   UNL     1      43.886 -11.156   9.302  1.00  0.00     0.240 C 
HETATM   12  O   UNL     1      43.046 -10.477   8.712  1.00  0.00    -0.272 OA
HETATM   13  H   UNL     1      44.916 -13.010   9.383  1.00  0.00     0.190 HD
BRANCH  11  14
HETATM   14  C   UNL     1      44.581 -10.695  10.569  1.00  0.00     0.143 C 
BRANCH  14  15
HETATM   15  C   UNL     1      43.645 -10.557  11.744  1.00  0.00    -0.049 A 
HETATM   16  C   UNL     1      43.871  -9.584  12.730  1.00  0.00     0.010 A 
HETATM   17  C   UNL     1      42.988  -9.444  13.804  1.00  0.00     0.037 A 
HETATM   18  C   UNL     1      41.878 -10.277  13.893  1.00  0.00     0.065 A 
HETATM   19  C   UNL     1      41.640 -11.248  12.929  1.00  0.00     0.037 A 
HETATM   20  C   UNL     1      42.522 -11.389  11.856  1.00  0.00     0.010 A 
BRANCH  18  21
HETATM   21  O   UNL     1      40.988 -10.169  14.918  1.00  0.00    -0.361 OA
HETATM   22  H   UNL     1      40.101 -10.376  14.583  1.00  0.00     0.217 HD
ENDBRANCH  18  21
ENDBRANCH  14  15
ENDBRANCH  11  14
ENDBRANCH   7  10
ENDBRANCH   4   6
BRANCH   2  23
HETATM   23  C   UNL     1      43.181 -16.733   3.303  1.00  0.00     0.060 A 
HETATM   24  C   UNL     1      42.940 -18.052   3.725  1.00  0.00     0.031 A 
HETATM   25  C   UNL     1      43.063 -19.115   2.828  1.00  0.00     0.002 A 
HETATM   26  C   UNL     1      43.408 -18.873   1.501  1.00  0.00     0.000 A 
HETATM   27  C   UNL     1      43.621 -17.567   1.065  1.00  0.00     0.002 A 
HETATM   28  C   UNL     1      43.501 -16.498   1.959  1.00  0.00     0.031 A 
ENDBRANCH   2  23
BRANCH   1  29
HETATM   29  C   UNL     1      41.118 -14.222   3.362  1.00  0.00     0.012 A 
HETATM   30  C   UNL     1      40.065 -15.073   3.002  1.00  0.00     0.015 A 
HETATM   31  C   UNL     1      39.107 -14.667   2.071  1.00  0.00     0.001 A 
HETATM   32  C   UNL     1      39.186 -13.399   1.500  1.00  0.00     0.000 A 
HETATM   33  C   UNL     1      40.214 -12.533   1.867  1.00  0.00     0.001 A 
HETATM   34  C   UNL     1      41.171 -12.937   2.800  1.00  0.00     0.015 A 
ENDBRANCH   1  29
TORSDOF 7
ENDMDL
MODEL 8
REMARK VINA RESULT:      -8.7      6.225     10.317
REMARK  7 active torsions:
REMARK  status: ('A' for Active; 'I' for Inactive)
REMARK    1  A    between atoms: C_4  and  C_5 
REMARK    2  A    between atoms: N_6  and  C_7 
REMARK    3  A    between atoms: C_14  and  C_15 
REMARK       I    between atoms: C_15  and  N_16 
REMARK    4  A    between atoms: N_16  and  N_17 
REMARK       I    between atoms: N_17  and  C_18 
REMARK    5  A    between atoms: C_18  and  C_19 
REMARK    6  A    between atoms: C_19  and  C_20 
REMARK    7  A    between atoms: C_23  and  O_24 
ROOT
HETATM    1  C   UNL     1      41.560 -13.026  -1.038  1.00  0.00     0.164 C 
HETATM    2  N   UNL     1      40.813 -14.197  -1.150  1.00  0.00    -0.213 N 
HETATM    3  N   UNL     1      41.066 -14.995  -0.072  1.00  0.00    -0.139 NA
HETATM    4  C   UNL     1      41.779 -14.190   0.735  1.00  0.00     0.241 C 
HETATM    5  N   UNL     1      42.079 -12.973   0.176  1.00  0.00    -0.202 NA
ENDROOT
BRANCH   4   6
HETATM    6  C   UNL     1      42.209 -14.587   2.088  1.00  0.00     0.309 C 
HETATM    7  N   UNL     1      43.047 -15.690   2.108  1.00  0.00    -0.261 N 
HETATM    8  H   UNL     1      43.291 -16.187   1.250  1.00  0.00     0.190 HD
HETATM    9  O   UNL     1      41.865 -14.015   3.123  1.00  0.00    -0.262 OA
BRANCH   7  10
HETATM   10  N   UNL     1      43.454 -16.221   3.333  1.00  0.00    -0.267 N 
HETATM   11  C   UNL     1      42.746 -17.274   3.873  1.00  0.00     0.240 C 
HETATM   12  O   UNL     1      41.765 -17.772   3.324  1.00  0.00    -0.272 OA
HETATM   13  H   UNL     1      44.322 -15.859   3.726  1.00  0.00     0.190 HD
BRANCH  11  14
HETATM   14  C   UNL     1      43.275 -17.749   5.212  1.00  0.00     0.143 C 
BRANCH  14  15
HETATM   15  C   UNL     1      43.817 -19.156   5.174  1.00  0.00    -0.049 A 
HETATM   16  C   UNL     1      44.456 -19.647   4.025  1.00  0.00     0.010 A 
HETATM   17  C   UNL     1      44.978 -20.944   4.002  1.00  0.00     0.037 A 
HETATM   18  C   UNL     1      44.861 -21.749   5.129  1.00  0.00     0.065 A 
HETATM   19  C   UNL     1      44.228 -21.282   6.274  1.00  0.00     0.037 A 
HETATM   20  C   UNL     1      43.707 -19.988   6.297  1.00  0.00     0.010 A 
BRANCH  18  21
HETATM   21  O   UNL     1      45.363 -23.016   5.153  1.00  0.00    -0.361 OA
HETATM   22  H   UNL     1      45.289 -23.363   6.056  1.00  0.00     0.217 HD
ENDBRANCH  18  21
ENDBRANCH  14  15
ENDBRANCH  11  14
ENDBRANCH   7  10
ENDBRANCH   4   6
BRANCH   2  23
HETATM   23  C   UNL     1      39.871 -14.620  -2.134  1.00  0.00     0.060 A 
HETATM   24  C   UNL     1      38.596 -14.030  -2.155  1.00  0.00     0.031 A 
HETATM   25  C   UNL     1      37.651 -14.422  -3.105  1.00  0.00     0.002 A 
HETATM   26  C   UNL     1      37.973 -15.390  -4.053  1.00  0.00     0.000 A 
HETATM   27  C   UNL     1      39.244 -15.960  -4.059  1.00  0.00     0.002 A 
HETATM   28  C   UNL     1      40.195 -15.573  -3.108  1.00  0.00     0.031 A 
ENDBRANCH   2  23
BRANCH   1  29
HETATM   29  C   UNL     1      41.823 -12.021  -2.069  1.00  0.00     0.012 A 
HETATM   30  C   UNL     1      41.863 -10.666  -1.716  1.00  0.00     0.015 A 
HETATM   31  C   UNL     1      42.139  -9.689  -2.675  1.00  0.00     0.001 A 
HETATM   32  C   UNL     1      42.391 -10.060  -3.994  1.00  0.00     0.000 A 
HETATM   33  C   UNL     1      42.379 -11.406  -4.353  1.00  0.00     0.001 A 
HETATM   34  C   UNL     1      42.106 -12.384  -3.394  1.00  0.00     0.015 A 
ENDBRANCH   1  29
TORSDOF 7
ENDMDL
MODEL 9
REMARK VINA RESULT:      -8.7      2.170      3.228
REMARK  7 active torsions:
REMARK  status: ('A' for Active; 'I' for Inactive)
REMARK    1  A    between atoms: C_4  and  C_5 
REMARK    2  A    between atoms: N_6  and  C_7 
REMARK    3  A    between atoms: C_14  and  C_15 
REMARK       I    between atoms: C_15  and  N_16 
REMARK    4  A    between atoms: N_16  and  N_17 
REMARK       I    between atoms: N_17  and  C_18 
REMARK    5  A    between atoms: C_18  and  C_19 
REMARK    6  A    between atoms: C_19  and  C_20 
REMARK    7  A    between atoms: C_23  and  O_24 
ROOT
HETATM    1  C   UNL     1      42.791 -15.146   4.018  1.00  0.00     0.164 C 
HETATM    2  N   UNL     1      41.697 -14.337   3.716  1.00  0.00    -0.213 N 
HETATM    3  N   UNL     1      41.490 -13.463   4.744  1.00  0.00    -0.139 NA
HETATM    4  C   UNL     1      42.580 -13.640   5.511  1.00  0.00     0.241 C 
HETATM    5  N   UNL     1      43.401 -14.650   5.080  1.00  0.00    -0.202 NA
ENDROOT
BRANCH   4   6
HETATM    6  C   UNL     1      42.856 -12.829   6.712  1.00  0.00     0.309 C 
HETATM    7  N   UNL     1      43.834 -13.363   7.534  1.00  0.00    -0.261 N 
HETATM    8  H   UNL     1      44.275 -14.260   7.322  1.00  0.00     0.190 HD
HETATM    9  O   UNL     1      42.280 -11.776   6.988  1.00  0.00    -0.262 OA
BRANCH   7  10
HETATM   10  N   UNL     1      44.127 -12.739   8.748  1.00  0.00    -0.267 N 
HETATM   11  C   UNL     1      45.410 -12.285   8.972  1.00  0.00     0.240 C 
HETATM   12  O   UNL     1      46.316 -12.405   8.150  1.00  0.00    -0.272 OA
HETATM   13  H   UNL     1      43.345 -12.565   9.376  1.00  0.00     0.190 HD
BRANCH  11  14
HETATM   14  C   UNL     1      45.606 -11.643  10.332  1.00  0.00     0.143 C 
BRANCH  14  15
HETATM   15  C   UNL     1      44.319 -11.161  10.954  1.00  0.00    -0.049 A 
HETATM   16  C   UNL     1      43.713  -9.973  10.518  1.00  0.00     0.010 A 
HETATM   17  C   UNL     1      42.507  -9.543  11.081  1.00  0.00     0.037 A 
HETATM   18  C   UNL     1      41.909 -10.302  12.081  1.00  0.00     0.065 A 
HETATM   19  C   UNL     1      42.495 -11.478  12.527  1.00  0.00     0.037 A 
HETATM   20  C   UNL     1      43.699 -11.908  11.966  1.00  0.00     0.010 A 
BRANCH  18  21
HETATM   21  O   UNL     1      40.730  -9.923  12.650  1.00  0.00    -0.361 OA
HETATM   22  H   UNL     1      40.562  -8.993  12.429  1.00  0.00     0.217 HD
ENDBRANCH  18  21
ENDBRANCH  14  15
ENDBRANCH  11  14
ENDBRANCH   7  10
ENDBRANCH   4   6
BRANCH   2  23
HETATM   23  C   UNL     1      40.863 -14.277   2.562  1.00  0.00     0.060 A 
HETATM   24  C   UNL     1      39.556 -14.788   2.638  1.00  0.00     0.031 A 
HETATM   25  C   UNL     1      38.714 -14.745   1.524  1.00  0.00     0.002 A 
HETATM   26  C   UNL     1      39.158 -14.176   0.334  1.00  0.00     0.000 A 
HETATM   27  C   UNL     1      40.442 -13.640   0.257  1.00  0.00     0.002 A 
HETATM   28  C   UNL     1      41.291 -13.682   1.368  1.00  0.00     0.031 A 
ENDBRANCH   2  23
BRANCH   1  29
HETATM   29  C   UNL     1      43.206 -16.385   3.358  1.00  0.00     0.012 A 
HETATM   30  C   UNL     1      42.978 -17.614   3.992  1.00  0.00     0.015 A 
HETATM   31  C   UNL     1      43.339 -18.812   3.373  1.00  0.00     0.001 A 
HETATM   32  C   UNL     1      43.920 -18.794   2.107  1.00  0.00     0.000 A 
HETATM   33  C   UNL     1      44.129 -17.581   1.454  1.00  0.00     0.001 A 
HETATM   34  C   UNL     1      43.765 -16.381   2.071  1.00  0.00     0.015 A 
ENDBRANCH   1  29
TORSDOF 7
ENDMDL
MODEL 10
REMARK VINA RESULT:      -8.7      5.643      9.628
REMARK  7 active torsions:
REMARK  status: ('A' for Active; 'I' for Inactive)
REMARK    1  A    between atoms: C_4  and  C_5 
REMARK    2  A    between atoms: N_6  and  C_7 
REMARK    3  A    between atoms: C_14  and  C_15 
REMARK       I    between atoms: C_15  and  N_16 
REMARK    4  A    between atoms: N_16  and  N_17 
REMARK       I    between atoms: N_17  and  C_18 
REMARK    5  A    between atoms: C_18  and  C_19 
REMARK    6  A    between atoms: C_19  and  C_20 
REMARK    7  A    between atoms: C_23  and  O_24 
ROOT
HETATM    1  C   UNL     1      41.690 -13.609  -1.145  1.00  0.00     0.164 C 
HETATM    2  N   UNL     1      40.850 -14.690  -1.410  1.00  0.00    -0.213 N 
HETATM    3  N   UNL     1      41.149 -15.709  -0.553  1.00  0.00    -0.139 NA
HETATM    4  C   UNL     1      41.996 -15.131   0.316  1.00  0.00     0.241 C 
HETATM    5  N   UNL     1      42.330 -13.842  -0.012  1.00  0.00    -0.202 NA
ENDROOT
BRANCH   4   6
HETATM    6  C   UNL     1      42.528 -15.827   1.502  1.00  0.00     0.309 C 
HETATM    7  N   UNL     1      43.494 -16.775   1.210  1.00  0.00    -0.261 N 
HETATM    8  H   UNL     1      43.761 -16.980   0.245  1.00  0.00     0.190 HD
HETATM    9  O   UNL     1      42.159 -15.612   2.658  1.00  0.00    -0.262 OA
BRANCH   7  10
HETATM   10  N   UNL     1      44.014 -17.566   2.236  1.00  0.00    -0.267 N 
HETATM   11  C   UNL     1      43.456 -18.805   2.471  1.00  0.00     0.240 C 
HETATM   12  O   UNL     1      42.514 -19.250   1.817  1.00  0.00    -0.272 OA
HETATM   13  H   UNL     1      44.850 -17.222   2.703  1.00  0.00     0.190 HD
BRANCH  11  14
HETATM   14  C   UNL     1      44.094 -19.558   3.621  1.00  0.00     0.143 C 
BRANCH  14  15
HETATM   15  C   UNL     1      43.955 -18.851   4.947  1.00  0.00    -0.049 A 
HETATM   16  C   UNL     1      45.078 -18.612   5.754  1.00  0.00     0.010 A 
HETATM   17  C   UNL     1      44.947 -17.935   6.970  1.00  0.00     0.037 A 
HETATM   18  C   UNL     1      43.692 -17.497   7.379  1.00  0.00     0.065 A 
HETATM   19  C   UNL     1      42.569 -17.728   6.596  1.00  0.00     0.037 A 
HETATM   20  C   UNL     1      42.699 -18.404   5.382  1.00  0.00     0.010 A 
BRANCH  18  21
HETATM   21  O   UNL     1      43.522 -16.826   8.553  1.00  0.00    -0.361 OA
HETATM   22  H   UNL     1      43.249 -17.459   9.236  1.00  0.00     0.217 HD
ENDBRANCH  18  21
ENDBRANCH  14  15
ENDBRANCH  11  14
ENDBRANCH   7  10
ENDBRANCH   4   6
BRANCH   2  23
HETATM   23  C   UNL     1      39.787 -14.845  -2.347  1.00  0.00     0.060 A 
HETATM   24  C   UNL     1      39.900 -15.823  -3.350  1.00  0.00     0.031 A 
HETATM   25  C   UNL     1      38.877 -16.000  -4.284  1.00  0.00     0.002 A 
HETATM   26  C   UNL     1      37.726 -15.220  -4.214  1.00  0.00     0.000 A 
HETATM   27  C   UNL     1      37.591 -14.268  -3.206  1.00  0.00     0.002 A 
HETATM   28  C   UNL     1      38.614 -14.084  -2.270  1.00  0.00     0.031 A 
ENDBRANCH   2  23
BRANCH   1  29
HETATM   29  C   UNL     1      41.924 -12.425  -1.972  1.00  0.00     0.012 A 
HETATM   30  C   UNL     1      41.994 -11.163  -1.366  1.00  0.00     0.015 A 
HETATM   31  C   UNL     1      42.243 -10.020  -2.127  1.00  0.00     0.001 A 
HETATM   32  C   UNL     1      42.439 -10.129  -3.502  1.00  0.00     0.000 A 
HETATM   33  C   UNL     1      42.397 -11.380  -4.115  1.00  0.00     0.001 A 
HETATM   34  C   UNL     1      42.151 -12.525  -3.353  1.00  0.00     0.015 A 
ENDBRANCH   1  29
TORSDOF 7
ENDMDL
