MODEL 1
REMARK VINA RESULT:      -8.5      0.000      0.000
REMARK  8 active torsions:
REMARK  status: ('A' for Active; 'I' for Inactive)
REMARK    1  A    between atoms: O_2  and  C_3 
REMARK    2  A    between atoms: C_6  and  C_7 
REMARK    3  A    between atoms: C_7  and  N_8 
REMARK    4  A    between atoms: C_7  and  C_27 
REMARK    5  A    between atoms: N_8  and  C_11 
REMARK    6  A    between atoms: C_11  and  C_12 
REMARK       I    between atoms: C_12  and  N_13 
REMARK    7  A    between atoms: N_13  and  C_14 
REMARK    8  A    between atoms: C_17  and  N_18 
ROOT
HETATM    1  N   UNL     1      43.963 -12.137  10.024  1.00  0.00    -0.055 N 
HETATM    2  H   UNL     1      44.047 -12.423  11.015  1.00  0.00     0.278 HD
HETATM    3  H   UNL     1      43.359 -12.859   9.619  1.00  0.00     0.278 HD
ENDROOT
BRANCH   1   4
HETATM    4  C   UNL     1      43.269 -10.815   9.979  1.00  0.00     0.252 C 
BRANCH   4   5
HETATM    5  C   UNL     1      42.043 -10.785   9.075  1.00  0.00    -0.023 A 
HETATM    6  C   UNL     1      40.727 -10.704   9.569  1.00  0.00     0.012 A 
HETATM    7  C   UNL     1      39.629 -10.677   8.698  1.00  0.00     0.037 A 
HETATM    8  C   UNL     1      39.824 -10.718   7.321  1.00  0.00     0.068 A 
HETATM    9  C   UNL     1      41.124 -10.790   6.821  1.00  0.00     0.037 A 
HETATM   10  C   UNL     1      42.223 -10.816   7.684  1.00  0.00     0.012 A 
BRANCH   8  11
HETATM   11  O   UNL     1      38.846 -10.699   6.368  1.00  0.00    -0.356 OA
HETATM   12  C   UNL     1      39.102 -11.397   5.156  1.00  0.00     0.210 C 
ENDBRANCH   8  11
ENDBRANCH   4   5
BRANCH   4  13
HETATM   13  C   UNL     1      43.014 -10.347  11.402  1.00  0.00    -0.023 A 
HETATM   14  C   UNL     1      43.004  -8.970  11.687  1.00  0.00     0.009 A 
HETATM   15  C   UNL     1      42.842  -8.512  12.996  1.00  0.00     0.001 A 
HETATM   16  C   UNL     1      42.693  -9.419  14.041  1.00  0.00     0.000 A 
HETATM   17  C   UNL     1      42.704 -10.785  13.780  1.00  0.00     0.001 A 
HETATM   18  C   UNL     1      42.868 -11.249  12.473  1.00  0.00     0.009 A 
ENDBRANCH   4  13
ENDBRANCH   1   4
BRANCH   1  19
HETATM   19  C   UNL     1      45.351 -12.205   9.448  1.00  0.00     0.336 C 
BRANCH  19  20
HETATM   20  C   UNL     1      45.289 -12.966   8.125  1.00  0.00     0.248 C 
HETATM   21  N   UNL     1      44.152 -13.728   7.954  1.00  0.00    -0.326 N 
HETATM   22  H   UNL     1      43.473 -13.779   8.706  1.00  0.00     0.169 HD
HETATM   23  O   UNL     1      46.283 -12.933   7.403  1.00  0.00    -0.271 OA
BRANCH  21  24
HETATM   24  C   UNL     1      43.835 -14.522   6.831  1.00  0.00     0.034 A 
HETATM   25  C   UNL     1      44.003 -15.902   6.779  1.00  0.00     0.032 A 
HETATM   26  C   UNL     1      43.713 -16.610   5.602  1.00  0.00     0.032 A 
HETATM   27  C   UNL     1      43.236 -15.964   4.456  1.00  0.00     0.037 A 
HETATM   28  C   UNL     1      43.040 -14.579   4.533  1.00  0.00     0.032 A 
HETATM   29  C   UNL     1      43.350 -13.865   5.697  1.00  0.00     0.032 A 
BRANCH  27  30
HETATM   30  N   UNL     1      42.970 -16.667   3.251  1.00  0.00    -0.318 N 
HETATM   31  C   UNL     1      41.702 -16.911   2.697  1.00  0.00     0.224 C 
HETATM   32  O   UNL     1      40.606 -16.535   3.084  1.00  0.00    -0.273 OA
HETATM   33  C   UNL     1      41.884 -17.843   1.522  1.00  0.00     0.105 C 
HETATM   34  C   UNL     1      43.352 -17.687   1.182  1.00  0.00     0.029 C 
HETATM   35  C   UNL     1      43.989 -17.390   2.524  1.00  0.00     0.133 C 
ENDBRANCH  27  30
ENDBRANCH  21  24
ENDBRANCH  19  20
ENDBRANCH   1  19
TORSDOF 8
ENDMDL
MODEL 2
REMARK VINA RESULT:      -8.4      1.592      1.862
REMARK  8 active torsions:
REMARK  status: ('A' for Active; 'I' for Inactive)
REMARK    1  A    between atoms: O_2  and  C_3 
REMARK    2  A    between atoms: C_6  and  C_7 
REMARK    3  A    between atoms: C_7  and  N_8 
REMARK    4  A    between atoms: C_7  and  C_27 
REMARK    5  A    between atoms: N_8  and  C_11 
REMARK    6  A    between atoms: C_11  and  C_12 
REMARK       I    between atoms: C_12  and  N_13 
REMARK    7  A    between atoms: N_13  and  C_14 
REMARK    8  A    between atoms: C_17  and  N_18 
ROOT
HETATM    1  N   UNL     1      43.641 -12.105   9.288  1.00  0.00    -0.055 N 
HETATM    2  H   UNL     1      43.548 -12.680  10.144  1.00  0.00     0.278 HD
HETATM    3  H   UNL     1      43.018 -12.571   8.621  1.00  0.00     0.278 HD
ENDROOT
BRANCH   1   4
HETATM    4  C   UNL     1      43.124 -10.737   9.589  1.00  0.00     0.252 C 
BRANCH   4   5
HETATM    5  C   UNL     1      41.938 -10.315   8.731  1.00  0.00    -0.023 A 
HETATM    6  C   UNL     1      41.121  -9.211   9.039  1.00  0.00     0.012 A 
HETATM    7  C   UNL     1      40.041  -8.860   8.218  1.00  0.00     0.037 A 
HETATM    8  C   UNL     1      39.765  -9.595   7.068  1.00  0.00     0.068 A 
HETATM    9  C   UNL     1      40.573 -10.686   6.750  1.00  0.00     0.037 A 
HETATM   10  C   UNL     1      41.652 -11.040   7.564  1.00  0.00     0.012 A 
BRANCH   8  11
HETATM   11  O   UNL     1      38.749  -9.360   6.187  1.00  0.00    -0.356 OA
HETATM   12  C   UNL     1      38.882  -9.900   4.878  1.00  0.00     0.210 C 
ENDBRANCH   8  11
ENDBRANCH   4   5
BRANCH   4  13
HETATM   13  C   UNL     1      42.891 -10.619  11.086  1.00  0.00    -0.023 A 
HETATM   14  C   UNL     1      41.788 -11.270  11.668  1.00  0.00     0.009 A 
HETATM   15  C   UNL     1      41.508 -11.124  13.028  1.00  0.00     0.001 A 
HETATM   16  C   UNL     1      42.320 -10.325  13.827  1.00  0.00     0.000 A 
HETATM   17  C   UNL     1      43.413  -9.670  13.269  1.00  0.00     0.001 A 
HETATM   18  C   UNL     1      43.696  -9.810  11.909  1.00  0.00     0.009 A 
ENDBRANCH   4  13
ENDBRANCH   1   4
BRANCH   1  19
HETATM   19  C   UNL     1      45.078 -12.220   8.860  1.00  0.00     0.336 C 
BRANCH  19  20
HETATM   20  C   UNL     1      45.168 -13.253   7.740  1.00  0.00     0.248 C 
HETATM   21  N   UNL     1      44.158 -14.193   7.743  1.00  0.00    -0.326 N 
HETATM   22  H   UNL     1      43.470 -14.177   8.488  1.00  0.00     0.169 HD
HETATM   23  O   UNL     1      46.170 -13.234   7.028  1.00  0.00    -0.271 OA
BRANCH  21  24
HETATM   24  C   UNL     1      43.995 -15.252   6.824  1.00  0.00     0.034 A 
HETATM   25  C   UNL     1      44.330 -16.576   7.093  1.00  0.00     0.032 A 
HETATM   26  C   UNL     1      44.185 -17.560   6.102  1.00  0.00     0.032 A 
HETATM   27  C   UNL     1      43.692 -17.254   4.829  1.00  0.00     0.037 A 
HETATM   28  C   UNL     1      43.327 -15.924   4.584  1.00  0.00     0.032 A 
HETATM   29  C   UNL     1      43.491 -14.934   5.561  1.00  0.00     0.032 A 
BRANCH  27  30
HETATM   30  N   UNL     1      43.572 -18.238   3.812  1.00  0.00    -0.318 N 
HETATM   31  C   UNL     1      44.256 -19.465   3.762  1.00  0.00     0.224 C 
HETATM   32  O   UNL     1      45.022 -19.955   4.577  1.00  0.00    -0.273 OA
HETATM   33  C   UNL     1      43.961 -20.101   2.423  1.00  0.00     0.105 C 
HETATM   34  C   UNL     1      42.703 -19.388   1.972  1.00  0.00     0.029 C 
HETATM   35  C   UNL     1      42.847 -18.010   2.582  1.00  0.00     0.133 C 
ENDBRANCH  27  30
ENDBRANCH  21  24
ENDBRANCH  19  20
ENDBRANCH   1  19
TORSDOF 8
ENDMDL
MODEL 3
REMARK VINA RESULT:      -8.3      8.046     10.685
REMARK  8 active torsions:
REMARK  status: ('A' for Active; 'I' for Inactive)
REMARK    1  A    between atoms: O_2  and  C_3 
REMARK    2  A    between atoms: C_6  and  C_7 
REMARK    3  A    between atoms: C_7  and  N_8 
REMARK    4  A    between atoms: C_7  and  C_27 
REMARK    5  A    between atoms: N_8  and  C_11 
REMARK    6  A    between atoms: C_11  and  C_12 
REMARK       I    between atoms: C_12  and  N_13 
REMARK    7  A    between atoms: N_13  and  C_14 
REMARK    8  A    between atoms: C_17  and  N_18 
ROOT
HETATM    1  N   UNL     1      42.098 -13.667  -0.851  1.00  0.00    -0.055 N 
HETATM    2  H   UNL     1      42.946 -14.238  -0.686  1.00  0.00     0.278 HD
HETATM    3  H   UNL     1      42.346 -12.755  -0.457  1.00  0.00     0.278 HD
ENDROOT
BRANCH   1   4
HETATM    4  C   UNL     1      41.902 -13.542  -2.327  1.00  0.00     0.252 C 
BRANCH   4   5
HETATM    5  C   UNL     1      40.539 -14.014  -2.817  1.00  0.00    -0.023 A 
HETATM    6  C   UNL     1      40.351 -15.220  -3.519  1.00  0.00     0.012 A 
HETATM    7  C   UNL     1      39.077 -15.614  -3.949  1.00  0.00     0.037 A 
HETATM    8  C   UNL     1      37.967 -14.820  -3.676  1.00  0.00     0.068 A 
HETATM    9  C   UNL     1      38.141 -13.628  -2.975  1.00  0.00     0.037 A 
HETATM   10  C   UNL     1      39.409 -13.229  -2.542  1.00  0.00     0.012 A 
BRANCH   8  11
HETATM   11  O   UNL     1      36.678 -15.088  -4.037  1.00  0.00    -0.356 OA
HETATM   12  C   UNL     1      36.032 -14.153  -4.893  1.00  0.00     0.210 C 
ENDBRANCH   8  11
ENDBRANCH   4   5
BRANCH   4  13
HETATM   13  C   UNL     1      42.270 -12.129  -2.751  1.00  0.00    -0.023 A 
HETATM   14  C   UNL     1      42.609 -11.179  -1.770  1.00  0.00     0.009 A 
HETATM   15  C   UNL     1      42.883  -9.856  -2.122  1.00  0.00     0.001 A 
HETATM   16  C   UNL     1      42.819  -9.459  -3.455  1.00  0.00     0.000 A 
HETATM   17  C   UNL     1      42.482 -10.384  -4.438  1.00  0.00     0.001 A 
HETATM   18  C   UNL     1      42.204 -11.707  -4.091  1.00  0.00     0.009 A 
ENDBRANCH   4  13
ENDBRANCH   1   4
BRANCH   1  19
HETATM   19  C   UNL     1      40.995 -14.317  -0.063  1.00  0.00     0.336 C 
BRANCH  19  20
HETATM   20  C   UNL     1      41.427 -15.738   0.295  1.00  0.00     0.248 C 
HETATM   21  N   UNL     1      42.333 -15.817   1.332  1.00  0.00    -0.326 N 
HETATM   22  H   UNL     1      42.686 -14.962   1.747  1.00  0.00     0.169 HD
HETATM   23  O   UNL     1      41.038 -16.650  -0.431  1.00  0.00    -0.271 OA
BRANCH  21  24
HETATM   24  C   UNL     1      42.893 -16.996   1.869  1.00  0.00     0.034 A 
HETATM   25  C   UNL     1      43.899 -17.734   1.251  1.00  0.00     0.032 A 
HETATM   26  C   UNL     1      44.362 -18.927   1.829  1.00  0.00     0.032 A 
HETATM   27  C   UNL     1      43.846 -19.405   3.038  1.00  0.00     0.037 A 
HETATM   28  C   UNL     1      42.858 -18.636   3.665  1.00  0.00     0.032 A 
HETATM   29  C   UNL     1      42.376 -17.457   3.082  1.00  0.00     0.032 A 
BRANCH  27  30
HETATM   30  N   UNL     1      44.287 -20.627   3.613  1.00  0.00    -0.318 N 
HETATM   31  C   UNL     1      44.373 -21.867   2.958  1.00  0.00     0.224 C 
HETATM   32  O   UNL     1      44.153 -22.138   1.787  1.00  0.00    -0.273 OA
HETATM   33  C   UNL     1      44.712 -22.913   3.994  1.00  0.00     0.105 C 
HETATM   34  C   UNL     1      45.283 -22.096   5.134  1.00  0.00     0.029 C 
HETATM   35  C   UNL     1      44.537 -20.782   5.029  1.00  0.00     0.133 C 
ENDBRANCH  27  30
ENDBRANCH  21  24
ENDBRANCH  19  20
ENDBRANCH   1  19
TORSDOF 8
ENDMDL
MODEL 4
REMARK VINA RESULT:      -7.9      2.498      9.576
REMARK  8 active torsions:
REMARK  status: ('A' for Active; 'I' for Inactive)
REMARK    1  A    between atoms: O_2  and  C_3 
REMARK    2  A    between atoms: C_6  and  C_7 
REMARK    3  A    between atoms: C_7  and  N_8 
REMARK    4  A    between atoms: C_7  and  C_27 
REMARK    5  A    between atoms: N_8  and  C_11 
REMARK    6  A    between atoms: C_11  and  C_12 
REMARK       I    between atoms: C_12  and  N_13 
REMARK    7  A    between atoms: N_13  and  C_14 
REMARK    8  A    between atoms: C_17  and  N_18 
ROOT
HETATM    1  N   UNL     1      43.593 -15.102   5.359  1.00  0.00    -0.055 N 
HETATM    2  H   UNL     1      42.667 -14.874   5.759  1.00  0.00     0.278 HD
HETATM    3  H   UNL     1      43.806 -16.021   5.760  1.00  0.00     0.278 HD
ENDROOT
BRANCH   1   4
HETATM    4  C   UNL     1      43.443 -15.222   3.878  1.00  0.00     0.252 C 
BRANCH   4   5
HETATM    5  C   UNL     1      43.509 -16.652   3.358  1.00  0.00    -0.023 A 
HETATM    6  C   UNL     1      43.517 -17.777   4.204  1.00  0.00     0.012 A 
HETATM    7  C   UNL     1      43.577 -19.075   3.679  1.00  0.00     0.037 A 
HETATM    8  C   UNL     1      43.617 -19.275   2.302  1.00  0.00     0.068 A 
HETATM    9  C   UNL     1      43.601 -18.168   1.455  1.00  0.00     0.037 A 
HETATM   10  C   UNL     1      43.540 -16.871   1.972  1.00  0.00     0.012 A 
BRANCH   8  11
HETATM   11  O   UNL     1      43.675 -20.481   1.665  1.00  0.00    -0.356 OA
HETATM   12  C   UNL     1      44.270 -21.564   2.371  1.00  0.00     0.210 C 
ENDBRANCH   8  11
ENDBRANCH   4   5
BRANCH   4  13
HETATM   13  C   UNL     1      42.206 -14.451   3.448  1.00  0.00    -0.023 A 
HETATM   14  C   UNL     1      42.351 -13.278   2.685  1.00  0.00     0.009 A 
HETATM   15  C   UNL     1      41.238 -12.511   2.335  1.00  0.00     0.001 A 
HETATM   16  C   UNL     1      39.965 -12.899   2.742  1.00  0.00     0.000 A 
HETATM   17  C   UNL     1      39.801 -14.054   3.500  1.00  0.00     0.001 A 
HETATM   18  C   UNL     1      40.911 -14.823   3.855  1.00  0.00     0.009 A 
ENDBRANCH   4  13
ENDBRANCH   1   4
BRANCH   1  19
HETATM   19  C   UNL     1      44.542 -14.055   5.872  1.00  0.00     0.336 C 
BRANCH  19  20
HETATM   20  C   UNL     1      44.249 -13.820   7.353  1.00  0.00     0.248 C 
HETATM   21  N   UNL     1      44.090 -12.496   7.704  1.00  0.00    -0.326 N 
HETATM   22  H   UNL     1      44.221 -11.778   6.999  1.00  0.00     0.169 HD
HETATM   23  O   UNL     1      44.302 -14.792   8.103  1.00  0.00    -0.271 OA
BRANCH  21  24
HETATM   24  C   UNL     1      43.808 -11.998   8.994  1.00  0.00     0.034 A 
HETATM   25  C   UNL     1      44.452 -12.423  10.152  1.00  0.00     0.032 A 
HETATM   26  C   UNL     1      44.073 -11.913  11.404  1.00  0.00     0.032 A 
HETATM   27  C   UNL     1      43.057 -10.960  11.531  1.00  0.00     0.037 A 
HETATM   28  C   UNL     1      42.440 -10.516  10.354  1.00  0.00     0.032 A 
HETATM   29  C   UNL     1      42.799 -11.038   9.105  1.00  0.00     0.032 A 
BRANCH  27  30
HETATM   30  N   UNL     1      42.646 -10.462  12.796  1.00  0.00    -0.318 N 
HETATM   31  C   UNL     1      41.480 -10.829  13.491  1.00  0.00     0.224 C 
HETATM   32  O   UNL     1      40.637 -11.661  13.198  1.00  0.00    -0.273 OA
HETATM   33  C   UNL     1      41.358  -9.922  14.694  1.00  0.00     0.105 C 
HETATM   34  C   UNL     1      42.766  -9.392  14.871  1.00  0.00     0.029 C 
HETATM   35  C   UNL     1      43.304  -9.357  13.456  1.00  0.00     0.133 C 
ENDBRANCH  27  30
ENDBRANCH  21  24
ENDBRANCH  19  20
ENDBRANCH   1  19
TORSDOF 8
ENDMDL
MODEL 5
REMARK VINA RESULT:      -7.9      2.878      9.658
REMARK  8 active torsions:
REMARK  status: ('A' for Active; 'I' for Inactive)
REMARK    1  A    between atoms: O_2  and  C_3 
REMARK    2  A    between atoms: C_6  and  C_7 
REMARK    3  A    between atoms: C_7  and  N_8 
REMARK    4  A    between atoms: C_7  and  C_27 
REMARK    5  A    between atoms: N_8  and  C_11 
REMARK    6  A    between atoms: C_11  and  C_12 
REMARK       I    between atoms: C_12  and  N_13 
REMARK    7  A    between atoms: N_13  and  C_14 
REMARK    8  A    between atoms: C_17  and  N_18 
ROOT
HETATM    1  N   UNL     1      43.967 -14.384   7.609  1.00  0.00    -0.055 N 
HETATM    2  H   UNL     1      43.059 -13.909   7.751  1.00  0.00     0.278 HD
HETATM    3  H   UNL     1      44.003 -15.061   8.378  1.00  0.00     0.278 HD
ENDROOT
BRANCH   1   4
HETATM    4  C   UNL     1      43.915 -15.108   6.304  1.00  0.00     0.252 C 
BRANCH   4   5
HETATM    5  C   UNL     1      43.898 -16.626   6.432  1.00  0.00    -0.023 A 
HETATM    6  C   UNL     1      43.735 -17.290   7.663  1.00  0.00     0.012 A 
HETATM    7  C   UNL     1      43.724 -18.690   7.732  1.00  0.00     0.037 A 
HETATM    8  C   UNL     1      43.863 -19.451   6.575  1.00  0.00     0.068 A 
HETATM    9  C   UNL     1      44.016 -18.803   5.350  1.00  0.00     0.037 A 
HETATM   10  C   UNL     1      44.027 -17.408   5.274  1.00  0.00     0.012 A 
BRANCH   8  11
HETATM   11  O   UNL     1      43.869 -20.815   6.505  1.00  0.00    -0.356 OA
HETATM   12  C   UNL     1      44.617 -21.411   5.451  1.00  0.00     0.210 C 
ENDBRANCH   8  11
ENDBRANCH   4   5
BRANCH   4  13
HETATM   13  C   UNL     1      42.780 -14.534   5.471  1.00  0.00    -0.023 A 
HETATM   14  C   UNL     1      43.070 -13.618   4.444  1.00  0.00     0.009 A 
HETATM   15  C   UNL     1      42.045 -13.020   3.709  1.00  0.00     0.001 A 
HETATM   16  C   UNL     1      40.716 -13.322   3.989  1.00  0.00     0.000 A 
HETATM   17  C   UNL     1      40.408 -14.223   5.004  1.00  0.00     0.001 A 
HETATM   18  C   UNL     1      41.430 -14.821   5.744  1.00  0.00     0.009 A 
ENDBRANCH   4  13
ENDBRANCH   1   4
BRANCH   1  19
HETATM   19  C   UNL     1      45.025 -13.327   7.768  1.00  0.00     0.336 C 
BRANCH  19  20
HETATM   20  C   UNL     1      44.795 -12.608   9.096  1.00  0.00     0.248 C 
HETATM   21  N   UNL     1      43.558 -12.011   9.218  1.00  0.00    -0.326 N 
HETATM   22  H   UNL     1      42.916 -12.036   8.433  1.00  0.00     0.169 HD
HETATM   23  O   UNL     1      45.748 -12.520   9.867  1.00  0.00    -0.271 OA
BRANCH  21  24
HETATM   24  C   UNL     1      43.081 -11.289  10.334  1.00  0.00     0.034 A 
HETATM   25  C   UNL     1      42.578  -9.993  10.268  1.00  0.00     0.032 A 
HETATM   26  C   UNL     1      42.175  -9.327  11.436  1.00  0.00     0.032 A 
HETATM   27  C   UNL     1      42.249  -9.939  12.692  1.00  0.00     0.037 A 
HETATM   28  C   UNL     1      42.725 -11.255  12.740  1.00  0.00     0.032 A 
HETATM   29  C   UNL     1      43.151 -11.916  11.580  1.00  0.00     0.032 A 
BRANCH  27  30
HETATM   30  N   UNL     1      41.872  -9.262  13.883  1.00  0.00    -0.318 N 
HETATM   31  C   UNL     1      40.705  -8.501  14.068  1.00  0.00     0.224 C 
HETATM   32  O   UNL     1      39.775  -8.314  13.299  1.00  0.00    -0.273 OA
HETATM   33  C   UNL     1      40.808  -7.822  15.414  1.00  0.00     0.105 C 
HETATM   34  C   UNL     1      41.852  -8.647  16.138  1.00  0.00     0.029 C 
HETATM   35  C   UNL     1      42.755  -9.123  15.019  1.00  0.00     0.133 C 
ENDBRANCH  27  30
ENDBRANCH  21  24
ENDBRANCH  19  20
ENDBRANCH   1  19
TORSDOF 8
ENDMDL
MODEL 6
REMARK VINA RESULT:      -7.9      5.488     10.251
REMARK  8 active torsions:
REMARK  status: ('A' for Active; 'I' for Inactive)
REMARK    1  A    between atoms: O_2  and  C_3 
REMARK    2  A    between atoms: C_6  and  C_7 
REMARK    3  A    between atoms: C_7  and  N_8 
REMARK    4  A    between atoms: C_7  and  C_27 
REMARK    5  A    between atoms: N_8  and  C_11 
REMARK    6  A    between atoms: C_11  and  C_12 
REMARK       I    between atoms: C_12  and  N_13 
REMARK    7  A    between atoms: N_13  and  C_14 
REMARK    8  A    between atoms: C_17  and  N_18 
ROOT
HETATM    1  N   UNL     1      43.407 -17.900   1.205  1.00  0.00    -0.055 N 
HETATM    2  H   UNL     1      43.928 -17.088   0.832  1.00  0.00     0.278 HD
HETATM    3  H   UNL     1      43.734 -18.680   0.626  1.00  0.00     0.278 HD
ENDROOT
BRANCH   1   4
HETATM    4  C   UNL     1      43.830 -18.113   2.622  1.00  0.00     0.252 C 
BRANCH   4   5
HETATM    5  C   UNL     1      42.943 -17.419   3.648  1.00  0.00    -0.023 A 
HETATM    6  C   UNL     1      41.887 -18.068   4.315  1.00  0.00     0.012 A 
HETATM    7  C   UNL     1      41.099 -17.389   5.253  1.00  0.00     0.037 A 
HETATM    8  C   UNL     1      41.358 -16.055   5.554  1.00  0.00     0.068 A 
HETATM    9  C   UNL     1      42.407 -15.405   4.905  1.00  0.00     0.037 A 
HETATM   10  C   UNL     1      43.197 -16.077   3.969  1.00  0.00     0.012 A 
BRANCH   8  11
HETATM   11  O   UNL     1      40.670 -15.282   6.444  1.00  0.00    -0.356 OA
HETATM   12  C   UNL     1      40.199 -14.020   5.986  1.00  0.00     0.210 C 
ENDBRANCH   8  11
ENDBRANCH   4   5
BRANCH   4  13
HETATM   13  C   UNL     1      44.019 -19.602   2.858  1.00  0.00    -0.023 A 
HETATM   14  C   UNL     1      44.622 -20.043   4.050  1.00  0.00     0.009 A 
HETATM   15  C   UNL     1      44.874 -21.400   4.264  1.00  0.00     0.001 A 
HETATM   16  C   UNL     1      44.532 -22.336   3.294  1.00  0.00     0.000 A 
HETATM   17  C   UNL     1      43.938 -21.920   2.106  1.00  0.00     0.001 A 
HETATM   18  C   UNL     1      43.687 -20.564   1.886  1.00  0.00     0.009 A 
ENDBRANCH   4  13
ENDBRANCH   1   4
BRANCH   1  19
HETATM   19  C   UNL     1      41.951 -17.615   0.957  1.00  0.00     0.336 C 
BRANCH  19  20
HETATM   20  C   UNL     1      41.827 -16.217   0.355  1.00  0.00     0.248 C 
HETATM   21  N   UNL     1      41.021 -16.143  -0.762  1.00  0.00    -0.326 N 
HETATM   22  H   UNL     1      40.615 -16.993  -1.136  1.00  0.00     0.169 HD
HETATM   23  O   UNL     1      42.534 -15.330   0.828  1.00  0.00    -0.271 OA
BRANCH  21  24
HETATM   24  C   UNL     1      40.729 -14.982  -1.510  1.00  0.00     0.034 A 
HETATM   25  C   UNL     1      40.061 -13.873  -1.001  1.00  0.00     0.032 A 
HETATM   26  C   UNL     1      39.763 -12.780  -1.830  1.00  0.00     0.032 A 
HETATM   27  C   UNL     1      40.134 -12.759  -3.179  1.00  0.00     0.037 A 
HETATM   28  C   UNL     1      40.836 -13.868  -3.670  1.00  0.00     0.032 A 
HETATM   29  C   UNL     1      41.115 -14.971  -2.853  1.00  0.00     0.032 A 
BRANCH  27  30
HETATM   30  N   UNL     1      39.809 -11.672  -4.032  1.00  0.00    -0.318 N 
HETATM   31  C   UNL     1      40.723 -10.881  -4.750  1.00  0.00     0.224 C 
HETATM   32  O   UNL     1      41.936 -10.990  -4.838  1.00  0.00    -0.273 OA
HETATM   33  C   UNL     1      39.953  -9.739  -5.372  1.00  0.00     0.105 C 
HETATM   34  C   UNL     1      38.523 -10.238  -5.357  1.00  0.00     0.029 C 
HETATM   35  C   UNL     1      38.476 -11.121  -4.127  1.00  0.00     0.133 C 
ENDBRANCH  27  30
ENDBRANCH  21  24
ENDBRANCH  19  20
ENDBRANCH   1  19
TORSDOF 8
ENDMDL
MODEL 7
REMARK VINA RESULT:      -7.8      2.412      4.394
REMARK  8 active torsions:
REMARK  status: ('A' for Active; 'I' for Inactive)
REMARK    1  A    between atoms: O_2  and  C_3 
REMARK    2  A    between atoms: C_6  and  C_7 
REMARK    3  A    between atoms: C_7  and  N_8 
REMARK    4  A    between atoms: C_7  and  C_27 
REMARK    5  A    between atoms: N_8  and  C_11 
REMARK    6  A    between atoms: C_11  and  C_12 
REMARK       I    between atoms: C_12  and  N_13 
REMARK    7  A    between atoms: N_13  and  C_14 
REMARK    8  A    between atoms: C_17  and  N_18 
ROOT
HETATM    1  N   UNL     1      40.909 -11.120   8.739  1.00  0.00    -0.055 N 
HETATM    2  H   UNL     1      41.465 -11.953   8.481  1.00  0.00     0.278 HD
HETATM    3  H   UNL     1      40.257 -11.480   9.444  1.00  0.00     0.278 HD
ENDROOT
BRANCH   1   4
HETATM    4  C   UNL     1      41.827 -10.122   9.364  1.00  0.00     0.252 C 
BRANCH   4   5
HETATM    5  C   UNL     1      41.289  -9.495  10.643  1.00  0.00    -0.023 A 
HETATM    6  C   UNL     1      41.403  -8.121  10.932  1.00  0.00     0.012 A 
HETATM    7  C   UNL     1      40.891  -7.588  12.122  1.00  0.00     0.037 A 
HETATM    8  C   UNL     1      40.245  -8.412  13.040  1.00  0.00     0.068 A 
HETATM    9  C   UNL     1      40.120  -9.772  12.759  1.00  0.00     0.037 A 
HETATM   10  C   UNL     1      40.627 -10.310  11.574  1.00  0.00     0.012 A 
BRANCH   8  11
HETATM   11  O   UNL     1      39.703  -8.021  14.230  1.00  0.00    -0.356 OA
HETATM   12  C   UNL     1      40.604  -7.704  15.284  1.00  0.00     0.210 C 
ENDBRANCH   8  11
ENDBRANCH   4   5
BRANCH   4  13
HETATM   13  C   UNL     1      43.207 -10.745   9.499  1.00  0.00    -0.023 A 
HETATM   14  C   UNL     1      43.609 -11.741   8.590  1.00  0.00     0.009 A 
HETATM   15  C   UNL     1      44.842 -12.381   8.731  1.00  0.00     0.001 A 
HETATM   16  C   UNL     1      45.691 -12.041   9.780  1.00  0.00     0.000 A 
HETATM   17  C   UNL     1      45.309 -11.061  10.691  1.00  0.00     0.001 A 
HETATM   18  C   UNL     1      44.076 -10.420  10.557  1.00  0.00     0.009 A 
ENDBRANCH   4  13
ENDBRANCH   1   4
BRANCH   1  19
HETATM   19  C   UNL     1      40.180 -10.700   7.493  1.00  0.00     0.336 C 
BRANCH  19  20
HETATM   20  C   UNL     1      40.725 -11.508   6.317  1.00  0.00     0.248 C 
HETATM   21  N   UNL     1      40.845 -12.861   6.557  1.00  0.00    -0.326 N 
HETATM   22  H   UNL     1      40.624 -13.221   7.479  1.00  0.00     0.169 HD
HETATM   23  O   UNL     1      41.114 -10.885   5.331  1.00  0.00    -0.271 OA
BRANCH  21  24
HETATM   24  C   UNL     1      41.314 -13.835   5.650  1.00  0.00     0.034 A 
HETATM   25  C   UNL     1      40.487 -14.649   4.883  1.00  0.00     0.032 A 
HETATM   26  C   UNL     1      41.036 -15.632   4.044  1.00  0.00     0.032 A 
HETATM   27  C   UNL     1      42.419 -15.818   3.940  1.00  0.00     0.037 A 
HETATM   28  C   UNL     1      43.241 -14.970   4.692  1.00  0.00     0.032 A 
HETATM   29  C   UNL     1      42.697 -14.003   5.548  1.00  0.00     0.032 A 
BRANCH  27  30
HETATM   30  N   UNL     1      42.981 -16.831   3.118  1.00  0.00    -0.318 N 
HETATM   31  C   UNL     1      43.181 -18.174   3.479  1.00  0.00     0.224 C 
HETATM   32  O   UNL     1      42.873 -18.750   4.511  1.00  0.00    -0.273 OA
HETATM   33  C   UNL     1      43.967 -18.836   2.371  1.00  0.00     0.105 C 
HETATM   34  C   UNL     1      43.746 -17.912   1.191  1.00  0.00     0.029 C 
HETATM   35  C   UNL     1      43.596 -16.551   1.840  1.00  0.00     0.133 C 
ENDBRANCH  27  30
ENDBRANCH  21  24
ENDBRANCH  19  20
ENDBRANCH   1  19
TORSDOF 8
ENDMDL
MODEL 8
REMARK VINA RESULT:      -7.7      4.908      9.134
REMARK  8 active torsions:
REMARK  status: ('A' for Active; 'I' for Inactive)
REMARK    1  A    between atoms: O_2  and  C_3 
REMARK    2  A    between atoms: C_6  and  C_7 
REMARK    3  A    between atoms: C_7  and  N_8 
REMARK    4  A    between atoms: C_7  and  C_27 
REMARK    5  A    between atoms: N_8  and  C_11 
REMARK    6  A    between atoms: C_11  and  C_12 
REMARK       I    between atoms: C_12  and  N_13 
REMARK    7  A    between atoms: N_13  and  C_14 
REMARK    8  A    between atoms: C_17  and  N_18 
ROOT
HETATM    1  N   UNL     1      43.029 -18.101   2.360  1.00  0.00    -0.055 N 
HETATM    2  H   UNL     1      43.405 -19.054   2.213  1.00  0.00     0.278 HD
HETATM    3  H   UNL     1      42.023 -18.258   2.476  1.00  0.00     0.278 HD
ENDROOT
BRANCH   1   4
HETATM    4  C   UNL     1      43.604 -17.564   3.629  1.00  0.00     0.252 C 
BRANCH   4   5
HETATM    5  C   UNL     1      42.815 -16.409   4.232  1.00  0.00    -0.023 A 
HETATM    6  C   UNL     1      41.409 -16.343   4.205  1.00  0.00     0.012 A 
HETATM    7  C   UNL     1      40.726 -15.261   4.775  1.00  0.00     0.037 A 
HETATM    8  C   UNL     1      41.431 -14.232   5.394  1.00  0.00     0.068 A 
HETATM    9  C   UNL     1      42.823 -14.292   5.433  1.00  0.00     0.037 A 
HETATM   10  C   UNL     1      43.511 -15.369   4.868  1.00  0.00     0.012 A 
BRANCH   8  11
HETATM   11  O   UNL     1      40.890 -13.127   5.985  1.00  0.00    -0.356 OA
HETATM   12  C   UNL     1      39.491 -13.146   6.247  1.00  0.00     0.210 C 
ENDBRANCH   8  11
ENDBRANCH   4   5
BRANCH   4  13
HETATM   13  C   UNL     1      43.854 -18.723   4.582  1.00  0.00    -0.023 A 
HETATM   14  C   UNL     1      44.504 -19.878   4.111  1.00  0.00     0.009 A 
HETATM   15  C   UNL     1      44.684 -20.985   4.942  1.00  0.00     0.001 A 
HETATM   16  C   UNL     1      44.216 -20.959   6.253  1.00  0.00     0.000 A 
HETATM   17  C   UNL     1      43.567 -19.827   6.735  1.00  0.00     0.001 A 
HETATM   18  C   UNL     1      43.381 -18.718   5.907  1.00  0.00     0.009 A 
ENDBRANCH   4  13
ENDBRANCH   1   4
BRANCH   1  19
HETATM   19  C   UNL     1      43.317 -17.338   1.097  1.00  0.00     0.336 C 
BRANCH  19  20
HETATM   20  C   UNL     1      41.991 -16.861   0.507  1.00  0.00     0.248 C 
HETATM   21  N   UNL     1      42.085 -15.724  -0.269  1.00  0.00    -0.326 N 
HETATM   22  H   UNL     1      42.981 -15.258  -0.358  1.00  0.00     0.169 HD
HETATM   23  O   UNL     1      40.969 -17.441   0.864  1.00  0.00    -0.271 OA
BRANCH  21  24
HETATM   24  C   UNL     1      41.024 -15.073  -0.935  1.00  0.00     0.034 A 
HETATM   25  C   UNL     1      40.042 -14.324  -0.294  1.00  0.00     0.032 A 
HETATM   26  C   UNL     1      38.990 -13.754  -1.029  1.00  0.00     0.032 A 
HETATM   27  C   UNL     1      38.898 -13.904  -2.417  1.00  0.00     0.037 A 
HETATM   28  C   UNL     1      39.911 -14.633  -3.053  1.00  0.00     0.032 A 
HETATM   29  C   UNL     1      40.951 -15.223  -2.323  1.00  0.00     0.032 A 
BRANCH  27  30
HETATM   30  N   UNL     1      37.820 -13.358  -3.163  1.00  0.00    -0.318 N 
HETATM   31  C   UNL     1      36.956 -14.070  -4.012  1.00  0.00     0.224 C 
HETATM   32  O   UNL     1      36.909 -15.270  -4.235  1.00  0.00    -0.273 OA
HETATM   33  C   UNL     1      36.086 -13.065  -4.731  1.00  0.00     0.105 C 
HETATM   34  C   UNL     1      36.195 -11.830  -3.861  1.00  0.00     0.029 C 
HETATM   35  C   UNL     1      37.589 -11.936  -3.280  1.00  0.00     0.133 C 
ENDBRANCH  27  30
ENDBRANCH  21  24
ENDBRANCH  19  20
ENDBRANCH   1  19
TORSDOF 8
ENDMDL
MODEL 9
REMARK VINA RESULT:      -7.6      2.920      4.134
REMARK  8 active torsions:
REMARK  status: ('A' for Active; 'I' for Inactive)
REMARK    1  A    between atoms: O_2  and  C_3 
REMARK    2  A    between atoms: C_6  and  C_7 
REMARK    3  A    between atoms: C_7  and  N_8 
REMARK    4  A    between atoms: C_7  and  C_27 
REMARK    5  A    between atoms: N_8  and  C_11 
REMARK    6  A    between atoms: C_11  and  C_12 
REMARK       I    between atoms: C_12  and  N_13 
REMARK    7  A    between atoms: N_13  and  C_14 
REMARK    8  A    between atoms: C_17  and  N_18 
ROOT
HETATM    1  N   UNL     1      41.454 -11.899   7.544  1.00  0.00    -0.055 N 
HETATM    2  H   UNL     1      41.942 -12.755   7.861  1.00  0.00     0.278 HD
HETATM    3  H   UNL     1      40.487 -12.051   7.849  1.00  0.00     0.278 HD
ENDROOT
BRANCH   1   4
HETATM    4  C   UNL     1      42.037 -10.734   8.275  1.00  0.00     0.252 C 
BRANCH   4   5
HETATM    5  C   UNL     1      41.074 -10.062   9.246  1.00  0.00    -0.023 A 
HETATM    6  C   UNL     1      40.629  -8.736   9.091  1.00  0.00     0.012 A 
HETATM    7  C   UNL     1      39.740  -8.160  10.009  1.00  0.00     0.037 A 
HETATM    8  C   UNL     1      39.270  -8.900  11.090  1.00  0.00     0.068 A 
HETATM    9  C   UNL     1      39.699 -10.217  11.248  1.00  0.00     0.037 A 
HETATM   10  C   UNL     1      40.583 -10.798  10.335  1.00  0.00     0.012 A 
BRANCH   8  11
HETATM   11  O   UNL     1      38.406  -8.460  12.051  1.00  0.00    -0.356 OA
HETATM   12  C   UNL     1      37.663  -7.280  11.771  1.00  0.00     0.210 C 
ENDBRANCH   8  11
ENDBRANCH   4   5
BRANCH   4  13
HETATM   13  C   UNL     1      43.361 -11.156   8.891  1.00  0.00    -0.023 A 
HETATM   14  C   UNL     1      43.832 -10.493  10.039  1.00  0.00     0.009 A 
HETATM   15  C   UNL     1      45.076 -10.810  10.587  1.00  0.00     0.001 A 
HETATM   16  C   UNL     1      45.871 -11.788   9.997  1.00  0.00     0.000 A 
HETATM   17  C   UNL     1      45.424 -12.452   8.859  1.00  0.00     0.001 A 
HETATM   18  C   UNL     1      44.182 -12.137   8.306  1.00  0.00     0.009 A 
ENDBRANCH   4  13
ENDBRANCH   1   4
BRANCH   1  19
HETATM   19  C   UNL     1      41.553 -11.890   6.044  1.00  0.00     0.336 C 
BRANCH  19  20
HETATM   20  C   UNL     1      42.302 -13.145   5.600  1.00  0.00     0.248 C 
HETATM   21  N   UNL     1      41.977 -14.286   6.305  1.00  0.00    -0.326 N 
HETATM   22  H   UNL     1      41.325 -14.220   7.079  1.00  0.00     0.169 HD
HETATM   23  O   UNL     1      43.192 -13.010   4.764  1.00  0.00    -0.271 OA
BRANCH  21  24
HETATM   24  C   UNL     1      42.509 -15.577   6.102  1.00  0.00     0.034 A 
HETATM   25  C   UNL     1      43.748 -15.994   6.580  1.00  0.00     0.032 A 
HETATM   26  C   UNL     1      44.226 -17.281   6.287  1.00  0.00     0.032 A 
HETATM   27  C   UNL     1      43.479 -18.186   5.525  1.00  0.00     0.037 A 
HETATM   28  C   UNL     1      42.220 -17.765   5.079  1.00  0.00     0.032 A 
HETATM   29  C   UNL     1      41.748 -16.474   5.349  1.00  0.00     0.032 A 
BRANCH  27  30
HETATM   30  N   UNL     1      43.969 -19.478   5.198  1.00  0.00    -0.318 N 
HETATM   31  C   UNL     1      44.019 -20.588   6.059  1.00  0.00     0.224 C 
HETATM   32  O   UNL     1      43.615 -20.692   7.207  1.00  0.00    -0.273 OA
HETATM   33  C   UNL     1      44.776 -21.687   5.351  1.00  0.00     0.105 C 
HETATM   34  C   UNL     1      44.694 -21.278   3.894  1.00  0.00     0.029 C 
HETATM   35  C   UNL     1      44.657 -19.765   3.959  1.00  0.00     0.133 C 
ENDBRANCH  27  30
ENDBRANCH  21  24
ENDBRANCH  19  20
ENDBRANCH   1  19
TORSDOF 8
ENDMDL
MODEL 10
REMARK VINA RESULT:      -7.5      4.715      9.128
REMARK  8 active torsions:
REMARK  status: ('A' for Active; 'I' for Inactive)
REMARK    1  A    between atoms: O_2  and  C_3 
REMARK    2  A    between atoms: C_6  and  C_7 
REMARK    3  A    between atoms: C_7  and  N_8 
REMARK    4  A    between atoms: C_7  and  C_27 
REMARK    5  A    between atoms: N_8  and  C_11 
REMARK    6  A    between atoms: C_11  and  C_12 
REMARK       I    between atoms: C_12  and  N_13 
REMARK    7  A    between atoms: N_13  and  C_14 
REMARK    8  A    between atoms: C_17  and  N_18 
ROOT
HETATM    1  N   UNL     1      41.570 -17.741   2.171  1.00  0.00    -0.055 N 
HETATM    2  H   UNL     1      41.679 -18.770   2.193  1.00  0.00     0.278 HD
HETATM    3  H   UNL     1      40.773 -17.574   2.793  1.00  0.00     0.278 HD
ENDROOT
BRANCH   1   4
HETATM    4  C   UNL     1      42.801 -17.130   2.755  1.00  0.00     0.252 C 
BRANCH   4   5
HETATM    5  C   UNL     1      42.532 -15.956   3.687  1.00  0.00    -0.023 A 
HETATM    6  C   UNL     1      41.502 -15.958   4.647  1.00  0.00     0.012 A 
HETATM    7  C   UNL     1      41.293 -14.854   5.485  1.00  0.00     0.037 A 
HETATM    8  C   UNL     1      42.116 -13.736   5.391  1.00  0.00     0.068 A 
HETATM    9  C   UNL     1      43.145 -13.727   4.450  1.00  0.00     0.037 A 
HETATM   10  C   UNL     1      43.359 -14.825   3.611  1.00  0.00     0.012 A 
BRANCH   8  11
HETATM   11  O   UNL     1      42.021 -12.601   6.144  1.00  0.00    -0.356 OA
HETATM   12  C   UNL     1      41.430 -11.460   5.534  1.00  0.00     0.210 C 
ENDBRANCH   8  11
ENDBRANCH   4   5
BRANCH   4  13
HETATM   13  C   UNL     1      43.655 -18.233   3.360  1.00  0.00    -0.023 A 
HETATM   14  C   UNL     1      43.996 -19.351   2.578  1.00  0.00     0.009 A 
HETATM   15  C   UNL     1      44.719 -20.412   3.126  1.00  0.00     0.001 A 
HETATM   16  C   UNL     1      45.110 -20.376   4.461  1.00  0.00     0.000 A 
HETATM   17  C   UNL     1      44.779 -19.280   5.252  1.00  0.00     0.001 A 
HETATM   18  C   UNL     1      44.053 -18.218   4.709  1.00  0.00     0.009 A 
ENDBRANCH   4  13
ENDBRANCH   1   4
BRANCH   1  19
HETATM   19  C   UNL     1      41.233 -17.386   0.749  1.00  0.00     0.336 C 
BRANCH  19  20
HETATM   20  C   UNL     1      40.804 -15.920   0.706  1.00  0.00     0.248 C 
HETATM   21  N   UNL     1      39.683 -15.628   1.455  1.00  0.00    -0.326 N 
HETATM   22  H   UNL     1      39.196 -16.379   1.930  1.00  0.00     0.169 HD
HETATM   23  O   UNL     1      41.402 -15.176  -0.068  1.00  0.00    -0.271 OA
BRANCH  21  24
HETATM   24  C   UNL     1      39.076 -14.362   1.597  1.00  0.00     0.034 A 
HETATM   25  C   UNL     1      37.941 -13.959   0.901  1.00  0.00     0.032 A 
HETATM   26  C   UNL     1      37.432 -12.660   1.062  1.00  0.00     0.032 A 
HETATM   27  C   UNL     1      38.031 -11.739   1.928  1.00  0.00     0.037 A 
HETATM   28  C   UNL     1      39.154 -12.169   2.647  1.00  0.00     0.032 A 
HETATM   29  C   UNL     1      39.679 -13.456   2.473  1.00  0.00     0.032 A 
BRANCH  27  30
HETATM   30  N   UNL     1      37.542 -10.414   2.073  1.00  0.00    -0.318 N 
HETATM   31  C   UNL     1      37.395  -9.713   3.283  1.00  0.00     0.224 C 
HETATM   32  O   UNL     1      37.698 -10.057   4.415  1.00  0.00    -0.273 OA
HETATM   33  C   UNL     1      36.676  -8.419   2.981  1.00  0.00     0.105 C 
HETATM   34  C   UNL     1      36.889  -8.246   1.491  1.00  0.00     0.029 C 
HETATM   35  C   UNL     1      36.954  -9.671   0.981  1.00  0.00     0.133 C 
ENDBRANCH  27  30
ENDBRANCH  21  24
ENDBRANCH  19  20
ENDBRANCH   1  19
TORSDOF 8
ENDMDL
