MODEL 1
REMARK VINA RESULT:      -9.1      0.000      0.000
REMARK  7 active torsions:
REMARK  status: ('A' for Active; 'I' for Inactive)
REMARK    1  A    between atoms: C_6  and  N_7 
REMARK       I    between atoms: N_7  and  C_8 
REMARK       I    between atoms: C_8  and  N_9 
REMARK    2  A    between atoms: N_9  and  C_10 
REMARK    3  A    between atoms: C_10  and  C_11 
REMARK    4  A    between atoms: C_11  and  C_12 
REMARK    5  A    between atoms: C_12  and  C_13 
REMARK    6  A    between atoms: C_13  and  O_14 
REMARK    7  A    between atoms: O_14  and  C_15 
ROOT
HETATM    1  C   UNL     1      45.684 -13.315   7.324  1.00  0.00     0.219 C 
ENDROOT
BRANCH   1   2
HETATM    2  N   UNL     1      45.164 -12.686   8.508  1.00  0.00    -0.332 N 
HETATM    3  C   UNL     1      45.698 -11.515   8.949  1.00  0.00     0.321 C 
HETATM    4  N   UNL     1      45.141 -10.949  10.054  1.00  0.00    -0.309 N 
HETATM    5  O   UNL     1      46.677 -10.983   8.431  1.00  0.00    -0.247 OA
HETATM    6  H   UNL     1      45.747 -10.238  10.446  1.00  0.00     0.170 HD
HETATM    7  H   UNL     1      44.724 -13.269   9.204  1.00  0.00     0.165 HD
BRANCH   4   8
HETATM    8  C   UNL     1      43.849 -11.033  10.601  1.00  0.00     0.036 A 
HETATM    9  C   UNL     1      42.679 -10.749   9.895  1.00  0.00     0.037 A 
HETATM   10  C   UNL     1      41.420 -10.780  10.526  1.00  0.00    -0.054 A 
HETATM   11  C   UNL     1      41.336 -11.124  11.888  1.00  0.00    -0.056 A 
HETATM   12  C   UNL     1      40.192 -10.460   9.717  1.00  0.00     0.049 C 
HETATM   13  C   UNL     1      40.019 -11.164  12.612  1.00  0.00     0.049 C 
HETATM   14  C   UNL     1      42.515 -11.385  12.597  1.00  0.00     0.009 A 
HETATM   15  C   UNL     1      43.758 -11.332  11.962  1.00  0.00     0.030 A 
ENDBRANCH   4   8
ENDBRANCH   1   2
BRANCH   1  16
HETATM   16  C   UNL     1      44.855 -14.521   6.914  1.00  0.00    -0.085 C 
BRANCH  16  17
HETATM   17  C   UNL     1      44.145 -15.556   6.561  1.00  0.00    -0.078 C 
BRANCH  17  18
HETATM   18  C   UNL     1      43.317 -16.764   6.150  1.00  0.00     0.269 C 
BRANCH  18  19
HETATM   19  O   UNL     1      44.196 -17.841   5.849  1.00  0.00    -0.337 OA
BRANCH  19  20
HETATM   20  C   UNL     1      44.067 -18.448   4.617  1.00  0.00     0.099 A 
HETATM   21  C   UNL     1      44.290 -19.805   4.298  1.00  0.00     0.100 A 
HETATM   22  C   UNL     1      44.095 -20.191   2.949  1.00  0.00    -0.005 A 
HETATM   23  N   UNL     1      44.676 -20.731   5.213  1.00  0.00    -0.257 NA
HETATM   24  C   UNL     1      44.309 -21.529   2.586  1.00  0.00     0.015 A 
HETATM   25  C   UNL     1      43.696 -19.261   1.976  1.00  0.00     0.014 A 
HETATM   26  C   UNL     1      44.703 -22.456   3.538  1.00  0.00     0.020 A 
HETATM   27  C   UNL     1      44.873 -22.011   4.828  1.00  0.00     0.117 A 
HETATM   28  C   UNL     1      43.481 -17.932   2.315  1.00  0.00     0.004 A 
HETATM   29  C   UNL     1      43.667 -17.530   3.630  1.00  0.00     0.039 A 
ENDBRANCH  19  20
ENDBRANCH  18  19
ENDBRANCH  17  18
ENDBRANCH  16  17
ENDBRANCH   1  16
TORSDOF 7
ENDMDL
MODEL 2
REMARK VINA RESULT:      -9.1      1.760      2.790
REMARK  7 active torsions:
REMARK  status: ('A' for Active; 'I' for Inactive)
REMARK    1  A    between atoms: C_6  and  N_7 
REMARK       I    between atoms: N_7  and  C_8 
REMARK       I    between atoms: C_8  and  N_9 
REMARK    2  A    between atoms: N_9  and  C_10 
REMARK    3  A    between atoms: C_10  and  C_11 
REMARK    4  A    between atoms: C_11  and  C_12 
REMARK    5  A    between atoms: C_12  and  C_13 
REMARK    6  A    between atoms: C_13  and  O_14 
REMARK    7  A    between atoms: O_14  and  C_15 
ROOT
HETATM    1  C   UNL     1      44.218 -13.843   6.784  1.00  0.00     0.219 C 
ENDROOT
BRANCH   1   2
HETATM    2  N   UNL     1      44.419 -13.295   8.098  1.00  0.00    -0.332 N 
HETATM    3  C   UNL     1      45.567 -12.628   8.392  1.00  0.00     0.321 C 
HETATM    4  N   UNL     1      45.686 -12.101   9.640  1.00  0.00    -0.309 N 
HETATM    5  O   UNL     1      46.508 -12.527   7.606  1.00  0.00    -0.247 OA
HETATM    6  H   UNL     1      46.646 -11.853   9.844  1.00  0.00     0.170 HD
HETATM    7  H   UNL     1      43.942 -13.729   8.875  1.00  0.00     0.165 HD
BRANCH   4   8
HETATM    8  C   UNL     1      44.724 -11.675  10.574  1.00  0.00     0.036 A 
HETATM    9  C   UNL     1      44.268 -10.361  10.685  1.00  0.00     0.037 A 
HETATM   10  C   UNL     1      43.359  -9.987  11.693  1.00  0.00    -0.054 A 
HETATM   11  C   UNL     1      42.883 -10.959  12.593  1.00  0.00    -0.056 A 
HETATM   12  C   UNL     1      42.904  -8.554  11.769  1.00  0.00     0.049 C 
HETATM   13  C   UNL     1      41.919 -10.613  13.693  1.00  0.00     0.049 C 
HETATM   14  C   UNL     1      43.363 -12.271  12.491  1.00  0.00     0.009 A 
HETATM   15  C   UNL     1      44.279 -12.623  11.498  1.00  0.00     0.030 A 
ENDBRANCH   4   8
ENDBRANCH   1   2
BRANCH   1  16
HETATM   16  C   UNL     1      44.388 -15.354   6.770  1.00  0.00    -0.085 C 
BRANCH  16  17
HETATM   17  C   UNL     1      44.534 -16.649   6.757  1.00  0.00    -0.078 C 
BRANCH  17  18
HETATM   18  C   UNL     1      44.704 -18.160   6.743  1.00  0.00     0.269 C 
BRANCH  18  19
HETATM   19  O   UNL     1      43.537 -18.748   6.182  1.00  0.00    -0.337 OA
BRANCH  19  20
HETATM   20  C   UNL     1      43.499 -18.916   4.814  1.00  0.00     0.099 A 
HETATM   21  C   UNL     1      42.673 -18.244   3.886  1.00  0.00     0.100 A 
HETATM   22  C   UNL     1      42.817 -18.597   2.522  1.00  0.00    -0.005 A 
HETATM   23  N   UNL     1      41.769 -17.297   4.245  1.00  0.00    -0.257 NA
HETATM   24  C   UNL     1      42.014 -17.957   1.565  1.00  0.00     0.015 A 
HETATM   25  C   UNL     1      43.741 -19.571   2.114  1.00  0.00     0.014 A 
HETATM   26  C   UNL     1      41.098 -16.993   1.956  1.00  0.00     0.020 A 
HETATM   27  C   UNL     1      41.013 -16.700   3.297  1.00  0.00     0.117 A 
HETATM   28  C   UNL     1      44.543 -20.217   3.046  1.00  0.00     0.004 A 
HETATM   29  C   UNL     1      44.420 -19.889   4.388  1.00  0.00     0.039 A 
ENDBRANCH  19  20
ENDBRANCH  18  19
ENDBRANCH  17  18
ENDBRANCH  16  17
ENDBRANCH   1  16
TORSDOF 7
ENDMDL
MODEL 3
REMARK VINA RESULT:      -8.9      1.052      1.768
REMARK  7 active torsions:
REMARK  status: ('A' for Active; 'I' for Inactive)
REMARK    1  A    between atoms: C_6  and  N_7 
REMARK       I    between atoms: N_7  and  C_8 
REMARK       I    between atoms: C_8  and  N_9 
REMARK    2  A    between atoms: N_9  and  C_10 
REMARK    3  A    between atoms: C_10  and  C_11 
REMARK    4  A    between atoms: C_11  and  C_12 
REMARK    5  A    between atoms: C_12  and  C_13 
REMARK    6  A    between atoms: C_13  and  O_14 
REMARK    7  A    between atoms: O_14  and  C_15 
ROOT
HETATM    1  C   UNL     1      45.600 -13.372   7.531  1.00  0.00     0.219 C 
ENDROOT
BRANCH   1   2
HETATM    2  N   UNL     1      45.185 -12.581   8.658  1.00  0.00    -0.332 N 
HETATM    3  C   UNL     1      45.825 -11.416   8.948  1.00  0.00     0.321 C 
HETATM    4  N   UNL     1      45.366 -10.694  10.005  1.00  0.00    -0.309 N 
HETATM    5  O   UNL     1      46.815 -11.022   8.336  1.00  0.00    -0.247 OA
HETATM    6  H   UNL     1      46.041  -9.996  10.292  1.00  0.00     0.170 HD
HETATM    7  H   UNL     1      44.737 -13.050   9.432  1.00  0.00     0.165 HD
BRANCH   4   8
HETATM    8  C   UNL     1      44.098 -10.616  10.609  1.00  0.00     0.036 A 
HETATM    9  C   UNL     1      43.891 -10.545  11.988  1.00  0.00     0.037 A 
HETATM   10  C   UNL     1      42.591 -10.546  12.531  1.00  0.00    -0.054 A 
HETATM   11  C   UNL     1      41.480 -10.598  11.669  1.00  0.00    -0.056 A 
HETATM   12  C   UNL     1      42.426 -10.472  14.025  1.00  0.00     0.049 C 
HETATM   13  C   UNL     1      40.072 -10.610  12.195  1.00  0.00     0.049 C 
HETATM   14  C   UNL     1      41.695 -10.693  10.288  1.00  0.00     0.009 A 
HETATM   15  C   UNL     1      42.990 -10.710   9.766  1.00  0.00     0.030 A 
ENDBRANCH   4   8
ENDBRANCH   1   2
BRANCH   1  16
HETATM   16  C   UNL     1      44.460 -14.213   6.980  1.00  0.00    -0.085 C 
BRANCH  16  17
HETATM   17  C   UNL     1      43.482 -14.934   6.508  1.00  0.00    -0.078 C 
BRANCH  17  18
HETATM   18  C   UNL     1      42.340 -15.774   5.956  1.00  0.00     0.269 C 
BRANCH  18  19
HETATM   19  O   UNL     1      42.816 -17.093   5.716  1.00  0.00    -0.337 OA
BRANCH  19  20
HETATM   20  C   UNL     1      42.688 -17.597   4.438  1.00  0.00     0.099 A 
HETATM   21  C   UNL     1      43.345 -18.718   3.886  1.00  0.00     0.100 A 
HETATM   22  C   UNL     1      43.051 -19.037   2.537  1.00  0.00    -0.005 A 
HETATM   23  N   UNL     1      44.226 -19.482   4.581  1.00  0.00    -0.257 NA
HETATM   24  C   UNL     1      43.683 -20.141   1.945  1.00  0.00     0.015 A 
HETATM   25  C   UNL     1      42.145 -18.270   1.788  1.00  0.00     0.014 A 
HETATM   26  C   UNL     1      44.579 -20.906   2.676  1.00  0.00     0.020 A 
HETATM   27  C   UNL     1      44.816 -20.539   3.980  1.00  0.00     0.117 A 
HETATM   28  C   UNL     1      41.511 -17.173   2.355  1.00  0.00     0.004 A 
HETATM   29  C   UNL     1      41.783 -16.840   3.674  1.00  0.00     0.039 A 
ENDBRANCH  19  20
ENDBRANCH  18  19
ENDBRANCH  17  18
ENDBRANCH  16  17
ENDBRANCH   1  16
TORSDOF 7
ENDMDL
MODEL 4
REMARK VINA RESULT:      -8.7      1.602     10.305
REMARK  7 active torsions:
REMARK  status: ('A' for Active; 'I' for Inactive)
REMARK    1  A    between atoms: C_6  and  N_7 
REMARK       I    between atoms: N_7  and  C_8 
REMARK       I    between atoms: C_8  and  N_9 
REMARK    2  A    between atoms: N_9  and  C_10 
REMARK    3  A    between atoms: C_10  and  C_11 
REMARK    4  A    between atoms: C_11  and  C_12 
REMARK    5  A    between atoms: C_12  and  C_13 
REMARK    6  A    between atoms: C_13  and  O_14 
REMARK    7  A    between atoms: O_14  and  C_15 
ROOT
HETATM    1  C   UNL     1      43.249 -14.853   6.089  1.00  0.00     0.219 C 
ENDROOT
BRANCH   1   2
HETATM    2  N   UNL     1      43.729 -16.194   5.896  1.00  0.00    -0.332 N 
HETATM    3  C   UNL     1      43.605 -17.114   6.891  1.00  0.00     0.321 C 
HETATM    4  N   UNL     1      44.045 -18.376   6.638  1.00  0.00    -0.309 N 
HETATM    5  O   UNL     1      43.166 -16.843   8.007  1.00  0.00    -0.247 OA
HETATM    6  H   UNL     1      44.145 -18.907   7.494  1.00  0.00     0.170 HD
HETATM    7  H   UNL     1      44.482 -16.343   5.240  1.00  0.00     0.165 HD
BRANCH   4   8
HETATM    8  C   UNL     1      44.187 -19.098   5.440  1.00  0.00     0.036 A 
HETATM    9  C   UNL     1      43.843 -18.601   4.181  1.00  0.00     0.037 A 
HETATM   10  C   UNL     1      43.939 -19.406   3.029  1.00  0.00    -0.054 A 
HETATM   11  C   UNL     1      44.411 -20.727   3.143  1.00  0.00    -0.056 A 
HETATM   12  C   UNL     1      43.550 -18.820   1.698  1.00  0.00     0.049 C 
HETATM   13  C   UNL     1      44.525 -21.631   1.947  1.00  0.00     0.049 C 
HETATM   14  C   UNL     1      44.732 -21.226   4.412  1.00  0.00     0.009 A 
HETATM   15  C   UNL     1      44.614 -20.423   5.547  1.00  0.00     0.030 A 
ENDBRANCH   4   8
ENDBRANCH   1   2
BRANCH   1  16
HETATM   16  C   UNL     1      44.190 -14.035   6.959  1.00  0.00    -0.085 C 
BRANCH  16  17
HETATM   17  C   UNL     1      44.997 -13.333   7.704  1.00  0.00    -0.078 C 
BRANCH  17  18
HETATM   18  C   UNL     1      45.939 -12.514   8.572  1.00  0.00     0.269 C 
BRANCH  18  19
HETATM   19  O   UNL     1      45.350 -11.243   8.816  1.00  0.00    -0.337 OA
BRANCH  19  20
HETATM   20  C   UNL     1      44.263 -11.194   9.665  1.00  0.00     0.099 A 
HETATM   21  C   UNL     1      42.950 -10.773   9.359  1.00  0.00     0.100 A 
HETATM   22  C   UNL     1      42.001 -10.807  10.410  1.00  0.00    -0.005 A 
HETATM   23  N   UNL     1      42.574 -10.346   8.127  1.00  0.00    -0.257 NA
HETATM   24  C   UNL     1      40.685 -10.395  10.153  1.00  0.00     0.015 A 
HETATM   25  C   UNL     1      42.355 -11.244  11.697  1.00  0.00     0.014 A 
HETATM   26  C   UNL     1      40.325  -9.963   8.886  1.00  0.00     0.020 A 
HETATM   27  C   UNL     1      41.297  -9.956   7.914  1.00  0.00     0.117 A 
HETATM   28  C   UNL     1      43.653 -11.654  11.972  1.00  0.00     0.004 A 
HETATM   29  C   UNL     1      44.600 -11.628  10.958  1.00  0.00     0.039 A 
ENDBRANCH  19  20
ENDBRANCH  18  19
ENDBRANCH  17  18
ENDBRANCH  16  17
ENDBRANCH   1  16
TORSDOF 7
ENDMDL
MODEL 5
REMARK VINA RESULT:      -8.4      4.440      8.543
REMARK  7 active torsions:
REMARK  status: ('A' for Active; 'I' for Inactive)
REMARK    1  A    between atoms: C_6  and  N_7 
REMARK       I    between atoms: N_7  and  C_8 
REMARK       I    between atoms: C_8  and  N_9 
REMARK    2  A    between atoms: N_9  and  C_10 
REMARK    3  A    between atoms: C_10  and  C_11 
REMARK    4  A    between atoms: C_11  and  C_12 
REMARK    5  A    between atoms: C_12  and  C_13 
REMARK    6  A    between atoms: C_13  and  O_14 
REMARK    7  A    between atoms: O_14  and  C_15 
ROOT
HETATM    1  C   UNL     1      44.490 -15.302   6.912  1.00  0.00     0.219 C 
ENDROOT
BRANCH   1   2
HETATM    2  N   UNL     1      44.510 -16.701   6.585  1.00  0.00    -0.332 N 
HETATM    3  C   UNL     1      43.777 -17.584   7.316  1.00  0.00     0.321 C 
HETATM    4  N   UNL     1      43.808 -18.891   6.938  1.00  0.00    -0.309 N 
HETATM    5  O   UNL     1      43.140 -17.264   8.318  1.00  0.00    -0.247 OA
HETATM    6  H   UNL     1      43.450 -19.492   7.669  1.00  0.00     0.170 HD
HETATM    7  H   UNL     1      45.327 -17.072   6.122  1.00  0.00     0.165 HD
BRANCH   4   8
HETATM    8  C   UNL     1      44.050 -19.502   5.694  1.00  0.00     0.036 A 
HETATM    9  C   UNL     1      43.817 -18.889   4.462  1.00  0.00     0.037 A 
HETATM   10  C   UNL     1      44.010 -19.586   3.253  1.00  0.00    -0.054 A 
HETATM   11  C   UNL     1      44.466 -20.917   3.285  1.00  0.00    -0.056 A 
HETATM   12  C   UNL     1      43.739 -18.878   1.953  1.00  0.00     0.049 C 
HETATM   13  C   UNL     1      44.680 -21.710   2.026  1.00  0.00     0.049 C 
HETATM   14  C   UNL     1      44.675 -21.534   4.526  1.00  0.00     0.009 A 
HETATM   15  C   UNL     1      44.462 -20.836   5.716  1.00  0.00     0.030 A 
ENDBRANCH   4   8
ENDBRANCH   1   2
BRANCH   1  16
HETATM   16  C   UNL     1      43.779 -14.482   5.848  1.00  0.00    -0.085 C 
BRANCH  16  17
HETATM   17  C   UNL     1      43.170 -13.778   4.934  1.00  0.00    -0.078 C 
BRANCH  17  18
HETATM   18  C   UNL     1      42.461 -12.957   3.869  1.00  0.00     0.269 C 
BRANCH  18  19
HETATM   19  O   UNL     1      41.177 -13.523   3.633  1.00  0.00    -0.337 OA
BRANCH  19  20
HETATM   20  C   UNL     1      41.086 -14.533   2.698  1.00  0.00     0.099 A 
HETATM   21  C   UNL     1      41.204 -14.421   1.295  1.00  0.00     0.100 A 
HETATM   22  C   UNL     1      41.066 -15.612   0.539  1.00  0.00    -0.005 A 
HETATM   23  N   UNL     1      41.438 -13.244   0.660  1.00  0.00    -0.257 NA
HETATM   24  C   UNL     1      41.173 -15.547  -0.858  1.00  0.00     0.015 A 
HETATM   25  C   UNL     1      40.824 -16.846   1.162  1.00  0.00     0.014 A 
HETATM   26  C   UNL     1      41.412 -14.334  -1.484  1.00  0.00     0.020 A 
HETATM   27  C   UNL     1      41.536 -13.219  -0.688  1.00  0.00     0.117 A 
HETATM   28  C   UNL     1      40.713 -16.930   2.544  1.00  0.00     0.004 A 
HETATM   29  C   UNL     1      40.844 -15.778   3.305  1.00  0.00     0.039 A 
ENDBRANCH  19  20
ENDBRANCH  18  19
ENDBRANCH  17  18
ENDBRANCH  16  17
ENDBRANCH   1  16
TORSDOF 7
ENDMDL
MODEL 6
REMARK VINA RESULT:      -8.3      2.556      3.250
REMARK  7 active torsions:
REMARK  status: ('A' for Active; 'I' for Inactive)
REMARK    1  A    between atoms: C_6  and  N_7 
REMARK       I    between atoms: N_7  and  C_8 
REMARK       I    between atoms: C_8  and  N_9 
REMARK    2  A    between atoms: N_9  and  C_10 
REMARK    3  A    between atoms: C_10  and  C_11 
REMARK    4  A    between atoms: C_11  and  C_12 
REMARK    5  A    between atoms: C_12  and  C_13 
REMARK    6  A    between atoms: C_13  and  O_14 
REMARK    7  A    between atoms: O_14  and  C_15 
ROOT
HETATM    1  C   UNL     1      40.163 -13.645   5.683  1.00  0.00     0.219 C 
ENDROOT
BRANCH   1   2
HETATM    2  N   UNL     1      40.519 -12.628   6.634  1.00  0.00    -0.332 N 
HETATM    3  C   UNL     1      39.766 -11.500   6.742  1.00  0.00     0.321 C 
HETATM    4  N   UNL     1      40.131 -10.589   7.683  1.00  0.00    -0.309 N 
HETATM    5  O   UNL     1      38.816 -11.251   6.001  1.00  0.00    -0.247 OA
HETATM    6  H   UNL     1      39.681  -9.696   7.522  1.00  0.00     0.170 HD
HETATM    7  H   UNL     1      41.487 -12.548   6.908  1.00  0.00     0.165 HD
BRANCH   4   8
HETATM    8  C   UNL     1      40.830 -10.721   8.896  1.00  0.00     0.036 A 
HETATM    9  C   UNL     1      40.236 -11.077  10.107  1.00  0.00     0.037 A 
HETATM   10  C   UNL     1      40.983 -11.118  11.301  1.00  0.00    -0.054 A 
HETATM   11  C   UNL     1      42.357 -10.816  11.270  1.00  0.00    -0.056 A 
HETATM   12  C   UNL     1      40.290 -11.504  12.581  1.00  0.00     0.049 C 
HETATM   13  C   UNL     1      43.199 -10.836  12.515  1.00  0.00     0.049 C 
HETATM   14  C   UNL     1      42.942 -10.437  10.055  1.00  0.00     0.009 A 
HETATM   15  C   UNL     1      42.185 -10.383   8.883  1.00  0.00     0.030 A 
ENDBRANCH   4   8
ENDBRANCH   1   2
BRANCH   1  16
HETATM   16  C   UNL     1      40.967 -14.919   5.889  1.00  0.00    -0.085 C 
BRANCH  16  17
HETATM   17  C   UNL     1      41.657 -16.011   6.067  1.00  0.00    -0.078 C 
BRANCH  17  18
HETATM   18  C   UNL     1      42.461 -17.284   6.274  1.00  0.00     0.269 C 
BRANCH  18  19
HETATM   19  O   UNL     1      43.650 -17.207   5.495  1.00  0.00    -0.337 OA
BRANCH  19  20
HETATM   20  C   UNL     1      43.719 -17.981   4.355  1.00  0.00     0.099 A 
HETATM   21  C   UNL     1      44.076 -19.344   4.261  1.00  0.00     0.100 A 
HETATM   22  C   UNL     1      44.079 -19.922   2.967  1.00  0.00    -0.005 A 
HETATM   23  N   UNL     1      44.408 -20.103   5.337  1.00  0.00    -0.257 NA
HETATM   24  C   UNL     1      44.431 -21.272   2.826  1.00  0.00     0.015 A 
HETATM   25  C   UNL     1      43.741 -19.168   1.833  1.00  0.00     0.014 A 
HETATM   26  C   UNL     1      44.767 -22.026   3.939  1.00  0.00     0.020 A 
HETATM   27  C   UNL     1      44.741 -21.401   5.164  1.00  0.00     0.117 A 
HETATM   28  C   UNL     1      43.392 -17.829   1.952  1.00  0.00     0.004 A 
HETATM   29  C   UNL     1      43.382 -17.241   3.209  1.00  0.00     0.039 A 
ENDBRANCH  19  20
ENDBRANCH  18  19
ENDBRANCH  17  18
ENDBRANCH  16  17
ENDBRANCH   1  16
TORSDOF 7
ENDMDL
MODEL 7
REMARK VINA RESULT:      -8.2      4.759      8.789
REMARK  7 active torsions:
REMARK  status: ('A' for Active; 'I' for Inactive)
REMARK    1  A    between atoms: C_6  and  N_7 
REMARK       I    between atoms: N_7  and  C_8 
REMARK       I    between atoms: C_8  and  N_9 
REMARK    2  A    between atoms: N_9  and  C_10 
REMARK    3  A    between atoms: C_10  and  C_11 
REMARK    4  A    between atoms: C_11  and  C_12 
REMARK    5  A    between atoms: C_12  and  C_13 
REMARK    6  A    between atoms: C_13  and  O_14 
REMARK    7  A    between atoms: O_14  and  C_15 
ROOT
HETATM    1  C   UNL     1      40.689 -16.604   6.402  1.00  0.00     0.219 C 
ENDROOT
BRANCH   1   2
HETATM    2  N   UNL     1      41.801 -17.149   5.672  1.00  0.00    -0.332 N 
HETATM    3  C   UNL     1      43.073 -16.922   6.096  1.00  0.00     0.321 C 
HETATM    4  N   UNL     1      44.084 -17.492   5.385  1.00  0.00    -0.309 N 
HETATM    5  O   UNL     1      43.346 -16.194   7.049  1.00  0.00    -0.247 OA
HETATM    6  H   UNL     1      44.976 -17.072   5.615  1.00  0.00     0.170 HD
HETATM    7  H   UNL     1      41.683 -17.328   4.686  1.00  0.00     0.165 HD
BRANCH   4   8
HETATM    8  C   UNL     1      44.129 -18.641   4.576  1.00  0.00     0.036 A 
HETATM    9  C   UNL     1      44.476 -19.911   5.039  1.00  0.00     0.037 A 
HETATM   10  C   UNL     1      44.575 -21.006   4.159  1.00  0.00    -0.054 A 
HETATM   11  C   UNL     1      44.299 -20.823   2.791  1.00  0.00    -0.056 A 
HETATM   12  C   UNL     1      44.957 -22.353   4.712  1.00  0.00     0.049 C 
HETATM   13  C   UNL     1      44.398 -21.955   1.806  1.00  0.00     0.049 C 
HETATM   14  C   UNL     1      43.975 -19.541   2.329  1.00  0.00     0.009 A 
HETATM   15  C   UNL     1      43.898 -18.462   3.211  1.00  0.00     0.030 A 
ENDBRANCH   4   8
ENDBRANCH   1   2
BRANCH   1  16
HETATM   16  C   UNL     1      40.282 -15.237   5.877  1.00  0.00    -0.085 C 
BRANCH  16  17
HETATM   17  C   UNL     1      39.934 -14.064   5.426  1.00  0.00    -0.078 C 
BRANCH  17  18
HETATM   18  C   UNL     1      39.529 -12.696   4.901  1.00  0.00     0.269 C 
BRANCH  18  19
HETATM   19  O   UNL     1      40.564 -12.204   4.056  1.00  0.00    -0.337 OA
BRANCH  19  20
HETATM   20  C   UNL     1      41.486 -13.112   3.579  1.00  0.00     0.099 A 
HETATM   21  C   UNL     1      41.334 -14.003   2.494  1.00  0.00     0.100 A 
HETATM   22  C   UNL     1      42.431 -14.850   2.197  1.00  0.00    -0.005 A 
HETATM   23  N   UNL     1      40.205 -14.077   1.744  1.00  0.00    -0.257 NA
HETATM   24  C   UNL     1      42.323 -15.753   1.129  1.00  0.00     0.015 A 
HETATM   25  C   UNL     1      43.614 -14.800   2.950  1.00  0.00     0.014 A 
HETATM   26  C   UNL     1      41.160 -15.811   0.378  1.00  0.00     0.020 A 
HETATM   27  C   UNL     1      40.136 -14.959   0.723  1.00  0.00     0.117 A 
HETATM   28  C   UNL     1      43.739 -13.914   4.012  1.00  0.00     0.004 A 
HETATM   29  C   UNL     1      42.678 -13.075   4.322  1.00  0.00     0.039 A 
ENDBRANCH  19  20
ENDBRANCH  18  19
ENDBRANCH  17  18
ENDBRANCH  16  17
ENDBRANCH   1  16
TORSDOF 7
ENDMDL
MODEL 8
REMARK VINA RESULT:      -8.1      4.196      9.185
REMARK  7 active torsions:
REMARK  status: ('A' for Active; 'I' for Inactive)
REMARK    1  A    between atoms: C_6  and  N_7 
REMARK       I    between atoms: N_7  and  C_8 
REMARK       I    between atoms: C_8  and  N_9 
REMARK    2  A    between atoms: N_9  and  C_10 
REMARK    3  A    between atoms: C_10  and  C_11 
REMARK    4  A    between atoms: C_11  and  C_12 
REMARK    5  A    between atoms: C_12  and  C_13 
REMARK    6  A    between atoms: C_13  and  O_14 
REMARK    7  A    between atoms: O_14  and  C_15 
ROOT
HETATM    1  C   UNL     1      39.801 -15.849   1.456  1.00  0.00     0.219 C 
ENDROOT
BRANCH   1   2
HETATM    2  N   UNL     1      40.958 -16.701   1.418  1.00  0.00    -0.332 N 
HETATM    3  C   UNL     1      42.061 -16.324   0.716  1.00  0.00     0.321 C 
HETATM    4  N   UNL     1      43.137 -17.155   0.746  1.00  0.00    -0.309 N 
HETATM    5  O   UNL     1      42.106 -15.306   0.028  1.00  0.00    -0.247 OA
HETATM    6  H   UNL     1      43.797 -16.926   0.012  1.00  0.00     0.170 HD
HETATM    7  H   UNL     1      40.824 -17.694   1.543  1.00  0.00     0.165 HD
BRANCH   4   8
HETATM    8  C   UNL     1      43.568 -18.100   1.694  1.00  0.00     0.036 A 
HETATM    9  C   UNL     1      43.652 -19.472   1.450  1.00  0.00     0.037 A 
HETATM   10  C   UNL     1      44.019 -20.373   2.468  1.00  0.00    -0.054 A 
HETATM   11  C   UNL     1      44.329 -19.881   3.750  1.00  0.00    -0.056 A 
HETATM   12  C   UNL     1      44.089 -21.842   2.151  1.00  0.00     0.049 C 
HETATM   13  C   UNL     1      44.719 -20.798   4.875  1.00  0.00     0.049 C 
HETATM   14  C   UNL     1      44.221 -18.506   3.995  1.00  0.00     0.009 A 
HETATM   15  C   UNL     1      43.837 -17.627   2.980  1.00  0.00     0.030 A 
ENDBRANCH   4   8
ENDBRANCH   1   2
BRANCH   1  16
HETATM   16  C   UNL     1      39.908 -14.798   2.549  1.00  0.00    -0.085 C 
BRANCH  16  17
HETATM   17  C   UNL     1      40.000 -13.897   3.487  1.00  0.00    -0.078 C 
BRANCH  17  18
HETATM   18  C   UNL     1      40.109 -12.847   4.581  1.00  0.00     0.269 C 
BRANCH  18  19
HETATM   19  O   UNL     1      40.019 -13.491   5.846  1.00  0.00    -0.337 OA
BRANCH  19  20
HETATM   20  C   UNL     1      40.832 -14.583   6.068  1.00  0.00     0.099 A 
HETATM   21  C   UNL     1      42.229 -14.587   6.275  1.00  0.00     0.100 A 
HETATM   22  C   UNL     1      42.847 -15.846   6.477  1.00  0.00    -0.005 A 
HETATM   23  N   UNL     1      42.984 -13.458   6.285  1.00  0.00    -0.257 NA
HETATM   24  C   UNL     1      44.234 -15.898   6.683  1.00  0.00     0.015 A 
HETATM   25  C   UNL     1      42.099 -17.033   6.474  1.00  0.00     0.014 A 
HETATM   26  C   UNL     1      44.983 -14.732   6.689  1.00  0.00     0.020 A 
HETATM   27  C   UNL     1      44.317 -13.546   6.487  1.00  0.00     0.117 A 
HETATM   28  C   UNL     1      40.726 -17.003   6.270  1.00  0.00     0.004 A 
HETATM   29  C   UNL     1      40.098 -15.782   6.068  1.00  0.00     0.039 A 
ENDBRANCH  19  20
ENDBRANCH  18  19
ENDBRANCH  17  18
ENDBRANCH  16  17
ENDBRANCH   1  16
TORSDOF 7
ENDMDL
MODEL 9
REMARK VINA RESULT:      -8.1      2.853      4.020
REMARK  7 active torsions:
REMARK  status: ('A' for Active; 'I' for Inactive)
REMARK    1  A    between atoms: C_6  and  N_7 
REMARK       I    between atoms: N_7  and  C_8 
REMARK       I    between atoms: C_8  and  N_9 
REMARK    2  A    between atoms: N_9  and  C_10 
REMARK    3  A    between atoms: C_10  and  C_11 
REMARK    4  A    between atoms: C_11  and  C_12 
REMARK    5  A    between atoms: C_12  and  C_13 
REMARK    6  A    between atoms: C_13  and  O_14 
REMARK    7  A    between atoms: O_14  and  C_15 
ROOT
HETATM    1  C   UNL     1      40.014 -13.620   5.716  1.00  0.00     0.219 C 
ENDROOT
BRANCH   1   2
HETATM    2  N   UNL     1      40.404 -12.597   6.647  1.00  0.00    -0.332 N 
HETATM    3  C   UNL     1      39.683 -11.448   6.741  1.00  0.00     0.321 C 
HETATM    4  N   UNL     1      40.079 -10.531   7.665  1.00  0.00    -0.309 N 
HETATM    5  O   UNL     1      38.733 -11.186   6.005  1.00  0.00    -0.247 OA
HETATM    6  H   UNL     1      39.652  -9.629   7.492  1.00  0.00     0.170 HD
HETATM    7  H   UNL     1      41.377 -12.538   6.912  1.00  0.00     0.165 HD
BRANCH   4   8
HETATM    8  C   UNL     1      40.786 -10.662   8.874  1.00  0.00     0.036 A 
HETATM    9  C   UNL     1      40.202 -11.039  10.084  1.00  0.00     0.037 A 
HETATM   10  C   UNL     1      40.954 -11.077  11.275  1.00  0.00    -0.054 A 
HETATM   11  C   UNL     1      42.322 -10.751  11.242  1.00  0.00    -0.056 A 
HETATM   12  C   UNL     1      40.272 -11.487  12.553  1.00  0.00     0.049 C 
HETATM   13  C   UNL     1      43.169 -10.767  12.484  1.00  0.00     0.049 C 
HETATM   14  C   UNL     1      42.896 -10.351  10.028  1.00  0.00     0.009 A 
HETATM   15  C   UNL     1      42.134 -10.300   8.860  1.00  0.00     0.030 A 
ENDBRANCH   4   8
ENDBRANCH   1   2
BRANCH   1  16
HETATM   16  C   UNL     1      40.705 -14.942   6.006  1.00  0.00    -0.085 C 
BRANCH  16  17
HETATM   17  C   UNL     1      41.298 -16.077   6.253  1.00  0.00    -0.078 C 
BRANCH  17  18
HETATM   18  C   UNL     1      41.991 -17.399   6.542  1.00  0.00     0.269 C 
BRANCH  18  19
HETATM   19  O   UNL     1      43.334 -17.324   6.079  1.00  0.00    -0.337 OA
BRANCH  19  20
HETATM   20  C   UNL     1      43.684 -18.108   4.999  1.00  0.00     0.099 A 
HETATM   21  C   UNL     1      43.529 -17.805   3.629  1.00  0.00     0.100 A 
HETATM   22  C   UNL     1      43.963 -18.782   2.699  1.00  0.00    -0.005 A 
HETATM   23  N   UNL     1      42.992 -16.641   3.181  1.00  0.00    -0.257 NA
HETATM   24  C   UNL     1      43.825 -18.524   1.327  1.00  0.00     0.015 A 
HETATM   25  C   UNL     1      44.523 -19.995   3.127  1.00  0.00     0.014 A 
HETATM   26  C   UNL     1      43.273 -17.329   0.893  1.00  0.00     0.020 A 
HETATM   27  C   UNL     1      42.875 -16.426   1.852  1.00  0.00     0.117 A 
HETATM   28  C   UNL     1      44.666 -20.270   4.480  1.00  0.00     0.004 A 
HETATM   29  C   UNL     1      44.248 -19.329   5.410  1.00  0.00     0.039 A 
ENDBRANCH  19  20
ENDBRANCH  18  19
ENDBRANCH  17  18
ENDBRANCH  16  17
ENDBRANCH   1  16
TORSDOF 7
ENDMDL
MODEL 10
REMARK VINA RESULT:      -8.1      2.901     10.501
REMARK  7 active torsions:
REMARK  status: ('A' for Active; 'I' for Inactive)
REMARK    1  A    between atoms: C_6  and  N_7 
REMARK       I    between atoms: N_7  and  C_8 
REMARK       I    between atoms: C_8  and  N_9 
REMARK    2  A    between atoms: N_9  and  C_10 
REMARK    3  A    between atoms: C_10  and  C_11 
REMARK    4  A    between atoms: C_11  and  C_12 
REMARK    5  A    between atoms: C_12  and  C_13 
REMARK    6  A    between atoms: C_13  and  O_14 
REMARK    7  A    between atoms: O_14  and  C_15 
ROOT
HETATM    1  C   UNL     1      42.378 -13.147   3.808  1.00  0.00     0.219 C 
ENDROOT
BRANCH   1   2
HETATM    2  N   UNL     1      42.209 -14.570   3.930  1.00  0.00    -0.332 N 
HETATM    3  C   UNL     1      40.984 -15.131   3.740  1.00  0.00     0.321 C 
HETATM    4  N   UNL     1      40.892 -16.485   3.833  1.00  0.00    -0.309 N 
HETATM    5  O   UNL     1      39.965 -14.472   3.540  1.00  0.00    -0.247 OA
HETATM    6  H   UNL     1      39.929 -16.781   3.928  1.00  0.00     0.170 HD
HETATM    7  H   UNL     1      42.846 -15.077   4.526  1.00  0.00     0.165 HD
BRANCH   4   8
HETATM    8  C   UNL     1      41.838 -17.506   3.629  1.00  0.00     0.036 A 
HETATM    9  C   UNL     1      42.615 -18.067   4.643  1.00  0.00     0.037 A 
HETATM   10  C   UNL     1      43.598 -19.034   4.358  1.00  0.00    -0.054 A 
HETATM   11  C   UNL     1      43.787 -19.461   3.030  1.00  0.00    -0.056 A 
HETATM   12  C   UNL     1      44.411 -19.602   5.490  1.00  0.00     0.049 C 
HETATM   13  C   UNL     1      44.827 -20.483   2.669  1.00  0.00     0.049 C 
HETATM   14  C   UNL     1      43.019 -18.877   2.014  1.00  0.00     0.009 A 
HETATM   15  C   UNL     1      42.062 -17.905   2.310  1.00  0.00     0.030 A 
ENDBRANCH   4   8
ENDBRANCH   1   2
BRANCH   1  16
HETATM   16  C   UNL     1      41.989 -12.420   5.085  1.00  0.00    -0.085 C 
BRANCH  16  17
HETATM   17  C   UNL     1      41.656 -11.796   6.181  1.00  0.00    -0.078 C 
BRANCH  17  18
HETATM   18  C   UNL     1      41.269 -11.068   7.458  1.00  0.00     0.269 C 
BRANCH  18  19
HETATM   19  O   UNL     1      42.416 -10.403   7.972  1.00  0.00    -0.337 OA
BRANCH  19  20
HETATM   20  C   UNL     1      42.984 -10.905   9.125  1.00  0.00     0.099 A 
HETATM   21  C   UNL     1      42.551 -10.706  10.454  1.00  0.00     0.100 A 
HETATM   22  C   UNL     1      43.309 -11.327  11.478  1.00  0.00    -0.005 A 
HETATM   23  N   UNL     1      41.464  -9.962  10.780  1.00  0.00    -0.257 NA
HETATM   24  C   UNL     1      42.918 -11.154  12.814  1.00  0.00     0.015 A 
HETATM   25  C   UNL     1      44.439 -12.104  11.179  1.00  0.00     0.014 A 
HETATM   26  C   UNL     1      41.804 -10.388  13.122  1.00  0.00     0.020 A 
HETATM   27  C   UNL     1      41.115  -9.817  12.077  1.00  0.00     0.117 A 
HETATM   28  C   UNL     1      44.843 -12.285   9.863  1.00  0.00     0.004 A 
HETATM   29  C   UNL     1      44.117 -11.687   8.843  1.00  0.00     0.039 A 
ENDBRANCH  19  20
ENDBRANCH  18  19
ENDBRANCH  17  18
ENDBRANCH  16  17
ENDBRANCH   1  16
TORSDOF 7
ENDMDL
