MODEL 1
REMARK VINA RESULT:      -8.6      0.000      0.000
REMARK  5 active torsions:
REMARK  status: ('A' for Active; 'I' for Inactive)
REMARK    1  A    between atoms: C_3  and  N_4 
REMARK       I    between atoms: N_4  and  C_5 
REMARK       I    between atoms: C_5  and  N_6 
REMARK    2  A    between atoms: N_6  and  C_7 
REMARK    3  A    between atoms: C_7  and  C_8 
REMARK    4  A    between atoms: C_10  and  N_11 
REMARK       I    between atoms: N_11  and  C_12 
REMARK    5  A    between atoms: C_12  and  C_13 
ROOT
HETATM    1  C   UNL     1      41.591 -16.014   3.657  1.00  0.00    -0.038 A 
HETATM    2  C   UNL     1      42.372 -15.059   4.335  1.00  0.00     0.038 A 
HETATM    3  C   UNL     1      42.457 -15.057   5.729  1.00  0.00     0.035 A 
HETATM    4  C   UNL     1      41.742 -16.018   6.452  1.00  0.00     0.029 A 
HETATM    5  C   UNL     1      40.954 -16.963   5.793  1.00  0.00     0.003 A 
HETATM    6  C   UNL     1      40.875 -16.959   4.403  1.00  0.00     0.009 A 
ENDROOT
BRANCH   1   7
HETATM    7  C   UNL     1      41.499 -15.986   2.153  1.00  0.00     0.163 C 
BRANCH   7   8
HETATM    8  N   UNL     1      42.764 -16.341   1.540  1.00  0.00    -0.339 N 
HETATM    9  C   UNL     1      43.521 -17.466   1.643  1.00  0.00     0.321 C 
HETATM   10  N   UNL     1      42.928 -18.542   2.238  1.00  0.00    -0.307 N 
HETATM   11  O   UNL     1      44.665 -17.425   1.200  1.00  0.00    -0.247 OA
HETATM   12  H   UNL     1      41.929 -18.499   2.325  1.00  0.00     0.170 HD
HETATM   13  H   UNL     1      43.273 -15.585   1.096  1.00  0.00     0.164 HD
BRANCH  10  14
HETATM   14  C   UNL     1      43.530 -19.780   2.569  1.00  0.00     0.059 A 
HETATM   15  C   UNL     1      44.188 -19.915   3.807  1.00  0.00    -0.032 A 
HETATM   16  C   UNL     1      44.276 -18.793   4.805  1.00  0.00     0.050 C 
HETATM   17  C   UNL     1      44.782 -21.144   4.128  1.00  0.00     0.028 A 
HETATM   18  C   UNL     1      44.714 -22.184   3.216  1.00  0.00     0.117 A 
HETATM   19  N   UNL     1      44.106 -22.086   2.020  1.00  0.00    -0.271 NA
HETATM   20  C   UNL     1      43.529 -20.892   1.726  1.00  0.00     0.146 A 
ENDBRANCH  10  14
ENDBRANCH   7   8
ENDBRANCH   1   7
BRANCH   3  21
HETATM   21  N   UNL     1      43.220 -14.128   6.470  1.00  0.00    -0.323 N 
HETATM   22  C   UNL     1      44.416 -14.357   7.126  1.00  0.00     0.256 C 
HETATM   23  O   UNL     1      45.000 -15.429   7.237  1.00  0.00    -0.267 OA
HETATM   24  H   UNL     1      42.802 -13.213   6.574  1.00  0.00     0.169 HD
BRANCH  22  25
HETATM   25  C   UNL     1      45.019 -13.165   7.783  1.00  0.00     0.035 A 
HETATM   26  C   UNL     1      46.331 -12.763   7.527  1.00  0.00     0.036 A 
HETATM   27  C   UNL     1      46.806 -11.649   8.197  1.00  0.00     0.117 A 
HETATM   28  N   UNL     1      46.075 -10.936   9.080  1.00  0.00    -0.273 NA
HETATM   29  C   UNL     1      44.817 -11.362   9.325  1.00  0.00     0.117 A 
HETATM   30  C   UNL     1      44.249 -12.462   8.711  1.00  0.00     0.036 A 
ENDBRANCH  22  25
ENDBRANCH   3  21
TORSDOF 5
ENDMDL
MODEL 2
REMARK VINA RESULT:      -8.4      2.985      7.747
REMARK  5 active torsions:
REMARK  status: ('A' for Active; 'I' for Inactive)
REMARK    1  A    between atoms: C_3  and  N_4 
REMARK       I    between atoms: N_4  and  C_5 
REMARK       I    between atoms: C_5  and  N_6 
REMARK    2  A    between atoms: N_6  and  C_7 
REMARK    3  A    between atoms: C_7  and  C_8 
REMARK    4  A    between atoms: C_10  and  N_11 
REMARK       I    between atoms: N_11  and  C_12 
REMARK    5  A    between atoms: C_12  and  C_13 
ROOT
HETATM    1  C   UNL     1      42.334 -14.769   5.032  1.00  0.00    -0.038 A 
HETATM    2  C   UNL     1      42.873 -15.929   4.444  1.00  0.00     0.038 A 
HETATM    3  C   UNL     1      42.290 -17.181   4.655  1.00  0.00     0.035 A 
HETATM    4  C   UNL     1      41.159 -17.271   5.473  1.00  0.00     0.029 A 
HETATM    5  C   UNL     1      40.621 -16.131   6.072  1.00  0.00     0.003 A 
HETATM    6  C   UNL     1      41.208 -14.886   5.856  1.00  0.00     0.009 A 
ENDROOT
BRANCH   1   7
HETATM    7  C   UNL     1      42.990 -13.431   4.804  1.00  0.00     0.163 C 
BRANCH   7   8
HETATM    8  N   UNL     1      43.057 -13.108   3.393  1.00  0.00    -0.339 N 
HETATM    9  C   UNL     1      42.078 -13.003   2.454  1.00  0.00     0.321 C 
HETATM   10  N   UNL     1      40.795 -12.977   2.918  1.00  0.00    -0.307 N 
HETATM   11  O   UNL     1      42.422 -12.941   1.278  1.00  0.00    -0.247 OA
HETATM   12  H   UNL     1      40.687 -12.793   3.900  1.00  0.00     0.170 HD
HETATM   13  H   UNL     1      43.979 -13.129   2.973  1.00  0.00     0.164 HD
BRANCH  10  14
HETATM   14  C   UNL     1      39.604 -12.990   2.153  1.00  0.00     0.059 A 
HETATM   15  C   UNL     1      39.047 -14.226   1.769  1.00  0.00    -0.032 A 
HETATM   16  C   UNL     1      39.664 -15.545   2.146  1.00  0.00     0.050 C 
HETATM   17  C   UNL     1      37.867 -14.230   1.011  1.00  0.00     0.028 A 
HETATM   18  C   UNL     1      37.292 -13.024   0.651  1.00  0.00     0.117 A 
HETATM   19  N   UNL     1      37.804 -11.826   0.988  1.00  0.00    -0.271 NA
HETATM   20  C   UNL     1      38.943 -11.837   1.729  1.00  0.00     0.146 A 
ENDBRANCH  10  14
ENDBRANCH   7   8
ENDBRANCH   1   7
BRANCH   3  21
HETATM   21  N   UNL     1      42.781 -18.382   4.098  1.00  0.00    -0.323 N 
HETATM   22  C   UNL     1      43.951 -19.043   4.425  1.00  0.00     0.256 C 
HETATM   23  O   UNL     1      44.810 -18.668   5.215  1.00  0.00    -0.267 OA
HETATM   24  H   UNL     1      42.234 -18.758   3.334  1.00  0.00     0.169 HD
BRANCH  22  25
HETATM   25  C   UNL     1      44.181 -20.324   3.703  1.00  0.00     0.035 A 
HETATM   26  C   UNL     1      44.734 -21.440   4.333  1.00  0.00     0.036 A 
HETATM   27  C   UNL     1      44.921 -22.583   3.574  1.00  0.00     0.117 A 
HETATM   28  N   UNL     1      44.601 -22.675   2.266  1.00  0.00    -0.273 NA
HETATM   29  C   UNL     1      44.089 -21.573   1.677  1.00  0.00     0.117 A 
HETATM   30  C   UNL     1      43.866 -20.383   2.345  1.00  0.00     0.036 A 
ENDBRANCH  22  25
ENDBRANCH   3  21
TORSDOF 5
ENDMDL
MODEL 3
REMARK VINA RESULT:      -8.4      3.101      6.505
REMARK  5 active torsions:
REMARK  status: ('A' for Active; 'I' for Inactive)
REMARK    1  A    between atoms: C_3  and  N_4 
REMARK       I    between atoms: N_4  and  C_5 
REMARK       I    between atoms: C_5  and  N_6 
REMARK    2  A    between atoms: N_6  and  C_7 
REMARK    3  A    between atoms: C_7  and  C_8 
REMARK    4  A    between atoms: C_10  and  N_11 
REMARK       I    between atoms: N_11  and  C_12 
REMARK    5  A    between atoms: C_12  and  C_13 
ROOT
HETATM    1  C   UNL     1      42.659 -15.463   5.019  1.00  0.00    -0.038 A 
HETATM    2  C   UNL     1      42.641 -15.410   3.613  1.00  0.00     0.038 A 
HETATM    3  C   UNL     1      41.477 -15.069   2.920  1.00  0.00     0.035 A 
HETATM    4  C   UNL     1      40.315 -14.788   3.647  1.00  0.00     0.029 A 
HETATM    5  C   UNL     1      40.316 -14.847   5.042  1.00  0.00     0.003 A 
HETATM    6  C   UNL     1      41.481 -15.187   5.725  1.00  0.00     0.009 A 
ENDROOT
BRANCH   1   7
HETATM    7  C   UNL     1      43.922 -15.850   5.745  1.00  0.00     0.163 C 
BRANCH   7   8
HETATM    8  N   UNL     1      43.750 -17.088   6.480  1.00  0.00    -0.339 N 
HETATM    9  C   UNL     1      43.795 -18.384   6.069  1.00  0.00     0.321 C 
HETATM   10  N   UNL     1      44.292 -18.604   4.817  1.00  0.00    -0.307 N 
HETATM   11  O   UNL     1      43.390 -19.242   6.847  1.00  0.00    -0.247 OA
HETATM   12  H   UNL     1      44.800 -17.842   4.406  1.00  0.00     0.170 HD
HETATM   13  H   UNL     1      43.364 -17.003   7.412  1.00  0.00     0.164 HD
BRANCH  10  14
HETATM   14  C   UNL     1      44.337 -19.834   4.115  1.00  0.00     0.059 A 
HETATM   15  C   UNL     1      43.952 -19.866   2.761  1.00  0.00    -0.032 A 
HETATM   16  C   UNL     1      43.496 -18.640   2.017  1.00  0.00     0.050 C 
HETATM   17  C   UNL     1      44.000 -21.087   2.073  1.00  0.00     0.028 A 
HETATM   18  C   UNL     1      44.412 -22.225   2.745  1.00  0.00     0.117 A 
HETATM   19  N   UNL     1      44.773 -22.232   4.041  1.00  0.00    -0.271 NA
HETATM   20  C   UNL     1      44.729 -21.041   4.693  1.00  0.00     0.146 A 
ENDBRANCH  10  14
ENDBRANCH   7   8
ENDBRANCH   1   7
BRANCH   3  21
HETATM   21  N   UNL     1      41.389 -15.000   1.512  1.00  0.00    -0.323 N 
HETATM   22  C   UNL     1      41.806 -13.965   0.695  1.00  0.00     0.256 C 
HETATM   23  O   UNL     1      42.268 -12.887   1.052  1.00  0.00    -0.267 OA
HETATM   24  H   UNL     1      40.913 -15.776   1.071  1.00  0.00     0.169 HD
BRANCH  22  25
HETATM   25  C   UNL     1      41.632 -14.198  -0.765  1.00  0.00     0.035 A 
HETATM   26  C   UNL     1      41.027 -15.354  -1.263  1.00  0.00     0.036 A 
HETATM   27  C   UNL     1      40.923 -15.486  -2.636  1.00  0.00     0.117 A 
HETATM   28  N   UNL     1      41.373 -14.565  -3.515  1.00  0.00    -0.273 NA
HETATM   29  C   UNL     1      41.975 -13.469  -3.005  1.00  0.00     0.117 A 
HETATM   30  C   UNL     1      42.130 -13.243  -1.651  1.00  0.00     0.036 A 
ENDBRANCH  22  25
ENDBRANCH   3  21
TORSDOF 5
ENDMDL
MODEL 4
REMARK VINA RESULT:      -8.3      3.089      7.444
REMARK  5 active torsions:
REMARK  status: ('A' for Active; 'I' for Inactive)
REMARK    1  A    between atoms: C_3  and  N_4 
REMARK       I    between atoms: N_4  and  C_5 
REMARK       I    between atoms: C_5  and  N_6 
REMARK    2  A    between atoms: N_6  and  C_7 
REMARK    3  A    between atoms: C_7  and  C_8 
REMARK    4  A    between atoms: C_10  and  N_11 
REMARK       I    between atoms: N_11  and  C_12 
REMARK    5  A    between atoms: C_12  and  C_13 
ROOT
HETATM    1  C   UNL     1      41.618 -14.596   4.730  1.00  0.00    -0.038 A 
HETATM    2  C   UNL     1      41.856 -15.895   4.247  1.00  0.00     0.038 A 
HETATM    3  C   UNL     1      42.882 -16.683   4.774  1.00  0.00     0.035 A 
HETATM    4  C   UNL     1      43.685 -16.156   5.792  1.00  0.00     0.029 A 
HETATM    5  C   UNL     1      43.467 -14.864   6.273  1.00  0.00     0.003 A 
HETATM    6  C   UNL     1      42.441 -14.085   5.742  1.00  0.00     0.009 A 
ENDROOT
BRANCH   1   7
HETATM    7  C   UNL     1      40.516 -13.758   4.133  1.00  0.00     0.163 C 
BRANCH   7   8
HETATM    8  N   UNL     1      39.551 -14.578   3.428  1.00  0.00    -0.339 N 
HETATM    9  C   UNL     1      39.366 -14.796   2.098  1.00  0.00     0.321 C 
HETATM   10  N   UNL     1      40.361 -14.362   1.271  1.00  0.00    -0.307 N 
HETATM   11  O   UNL     1      38.332 -15.357   1.752  1.00  0.00    -0.247 OA
HETATM   12  H   UNL     1      41.237 -14.148   1.713  1.00  0.00     0.170 HD
HETATM   13  H   UNL     1      38.770 -14.919   3.977  1.00  0.00     0.164 HD
BRANCH  10  14
HETATM   14  C   UNL     1      40.362 -14.363  -0.145  1.00  0.00     0.059 A 
HETATM   15  C   UNL     1      41.006 -15.411  -0.831  1.00  0.00    -0.032 A 
HETATM   16  C   UNL     1      41.693 -16.544  -0.121  1.00  0.00     0.050 C 
HETATM   17  C   UNL     1      41.003 -15.404  -2.234  1.00  0.00     0.028 A 
HETATM   18  C   UNL     1      40.380 -14.364  -2.902  1.00  0.00     0.117 A 
HETATM   19  N   UNL     1      39.768 -13.340  -2.278  1.00  0.00    -0.271 NA
HETATM   20  C   UNL     1      39.772 -13.364  -0.920  1.00  0.00     0.146 A 
ENDBRANCH  10  14
ENDBRANCH   7   8
ENDBRANCH   1   7
BRANCH   3  21
HETATM   21  N   UNL     1      43.176 -17.992   4.334  1.00  0.00    -0.323 N 
HETATM   22  C   UNL     1      43.831 -18.360   3.172  1.00  0.00     0.256 C 
HETATM   23  O   UNL     1      44.216 -17.615   2.278  1.00  0.00    -0.267 OA
HETATM   24  H   UNL     1      42.809 -18.735   4.914  1.00  0.00     0.169 HD
BRANCH  22  25
HETATM   25  C   UNL     1      44.046 -19.823   3.000  1.00  0.00     0.035 A 
HETATM   26  C   UNL     1      43.650 -20.498   1.843  1.00  0.00     0.036 A 
HETATM   27  C   UNL     1      43.882 -21.861   1.782  1.00  0.00     0.117 A 
HETATM   28  N   UNL     1      44.464 -22.569   2.773  1.00  0.00    -0.273 NA
HETATM   29  C   UNL     1      44.815 -21.894   3.889  1.00  0.00     0.117 A 
HETATM   30  C   UNL     1      44.626 -20.534   4.050  1.00  0.00     0.036 A 
ENDBRANCH  22  25
ENDBRANCH   3  21
TORSDOF 5
ENDMDL
MODEL 5
REMARK VINA RESULT:      -8.3      5.099      8.890
REMARK  5 active torsions:
REMARK  status: ('A' for Active; 'I' for Inactive)
REMARK    1  A    between atoms: C_3  and  N_4 
REMARK       I    between atoms: N_4  and  C_5 
REMARK       I    between atoms: C_5  and  N_6 
REMARK    2  A    between atoms: N_6  and  C_7 
REMARK    3  A    between atoms: C_7  and  C_8 
REMARK    4  A    between atoms: C_10  and  N_11 
REMARK       I    between atoms: N_11  and  C_12 
REMARK    5  A    between atoms: C_12  and  C_13 
ROOT
HETATM    1  C   UNL     1      41.261 -14.769   0.499  1.00  0.00    -0.038 A 
HETATM    2  C   UNL     1      41.980 -15.961   0.703  1.00  0.00     0.038 A 
HETATM    3  C   UNL     1      41.482 -16.972   1.528  1.00  0.00     0.035 A 
HETATM    4  C   UNL     1      40.250 -16.779   2.164  1.00  0.00     0.029 A 
HETATM    5  C   UNL     1      39.531 -15.597   1.980  1.00  0.00     0.003 A 
HETATM    6  C   UNL     1      40.035 -14.594   1.155  1.00  0.00     0.009 A 
ENDROOT
BRANCH   1   7
HETATM    7  C   UNL     1      41.827 -13.685  -0.382  1.00  0.00     0.163 C 
BRANCH   7   8
HETATM    8  N   UNL     1      41.896 -14.110  -1.766  1.00  0.00    -0.339 N 
HETATM    9  C   UNL     1      40.926 -14.234  -2.711  1.00  0.00     0.321 C 
HETATM   10  N   UNL     1      39.717 -13.674  -2.414  1.00  0.00    -0.307 N 
HETATM   11  O   UNL     1      41.210 -14.834  -3.743  1.00  0.00    -0.247 OA
HETATM   12  H   UNL     1      39.713 -13.019  -1.653  1.00  0.00     0.170 HD
HETATM   13  H   UNL     1      42.759 -14.556  -2.053  1.00  0.00     0.164 HD
BRANCH  10  14
HETATM   14  C   UNL     1      38.521 -13.761  -3.167  1.00  0.00     0.059 A 
HETATM   15  C   UNL     1      37.856 -12.577  -3.540  1.00  0.00    -0.032 A 
HETATM   16  C   UNL     1      38.368 -11.210  -3.176  1.00  0.00     0.050 C 
HETATM   17  C   UNL     1      36.672 -12.672  -4.286  1.00  0.00     0.028 A 
HETATM   18  C   UNL     1      36.185 -13.924  -4.623  1.00  0.00     0.117 A 
HETATM   19  N   UNL     1      36.788 -15.074  -4.271  1.00  0.00    -0.271 NA
HETATM   20  C   UNL     1      37.938 -14.967  -3.556  1.00  0.00     0.146 A 
ENDBRANCH  10  14
ENDBRANCH   7   8
ENDBRANCH   1   7
BRANCH   3  21
HETATM   21  N   UNL     1      42.152 -18.189   1.776  1.00  0.00    -0.323 N 
HETATM   22  C   UNL     1      43.290 -18.380   2.541  1.00  0.00     0.256 C 
HETATM   23  O   UNL     1      43.961 -17.513   3.089  1.00  0.00    -0.267 OA
HETATM   24  H   UNL     1      41.783 -18.993   1.286  1.00  0.00     0.169 HD
BRANCH  22  25
HETATM   25  C   UNL     1      43.741 -19.793   2.667  1.00  0.00     0.035 A 
HETATM   26  C   UNL     1      43.484 -20.743   1.676  1.00  0.00     0.036 A 
HETATM   27  C   UNL     1      43.933 -22.034   1.890  1.00  0.00     0.117 A 
HETATM   28  N   UNL     1      44.599 -22.424   2.998  1.00  0.00    -0.273 NA
HETATM   29  C   UNL     1      44.813 -21.489   3.949  1.00  0.00     0.117 A 
HETATM   30  C   UNL     1      44.404 -20.174   3.833  1.00  0.00     0.036 A 
ENDBRANCH  22  25
ENDBRANCH   3  21
TORSDOF 5
ENDMDL
MODEL 6
REMARK VINA RESULT:      -8.3      2.935      7.430
REMARK  5 active torsions:
REMARK  status: ('A' for Active; 'I' for Inactive)
REMARK    1  A    between atoms: C_3  and  N_4 
REMARK       I    between atoms: N_4  and  C_5 
REMARK       I    between atoms: C_5  and  N_6 
REMARK    2  A    between atoms: N_6  and  C_7 
REMARK    3  A    between atoms: C_7  and  C_8 
REMARK    4  A    between atoms: C_10  and  N_11 
REMARK       I    between atoms: N_11  and  C_12 
REMARK    5  A    between atoms: C_12  and  C_13 
ROOT
HETATM    1  C   UNL     1      41.987 -14.479   4.655  1.00  0.00    -0.038 A 
HETATM    2  C   UNL     1      42.180 -15.791   4.187  1.00  0.00     0.038 A 
HETATM    3  C   UNL     1      43.081 -16.655   4.814  1.00  0.00     0.035 A 
HETATM    4  C   UNL     1      43.804 -16.193   5.919  1.00  0.00     0.029 A 
HETATM    5  C   UNL     1      43.631 -14.889   6.388  1.00  0.00     0.003 A 
HETATM    6  C   UNL     1      42.731 -14.034   5.757  1.00  0.00     0.009 A 
ENDROOT
BRANCH   1   7
HETATM    7  C   UNL     1      41.023 -13.558   3.951  1.00  0.00     0.163 C 
BRANCH   7   8
HETATM    8  N   UNL     1      41.695 -12.759   2.945  1.00  0.00    -0.339 N 
HETATM    9  C   UNL     1      41.696 -12.848   1.588  1.00  0.00     0.321 C 
HETATM   10  N   UNL     1      40.759 -13.672   1.036  1.00  0.00    -0.307 N 
HETATM   11  O   UNL     1      42.531 -12.190   0.975  1.00  0.00    -0.247 OA
HETATM   12  H   UNL     1      40.005 -13.946   1.640  1.00  0.00     0.170 HD
HETATM   13  H   UNL     1      42.421 -12.138   3.282  1.00  0.00     0.164 HD
BRANCH  10  14
HETATM   14  C   UNL     1      40.625 -14.027  -0.328  1.00  0.00     0.059 A 
HETATM   15  C   UNL     1      41.079 -15.289  -0.758  1.00  0.00    -0.032 A 
HETATM   16  C   UNL     1      41.701 -16.289   0.178  1.00  0.00     0.050 C 
HETATM   17  C   UNL     1      40.943 -15.634  -2.111  1.00  0.00     0.028 A 
HETATM   18  C   UNL     1      40.378 -14.722  -2.985  1.00  0.00     0.117 A 
HETATM   19  N   UNL     1      39.947 -13.503  -2.612  1.00  0.00    -0.271 NA
HETATM   20  C   UNL     1      40.078 -13.186  -1.298  1.00  0.00     0.146 A 
ENDBRANCH  10  14
ENDBRANCH   7   8
ENDBRANCH   1   7
BRANCH   3  21
HETATM   21  N   UNL     1      43.323 -17.982   4.395  1.00  0.00    -0.323 N 
HETATM   22  C   UNL     1      43.922 -18.394   3.218  1.00  0.00     0.256 C 
HETATM   23  O   UNL     1      44.292 -17.680   2.293  1.00  0.00    -0.267 OA
HETATM   24  H   UNL     1      42.959 -18.701   5.007  1.00  0.00     0.169 HD
BRANCH  22  25
HETATM   25  C   UNL     1      44.091 -19.866   3.073  1.00  0.00     0.035 A 
HETATM   26  C   UNL     1      44.677 -20.645   4.072  1.00  0.00     0.036 A 
HETATM   27  C   UNL     1      44.802 -22.004   3.839  1.00  0.00     0.117 A 
HETATM   28  N   UNL     1      44.394 -22.612   2.705  1.00  0.00    -0.273 NA
HETATM   29  C   UNL     1      43.853 -21.829   1.747  1.00  0.00     0.117 A 
HETATM   30  C   UNL     1      43.684 -20.464   1.880  1.00  0.00     0.036 A 
ENDBRANCH  22  25
ENDBRANCH   3  21
TORSDOF 5
ENDMDL
MODEL 7
REMARK VINA RESULT:      -8.0      1.502      8.840
REMARK  5 active torsions:
REMARK  status: ('A' for Active; 'I' for Inactive)
REMARK    1  A    between atoms: C_3  and  N_4 
REMARK       I    between atoms: N_4  and  C_5 
REMARK       I    between atoms: C_5  and  N_6 
REMARK    2  A    between atoms: N_6  and  C_7 
REMARK    3  A    between atoms: C_7  and  C_8 
REMARK    4  A    between atoms: C_10  and  N_11 
REMARK       I    between atoms: N_11  and  C_12 
REMARK    5  A    between atoms: C_12  and  C_13 
ROOT
HETATM    1  C   UNL     1      42.064 -14.444   4.290  1.00  0.00    -0.038 A 
HETATM    2  C   UNL     1      42.635 -15.728   4.228  1.00  0.00     0.038 A 
HETATM    3  C   UNL     1      42.026 -16.754   3.503  1.00  0.00     0.035 A 
HETATM    4  C   UNL     1      40.822 -16.491   2.840  1.00  0.00     0.029 A 
HETATM    5  C   UNL     1      40.237 -15.225   2.902  1.00  0.00     0.003 A 
HETATM    6  C   UNL     1      40.852 -14.207   3.627  1.00  0.00     0.009 A 
ENDROOT
BRANCH   1   7
HETATM    7  C   UNL     1      42.731 -13.356   5.093  1.00  0.00     0.163 C 
BRANCH   7   8
HETATM    8  N   UNL     1      43.727 -13.901   5.994  1.00  0.00    -0.339 N 
HETATM    9  C   UNL     1      44.178 -13.461   7.199  1.00  0.00     0.321 C 
HETATM   10  N   UNL     1      43.451 -12.469   7.791  1.00  0.00    -0.307 N 
HETATM   11  O   UNL     1      45.192 -13.982   7.652  1.00  0.00    -0.247 OA
HETATM   12  H   UNL     1      42.530 -12.320   7.421  1.00  0.00     0.170 HD
HETATM   13  H   UNL     1      44.321 -14.630   5.614  1.00  0.00     0.164 HD
BRANCH  10  14
HETATM   14  C   UNL     1      43.768 -11.762   8.976  1.00  0.00     0.059 A 
HETATM   15  C   UNL     1      42.848 -10.823   9.482  1.00  0.00    -0.032 A 
HETATM   16  C   UNL     1      41.529 -10.539   8.817  1.00  0.00     0.050 C 
HETATM   17  C   UNL     1      43.169 -10.127  10.657  1.00  0.00     0.028 A 
HETATM   18  C   UNL     1      44.382 -10.372  11.277  1.00  0.00     0.117 A 
HETATM   19  N   UNL     1      45.288 -11.252  10.813  1.00  0.00    -0.271 NA
HETATM   20  C   UNL     1      44.962 -11.925   9.680  1.00  0.00     0.146 A 
ENDBRANCH  10  14
ENDBRANCH   7   8
ENDBRANCH   1   7
BRANCH   3  21
HETATM   21  N   UNL     1      42.544 -18.063   3.401  1.00  0.00    -0.323 N 
HETATM   22  C   UNL     1      43.622 -18.483   2.642  1.00  0.00     0.256 C 
HETATM   23  O   UNL     1      44.283 -17.803   1.866  1.00  0.00    -0.267 OA
HETATM   24  H   UNL     1      42.023 -18.774   3.899  1.00  0.00     0.169 HD
BRANCH  22  25
HETATM   25  C   UNL     1      43.972 -19.924   2.778  1.00  0.00     0.035 A 
HETATM   26  C   UNL     1      43.744 -20.841   1.750  1.00  0.00     0.036 A 
HETATM   27  C   UNL     1      44.092 -22.161   1.975  1.00  0.00     0.117 A 
HETATM   28  N   UNL     1      44.634 -22.608   3.128  1.00  0.00    -0.273 NA
HETATM   29  C   UNL     1      44.821 -21.703   4.113  1.00  0.00     0.117 A 
HETATM   30  C   UNL     1      44.506 -20.363   3.989  1.00  0.00     0.036 A 
ENDBRANCH  22  25
ENDBRANCH   3  21
TORSDOF 5
ENDMDL
MODEL 8
REMARK VINA RESULT:      -8.0      3.096      5.880
REMARK  5 active torsions:
REMARK  status: ('A' for Active; 'I' for Inactive)
REMARK    1  A    between atoms: C_3  and  N_4 
REMARK       I    between atoms: N_4  and  C_5 
REMARK       I    between atoms: C_5  and  N_6 
REMARK    2  A    between atoms: N_6  and  C_7 
REMARK    3  A    between atoms: C_7  and  C_8 
REMARK    4  A    between atoms: C_10  and  N_11 
REMARK       I    between atoms: N_11  and  C_12 
REMARK    5  A    between atoms: C_12  and  C_13 
ROOT
HETATM    1  C   UNL     1      45.155 -13.299   7.754  1.00  0.00    -0.038 A 
HETATM    2  C   UNL     1      44.398 -12.648   8.745  1.00  0.00     0.038 A 
HETATM    3  C   UNL     1      44.902 -11.536   9.423  1.00  0.00     0.035 A 
HETATM    4  C   UNL     1      46.187 -11.078   9.109  1.00  0.00     0.029 A 
HETATM    5  C   UNL     1      46.954 -11.721   8.136  1.00  0.00     0.003 A 
HETATM    6  C   UNL     1      46.443 -12.829   7.465  1.00  0.00     0.009 A 
ENDROOT
BRANCH   1   7
HETATM    7  C   UNL     1      44.597 -14.509   7.048  1.00  0.00     0.163 C 
BRANCH   7   8
HETATM    8  N   UNL     1      43.239 -14.277   6.597  1.00  0.00    -0.339 N 
HETATM    9  C   UNL     1      42.594 -14.668   5.465  1.00  0.00     0.321 C 
HETATM   10  N   UNL     1      43.225 -15.612   4.707  1.00  0.00    -0.307 N 
HETATM   11  O   UNL     1      41.512 -14.147   5.217  1.00  0.00    -0.247 OA
HETATM   12  H   UNL     1      43.971 -16.110   5.157  1.00  0.00     0.170 HD
HETATM   13  H   UNL     1      42.716 -13.571   7.102  1.00  0.00     0.164 HD
BRANCH  10  14
HETATM   14  C   UNL     1      42.828 -16.099   3.438  1.00  0.00     0.059 A 
HETATM   15  C   UNL     1      42.560 -17.473   3.282  1.00  0.00    -0.032 A 
HETATM   16  C   UNL     1      42.672 -18.455   4.417  1.00  0.00     0.050 C 
HETATM   17  C   UNL     1      42.169 -17.948   2.022  1.00  0.00     0.028 A 
HETATM   18  C   UNL     1      42.068 -17.058   0.967  1.00  0.00     0.117 A 
HETATM   19  N   UNL     1      42.329 -15.743   1.077  1.00  0.00    -0.271 NA
HETATM   20  C   UNL     1      42.700 -15.295   2.305  1.00  0.00     0.146 A 
ENDBRANCH  10  14
ENDBRANCH   7   8
ENDBRANCH   1   7
BRANCH   3  21
HETATM   21  N   UNL     1      44.197 -10.838  10.428  1.00  0.00    -0.323 N 
HETATM   22  C   UNL     1      43.786 -11.324  11.656  1.00  0.00     0.256 C 
HETATM   23  O   UNL     1      43.902 -12.473  12.068  1.00  0.00    -0.267 OA
HETATM   24  H   UNL     1      43.917  -9.897  10.184  1.00  0.00     0.169 HD
BRANCH  22  25
HETATM   25  C   UNL     1      43.104 -10.335  12.535  1.00  0.00     0.035 A 
HETATM   26  C   UNL     1      42.536 -10.699  13.757  1.00  0.00     0.036 A 
HETATM   27  C   UNL     1      41.913  -9.709  14.498  1.00  0.00     0.117 A 
HETATM   28  N   UNL     1      41.824  -8.421  14.105  1.00  0.00    -0.273 NA
HETATM   29  C   UNL     1      42.362  -8.104  12.908  1.00  0.00     0.117 A 
HETATM   30  C   UNL     1      43.004  -9.016  12.092  1.00  0.00     0.036 A 
ENDBRANCH  22  25
ENDBRANCH   3  21
TORSDOF 5
ENDMDL
MODEL 9
REMARK VINA RESULT:      -7.9      3.230      6.853
REMARK  5 active torsions:
REMARK  status: ('A' for Active; 'I' for Inactive)
REMARK    1  A    between atoms: C_3  and  N_4 
REMARK       I    between atoms: N_4  and  C_5 
REMARK       I    between atoms: C_5  and  N_6 
REMARK    2  A    between atoms: N_6  and  C_7 
REMARK    3  A    between atoms: C_7  and  C_8 
REMARK    4  A    between atoms: C_10  and  N_11 
REMARK       I    between atoms: N_11  and  C_12 
REMARK    5  A    between atoms: C_12  and  C_13 
ROOT
HETATM    1  C   UNL     1      41.784 -13.628   4.975  1.00  0.00    -0.038 A 
HETATM    2  C   UNL     1      41.890 -13.947   3.608  1.00  0.00     0.038 A 
HETATM    3  C   UNL     1      40.879 -13.602   2.708  1.00  0.00     0.035 A 
HETATM    4  C   UNL     1      39.744 -12.939   3.187  1.00  0.00     0.029 A 
HETATM    5  C   UNL     1      39.620 -12.628   4.542  1.00  0.00     0.003 A 
HETATM    6  C   UNL     1      40.633 -12.974   5.433  1.00  0.00     0.009 A 
ENDROOT
BRANCH   1   7
HETATM    7  C   UNL     1      42.879 -14.026   5.931  1.00  0.00     0.163 C 
BRANCH   7   8
HETATM    8  N   UNL     1      42.547 -15.248   6.636  1.00  0.00    -0.339 N 
HETATM    9  C   UNL     1      42.778 -16.551   6.322  1.00  0.00     0.321 C 
HETATM   10  N   UNL     1      43.646 -16.781   5.295  1.00  0.00    -0.307 N 
HETATM   11  O   UNL     1      42.192 -17.407   6.978  1.00  0.00    -0.247 OA
HETATM   12  H   UNL     1      44.221 -16.003   5.024  1.00  0.00     0.170 HD
HETATM   13  H   UNL     1      41.888 -15.157   7.400  1.00  0.00     0.164 HD
BRANCH  10  14
HETATM   14  C   UNL     1      43.965 -18.026   4.701  1.00  0.00     0.059 A 
HETATM   15  C   UNL     1      43.446 -18.333   3.428  1.00  0.00    -0.032 A 
HETATM   16  C   UNL     1      42.566 -17.385   2.661  1.00  0.00     0.050 C 
HETATM   17  C   UNL     1      43.765 -19.569   2.847  1.00  0.00     0.028 A 
HETATM   18  C   UNL     1      44.569 -20.455   3.544  1.00  0.00     0.117 A 
HETATM   19  N   UNL     1      45.070 -20.200   4.767  1.00  0.00    -0.271 NA
HETATM   20  C   UNL     1      44.759 -18.996   5.314  1.00  0.00     0.146 A 
ENDBRANCH  10  14
ENDBRANCH   7   8
ENDBRANCH   1   7
BRANCH   3  21
HETATM   21  N   UNL     1      40.921 -13.893   1.327  1.00  0.00    -0.323 N 
HETATM   22  C   UNL     1      41.689 -13.268   0.360  1.00  0.00     0.256 C 
HETATM   23  O   UNL     1      42.425 -12.302   0.518  1.00  0.00    -0.267 OA
HETATM   24  H   UNL     1      40.268 -14.600   1.015  1.00  0.00     0.169 HD
BRANCH  22  25
HETATM   25  C   UNL     1      41.562 -13.830  -1.013  1.00  0.00     0.035 A 
HETATM   26  C   UNL     1      41.923 -13.100  -2.147  1.00  0.00     0.036 A 
HETATM   27  C   UNL     1      41.757 -13.704  -3.381  1.00  0.00     0.117 A 
HETATM   28  N   UNL     1      41.266 -14.950  -3.547  1.00  0.00    -0.273 NA
HETATM   29  C   UNL     1      40.904 -15.623  -2.434  1.00  0.00     0.117 A 
HETATM   30  C   UNL     1      41.028 -15.110  -1.157  1.00  0.00     0.036 A 
ENDBRANCH  22  25
ENDBRANCH   3  21
TORSDOF 5
ENDMDL
MODEL 10
REMARK VINA RESULT:      -7.6      4.035      8.479
REMARK  5 active torsions:
REMARK  status: ('A' for Active; 'I' for Inactive)
REMARK    1  A    between atoms: C_3  and  N_4 
REMARK       I    between atoms: N_4  and  C_5 
REMARK       I    between atoms: C_5  and  N_6 
REMARK    2  A    between atoms: N_6  and  C_7 
REMARK    3  A    between atoms: C_7  and  C_8 
REMARK    4  A    between atoms: C_10  and  N_11 
REMARK       I    between atoms: N_11  and  C_12 
REMARK    5  A    between atoms: C_12  and  C_13 
ROOT
HETATM    1  C   UNL     1      39.820 -15.155   2.444  1.00  0.00    -0.038 A 
HETATM    2  C   UNL     1      40.495 -16.379   2.282  1.00  0.00     0.038 A 
HETATM    3  C   UNL     1      41.239 -16.936   3.325  1.00  0.00     0.035 A 
HETATM    4  C   UNL     1      41.315 -16.250   4.542  1.00  0.00     0.029 A 
HETATM    5  C   UNL     1      40.660 -15.029   4.713  1.00  0.00     0.003 A 
HETATM    6  C   UNL     1      39.920 -14.482   3.668  1.00  0.00     0.009 A 
ENDROOT
BRANCH   1   7
HETATM    7  C   UNL     1      39.038 -14.565   1.298  1.00  0.00     0.163 C 
BRANCH   7   8
HETATM    8  N   UNL     1      39.680 -14.833   0.027  1.00  0.00    -0.339 N 
HETATM    9  C   UNL     1      40.371 -14.018  -0.814  1.00  0.00     0.321 C 
HETATM   10  N   UNL     1      40.724 -12.797  -0.318  1.00  0.00    -0.307 N 
HETATM   11  O   UNL     1      40.618 -14.439  -1.940  1.00  0.00    -0.247 OA
HETATM   12  H   UNL     1      40.666 -12.695   0.680  1.00  0.00     0.170 HD
HETATM   13  H   UNL     1      39.447 -15.716  -0.413  1.00  0.00     0.164 HD
BRANCH  10  14
HETATM   14  C   UNL     1      41.338 -11.730  -1.017  1.00  0.00     0.059 A 
HETATM   15  C   UNL     1      40.529 -10.739  -1.607  1.00  0.00    -0.032 A 
HETATM   16  C   UNL     1      39.028 -10.761  -1.520  1.00  0.00     0.050 C 
HETATM   17  C   UNL     1      41.145  -9.686  -2.299  1.00  0.00     0.028 A 
HETATM   18  C   UNL     1      42.526  -9.656  -2.393  1.00  0.00     0.117 A 
HETATM   19  N   UNL     1      43.327 -10.593  -1.854  1.00  0.00    -0.271 NA
HETATM   20  C   UNL     1      42.718 -11.603  -1.180  1.00  0.00     0.146 A 
ENDBRANCH  10  14
ENDBRANCH   7   8
ENDBRANCH   1   7
BRANCH   3  21
HETATM   21  N   UNL     1      41.940 -18.158   3.228  1.00  0.00    -0.323 N 
HETATM   22  C   UNL     1      43.264 -18.340   2.870  1.00  0.00     0.256 C 
HETATM   23  O   UNL     1      44.052 -17.474   2.506  1.00  0.00    -0.267 OA
HETATM   24  H   UNL     1      41.384 -18.988   3.383  1.00  0.00     0.169 HD
BRANCH  22  25
HETATM   25  C   UNL     1      43.745 -19.748   2.907  1.00  0.00     0.035 A 
HETATM   26  C   UNL     1      44.462 -20.256   3.992  1.00  0.00     0.036 A 
HETATM   27  C   UNL     1      44.876 -21.575   3.929  1.00  0.00     0.117 A 
HETATM   28  N   UNL     1      44.629 -22.390   2.882  1.00  0.00    -0.273 NA
HETATM   29  C   UNL     1      43.954 -21.865   1.838  1.00  0.00     0.117 A 
HETATM   30  C   UNL     1      43.498 -20.561   1.801  1.00  0.00     0.036 A 
ENDBRANCH  22  25
ENDBRANCH   3  21
TORSDOF 5
ENDMDL
