MODEL 1
REMARK VINA RESULT:      -9.1      0.000      0.000
REMARK  4 active torsions:
REMARK  status: ('A' for Active; 'I' for Inactive)
REMARK    1  A    between atoms: C_3  and  N_4 
REMARK    2  A    between atoms: C_11  and  C_12 
REMARK       I    between atoms: C_12  and  N_13 
REMARK    3  A    between atoms: N_13  and  C_14 
REMARK    4  A    between atoms: C_19  and  O_20 
ROOT
HETATM    1  C   UNL     1      41.015 -13.080   5.701  1.00  0.00     0.036 A 
HETATM    2  C   UNL     1      42.089 -13.622   4.997  1.00  0.00     0.049 A 
HETATM    3  C   UNL     1      41.880 -14.358   3.813  1.00  0.00     0.063 A 
HETATM    4  C   UNL     1      40.578 -14.568   3.320  1.00  0.00     0.075 A 
HETATM    5  N   UNL     1      40.211 -15.295   2.167  1.00  0.00    -0.226 NA
HETATM    6  C   UNL     1      40.805 -16.409   1.895  1.00  0.00     0.161 C 
HETATM    7  C   UNL     1      41.941 -17.045   2.670  1.00  0.00     0.164 C 
HETATM    8  N   UNL     1      43.044 -16.104   2.542  1.00  0.00    -0.336 N 
HETATM    9  C   UNL     1      43.098 -14.859   3.123  1.00  0.00     0.257 C 
HETATM   10  O   UNL     1      44.109 -14.162   3.096  1.00  0.00    -0.267 OA
HETATM   11  C   UNL     1      42.499 -18.353   2.113  1.00  0.00     0.035 C 
HETATM   12  C   UNL     1      43.577 -17.898   1.132  1.00  0.00     0.022 C 
HETATM   13  C   UNL     1      44.160 -16.668   1.812  1.00  0.00     0.127 C 
HETATM   14  C   UNL     1      39.516 -13.976   4.014  1.00  0.00     0.035 A 
HETATM   15  C   UNL     1      39.727 -13.239   5.183  1.00  0.00     0.032 A 
ENDROOT
BRANCH   1  16
HETATM   16  N   UNL     1      41.128 -12.390   6.925  1.00  0.00    -0.323 N 
HETATM   17  C   UNL     1      41.475 -11.062   7.112  1.00  0.00     0.256 C 
HETATM   18  O   UNL     1      41.658 -10.234   6.228  1.00  0.00    -0.267 OA
HETATM   19  H   UNL     1      40.964 -12.949   7.750  1.00  0.00     0.169 HD
BRANCH  17  20
HETATM   20  C   UNL     1      41.651 -10.628   8.534  1.00  0.00     0.033 A 
HETATM   21  C   UNL     1      40.621 -10.062   9.286  1.00  0.00     0.019 A 
HETATM   22  C   UNL     1      40.840  -9.704  10.620  1.00  0.00     0.031 A 
HETATM   23  C   UNL     1      42.083  -9.928  11.244  1.00  0.00     0.044 A 
HETATM   24  C   UNL     1      43.138 -10.490  10.493  1.00  0.00    -0.034 A 
HETATM   25  C   UNL     1      44.537 -10.712  11.001  1.00  0.00     0.050 C 
HETATM   26  C   UNL     1      42.893 -10.848   9.149  1.00  0.00     0.026 A 
BRANCH  23  27
HETATM   27  N   UNL     1      42.194  -9.586  12.627  1.00  0.00    -0.332 N 
HETATM   28  C   UNL     1      42.215 -10.443  13.709  1.00  0.00     0.096 A 
HETATM   29  C   UNL     1      42.307  -9.711  14.873  1.00  0.00     0.019 A 
HETATM   30  C   UNL     1      42.323  -8.351  14.510  1.00  0.00     0.019 A 
HETATM   31  C   UNL     1      42.234  -8.298  13.137  1.00  0.00     0.096 A 
ENDBRANCH  23  27
ENDBRANCH  17  20
ENDBRANCH   1  16
BRANCH   6  32
HETATM   32  O   UNL     1      40.372 -17.066   0.812  1.00  0.00    -0.346 OA
HETATM   33  H   UNL     1      40.755 -17.959   0.848  1.00  0.00     0.219 HD
ENDBRANCH   6  32
TORSDOF 4
ENDMDL
MODEL 2
REMARK VINA RESULT:      -8.8      2.822     10.659
REMARK  4 active torsions:
REMARK  status: ('A' for Active; 'I' for Inactive)
REMARK    1  A    between atoms: C_3  and  N_4 
REMARK    2  A    between atoms: C_11  and  C_12 
REMARK       I    between atoms: C_12  and  N_13 
REMARK    3  A    between atoms: N_13  and  C_14 
REMARK    4  A    between atoms: C_19  and  O_20 
ROOT
HETATM    1  C   UNL     1      43.966 -13.454   7.218  1.00  0.00     0.036 A 
HETATM    2  C   UNL     1      42.967 -12.482   7.202  1.00  0.00     0.049 A 
HETATM    3  C   UNL     1      42.981 -11.416   8.125  1.00  0.00     0.063 A 
HETATM    4  C   UNL     1      44.002 -11.317   9.090  1.00  0.00     0.075 A 
HETATM    5  N   UNL     1      44.139 -10.326  10.085  1.00  0.00    -0.226 NA
HETATM    6  C   UNL     1      43.096  -9.913  10.726  1.00  0.00     0.161 C 
HETATM    7  C   UNL     1      41.661 -10.342  10.499  1.00  0.00     0.164 C 
HETATM    8  N   UNL     1      41.354  -9.893   9.149  1.00  0.00    -0.336 N 
HETATM    9  C   UNL     1      41.889 -10.416   7.995  1.00  0.00     0.257 C 
HETATM   10  O   UNL     1      41.493 -10.093   6.879  1.00  0.00    -0.267 OA
HETATM   11  C   UNL     1      40.601  -9.669  11.368  1.00  0.00     0.035 C 
HETATM   12  C   UNL     1      40.230  -8.415  10.579  1.00  0.00     0.022 C 
HETATM   13  C   UNL     1      40.315  -8.883   9.134  1.00  0.00     0.127 C 
HETATM   14  C   UNL     1      45.022 -12.276   9.059  1.00  0.00     0.035 A 
HETATM   15  C   UNL     1      45.010 -13.326   8.136  1.00  0.00     0.032 A 
ENDROOT
BRANCH   1  16
HETATM   16  N   UNL     1      43.993 -14.586   6.377  1.00  0.00    -0.323 N 
HETATM   17  C   UNL     1      42.925 -15.159   5.706  1.00  0.00     0.256 C 
HETATM   18  O   UNL     1      41.782 -14.720   5.662  1.00  0.00    -0.267 OA
HETATM   19  H   UNL     1      44.893 -15.035   6.289  1.00  0.00     0.169 HD
BRANCH  17  20
HETATM   20  C   UNL     1      43.218 -16.441   4.989  1.00  0.00     0.033 A 
HETATM   21  C   UNL     1      43.243 -17.679   5.632  1.00  0.00     0.019 A 
HETATM   22  C   UNL     1      43.495 -18.845   4.902  1.00  0.00     0.031 A 
HETATM   23  C   UNL     1      43.700 -18.806   3.509  1.00  0.00     0.044 A 
HETATM   24  C   UNL     1      43.689 -17.560   2.846  1.00  0.00    -0.034 A 
HETATM   25  C   UNL     1      43.970 -17.358   1.382  1.00  0.00     0.050 C 
HETATM   26  C   UNL     1      43.429 -16.396   3.603  1.00  0.00     0.026 A 
BRANCH  23  27
HETATM   27  N   UNL     1      43.889 -20.055   2.838  1.00  0.00    -0.332 N 
HETATM   28  C   UNL     1      43.156 -20.566   1.787  1.00  0.00     0.096 A 
HETATM   29  C   UNL     1      43.644 -21.810   1.449  1.00  0.00     0.019 A 
HETATM   30  C   UNL     1      44.703 -22.096   2.331  1.00  0.00     0.019 A 
HETATM   31  C   UNL     1      44.823 -21.019   3.182  1.00  0.00     0.096 A 
ENDBRANCH  23  27
ENDBRANCH  17  20
ENDBRANCH   1  16
BRANCH   6  32
HETATM   32  O   UNL     1      43.309  -9.007  11.689  1.00  0.00    -0.346 OA
HETATM   33  H   UNL     1      42.695  -8.270  11.528  1.00  0.00     0.219 HD
ENDBRANCH   6  32
TORSDOF 4
ENDMDL
MODEL 3
REMARK VINA RESULT:      -8.8      3.341     10.165
REMARK  4 active torsions:
REMARK  status: ('A' for Active; 'I' for Inactive)
REMARK    1  A    between atoms: C_3  and  N_4 
REMARK    2  A    between atoms: C_11  and  C_12 
REMARK       I    between atoms: C_12  and  N_13 
REMARK    3  A    between atoms: N_13  and  C_14 
REMARK    4  A    between atoms: C_19  and  O_20 
ROOT
HETATM    1  C   UNL     1      40.282 -13.333   5.185  1.00  0.00     0.036 A 
HETATM    2  C   UNL     1      40.128 -12.803   6.466  1.00  0.00     0.049 A 
HETATM    3  C   UNL     1      39.537 -11.537   6.657  1.00  0.00     0.063 A 
HETATM    4  C   UNL     1      39.098 -10.777   5.556  1.00  0.00     0.075 A 
HETATM    5  N   UNL     1      38.509  -9.495   5.588  1.00  0.00    -0.226 NA
HETATM    6  C   UNL     1      38.973  -8.596   6.391  1.00  0.00     0.161 C 
HETATM    7  C   UNL     1      40.096  -8.767   7.393  1.00  0.00     0.164 C 
HETATM    8  N   UNL     1      39.595  -9.753   8.340  1.00  0.00    -0.336 N 
HETATM    9  C   UNL     1      39.389 -11.085   8.066  1.00  0.00     0.257 C 
HETATM   10  O   UNL     1      39.096 -11.899   8.936  1.00  0.00    -0.267 OA
HETATM   11  C   UNL     1      40.429  -7.553   8.259  1.00  0.00     0.035 C 
HETATM   12  C   UNL     1      39.493  -7.696   9.457  1.00  0.00     0.022 C 
HETATM   13  C   UNL     1      39.437  -9.201   9.670  1.00  0.00     0.127 C 
HETATM   14  C   UNL     1      39.217 -11.347   4.283  1.00  0.00     0.035 A 
HETATM   15  C   UNL     1      39.795 -12.606   4.097  1.00  0.00     0.032 A 
ENDROOT
BRANCH   1  16
HETATM   16  N   UNL     1      40.920 -14.557   4.899  1.00  0.00    -0.323 N 
HETATM   17  C   UNL     1      42.255 -14.874   5.092  1.00  0.00     0.256 C 
HETATM   18  O   UNL     1      43.094 -14.162   5.631  1.00  0.00    -0.267 OA
HETATM   19  H   UNL     1      40.331 -15.261   4.480  1.00  0.00     0.169 HD
BRANCH  17  20
HETATM   20  C   UNL     1      42.690 -16.209   4.570  1.00  0.00     0.033 A 
HETATM   21  C   UNL     1      42.509 -17.395   5.282  1.00  0.00     0.019 A 
HETATM   22  C   UNL     1      42.911 -18.615   4.728  1.00  0.00     0.031 A 
HETATM   23  C   UNL     1      43.477 -18.683   3.440  1.00  0.00     0.044 A 
HETATM   24  C   UNL     1      43.676 -17.490   2.712  1.00  0.00    -0.034 A 
HETATM   25  C   UNL     1      44.339 -17.401   1.364  1.00  0.00     0.050 C 
HETATM   26  C   UNL     1      43.259 -16.270   3.289  1.00  0.00     0.026 A 
BRANCH  23  27
HETATM   27  N   UNL     1      43.800 -19.980   2.933  1.00  0.00    -0.332 N 
HETATM   28  C   UNL     1      43.228 -20.632   1.859  1.00  0.00     0.096 A 
HETATM   29  C   UNL     1      43.805 -21.876   1.717  1.00  0.00     0.019 A 
HETATM   30  C   UNL     1      44.755 -22.015   2.747  1.00  0.00     0.019 A 
HETATM   31  C   UNL     1      44.721 -20.854   3.488  1.00  0.00     0.096 A 
ENDBRANCH  23  27
ENDBRANCH  17  20
ENDBRANCH   1  16
BRANCH   6  32
HETATM   32  O   UNL     1      38.396  -7.389   6.331  1.00  0.00    -0.346 OA
HETATM   33  H   UNL     1      38.960  -6.778   6.836  1.00  0.00     0.219 HD
ENDBRANCH   6  32
TORSDOF 4
ENDMDL
MODEL 4
REMARK VINA RESULT:      -8.3      7.485     10.608
REMARK  4 active torsions:
REMARK  status: ('A' for Active; 'I' for Inactive)
REMARK    1  A    between atoms: C_3  and  N_4 
REMARK    2  A    between atoms: C_11  and  C_12 
REMARK       I    between atoms: C_12  and  N_13 
REMARK    3  A    between atoms: N_13  and  C_14 
REMARK    4  A    between atoms: C_19  and  O_20 
ROOT
HETATM    1  C   UNL     1      40.025 -14.401  -1.769  1.00  0.00     0.036 A 
HETATM    2  C   UNL     1      38.863 -14.640  -2.503  1.00  0.00     0.049 A 
HETATM    3  C   UNL     1      38.318 -13.643  -3.338  1.00  0.00     0.063 A 
HETATM    4  C   UNL     1      38.932 -12.380  -3.442  1.00  0.00     0.075 A 
HETATM    5  N   UNL     1      38.497 -11.283  -4.216  1.00  0.00    -0.226 NA
HETATM    6  C   UNL     1      37.239 -10.996  -4.271  1.00  0.00     0.161 C 
HETATM    7  C   UNL     1      36.105 -11.759  -3.617  1.00  0.00     0.164 C 
HETATM    8  N   UNL     1      36.121 -13.064  -4.261  1.00  0.00    -0.336 N 
HETATM    9  C   UNL     1      37.099 -14.017  -4.103  1.00  0.00     0.257 C 
HETATM   10  O   UNL     1      36.995 -15.151  -4.561  1.00  0.00    -0.267 OA
HETATM   11  C   UNL     1      34.693 -11.233  -3.871  1.00  0.00     0.035 C 
HETATM   12  C   UNL     1      34.271 -11.939  -5.158  1.00  0.00     0.022 C 
HETATM   13  C   UNL     1      34.913 -13.311  -5.022  1.00  0.00     0.127 C 
HETATM   14  C   UNL     1      40.124 -12.176  -2.735  1.00  0.00     0.035 A 
HETATM   15  C   UNL     1      40.667 -13.169  -1.916  1.00  0.00     0.032 A 
ENDROOT
BRANCH   1  16
HETATM   16  N   UNL     1      40.599 -15.315  -0.862  1.00  0.00    -0.323 N 
HETATM   17  C   UNL     1      40.552 -15.267   0.521  1.00  0.00     0.256 C 
HETATM   18  O   UNL     1      39.922 -14.459   1.194  1.00  0.00    -0.267 OA
HETATM   19  H   UNL     1      41.125 -16.066  -1.284  1.00  0.00     0.169 HD
BRANCH  17  20
HETATM   20  C   UNL     1      41.368 -16.299   1.237  1.00  0.00     0.033 A 
HETATM   21  C   UNL     1      42.443 -16.960   0.642  1.00  0.00     0.019 A 
HETATM   22  C   UNL     1      43.184 -17.893   1.373  1.00  0.00     0.031 A 
HETATM   23  C   UNL     1      42.890 -18.168   2.723  1.00  0.00     0.044 A 
HETATM   24  C   UNL     1      41.799 -17.515   3.335  1.00  0.00    -0.034 A 
HETATM   25  C   UNL     1      41.319 -17.766   4.740  1.00  0.00     0.050 C 
HETATM   26  C   UNL     1      41.066 -16.573   2.579  1.00  0.00     0.026 A 
BRANCH  23  27
HETATM   27  N   UNL     1      43.741 -19.091   3.406  1.00  0.00    -0.332 N 
HETATM   28  C   UNL     1      44.327 -18.938   4.647  1.00  0.00     0.096 A 
HETATM   29  C   UNL     1      45.096 -20.046   4.931  1.00  0.00     0.019 A 
HETATM   30  C   UNL     1      45.006 -20.911   3.824  1.00  0.00     0.019 A 
HETATM   31  C   UNL     1      44.190 -20.300   2.898  1.00  0.00     0.096 A 
ENDBRANCH  23  27
ENDBRANCH  17  20
ENDBRANCH   1  16
BRANCH   6  32
HETATM   32  O   UNL     1      36.905  -9.914  -4.985  1.00  0.00    -0.346 OA
HETATM   33  H   UNL     1      37.734  -9.508  -5.293  1.00  0.00     0.219 HD
ENDBRANCH   6  32
TORSDOF 4
ENDMDL
MODEL 5
REMARK VINA RESULT:      -8.3      7.718     10.296
REMARK  4 active torsions:
REMARK  status: ('A' for Active; 'I' for Inactive)
REMARK    1  A    between atoms: C_3  and  N_4 
REMARK    2  A    between atoms: C_11  and  C_12 
REMARK       I    between atoms: C_12  and  N_13 
REMARK    3  A    between atoms: N_13  and  C_14 
REMARK    4  A    between atoms: C_19  and  O_20 
ROOT
HETATM    1  C   UNL     1      41.181 -14.730  -1.131  1.00  0.00     0.036 A 
HETATM    2  C   UNL     1      41.607 -13.405  -1.045  1.00  0.00     0.049 A 
HETATM    3  C   UNL     1      41.172 -12.445  -1.982  1.00  0.00     0.063 A 
HETATM    4  C   UNL     1      40.305 -12.808  -3.031  1.00  0.00     0.075 A 
HETATM    5  N   UNL     1      39.804 -11.969  -4.049  1.00  0.00    -0.226 NA
HETATM    6  C   UNL     1      40.581 -11.101  -4.606  1.00  0.00     0.161 C 
HETATM    7  C   UNL     1      42.027 -10.818  -4.252  1.00  0.00     0.164 C 
HETATM    8  N   UNL     1      41.978 -10.313  -2.888  1.00  0.00    -0.336 N 
HETATM    9  C   UNL     1      41.657 -11.055  -1.776  1.00  0.00     0.257 C 
HETATM   10  O   UNL     1      41.764 -10.614  -0.635  1.00  0.00    -0.267 OA
HETATM   11  C   UNL     1      42.717  -9.706  -5.038  1.00  0.00     0.035 C 
HETATM   12  C   UNL     1      42.396  -8.445  -4.240  1.00  0.00     0.022 C 
HETATM   13  C   UNL     1      42.421  -8.936  -2.800  1.00  0.00     0.127 C 
HETATM   14  C   UNL     1      39.852 -14.132  -3.072  1.00  0.00     0.035 A 
HETATM   15  C   UNL     1      40.276 -15.079  -2.136  1.00  0.00     0.032 A 
ENDROOT
BRANCH   1  16
HETATM   16  N   UNL     1      41.617 -15.766  -0.279  1.00  0.00    -0.323 N 
HETATM   17  C   UNL     1      42.165 -15.637   0.987  1.00  0.00     0.256 C 
HETATM   18  O   UNL     1      42.284 -14.594   1.618  1.00  0.00    -0.267 OA
HETATM   19  H   UNL     1      41.542 -16.697  -0.661  1.00  0.00     0.169 HD
BRANCH  17  20
HETATM   20  C   UNL     1      42.666 -16.903   1.611  1.00  0.00     0.033 A 
HETATM   21  C   UNL     1      43.456 -17.825   0.924  1.00  0.00     0.019 A 
HETATM   22  C   UNL     1      43.917 -18.975   1.572  1.00  0.00     0.031 A 
HETATM   23  C   UNL     1      43.626 -19.218   2.929  1.00  0.00     0.044 A 
HETATM   24  C   UNL     1      42.819 -18.300   3.634  1.00  0.00    -0.034 A 
HETATM   25  C   UNL     1      42.361 -18.469   5.058  1.00  0.00     0.050 C 
HETATM   26  C   UNL     1      42.367 -17.143   2.961  1.00  0.00     0.026 A 
BRANCH  23  27
HETATM   27  N   UNL     1      44.192 -20.390   3.522  1.00  0.00    -0.332 N 
HETATM   28  C   UNL     1      44.216 -21.669   3.004  1.00  0.00     0.096 A 
HETATM   29  C   UNL     1      44.831 -22.515   3.901  1.00  0.00     0.019 A 
HETATM   30  C   UNL     1      45.186 -21.746   5.025  1.00  0.00     0.019 A 
HETATM   31  C   UNL     1      44.769 -20.456   4.780  1.00  0.00     0.096 A 
ENDBRANCH  23  27
ENDBRANCH  17  20
ENDBRANCH   1  16
BRANCH   6  32
HETATM   32  O   UNL     1      40.050 -10.374  -5.597  1.00  0.00    -0.346 OA
HETATM   33  H   UNL     1      39.274  -9.916  -5.230  1.00  0.00     0.219 HD
ENDBRANCH   6  32
TORSDOF 4
ENDMDL
MODEL 6
REMARK VINA RESULT:      -8.2      1.904      2.783
REMARK  4 active torsions:
REMARK  status: ('A' for Active; 'I' for Inactive)
REMARK    1  A    between atoms: C_3  and  N_4 
REMARK    2  A    between atoms: C_11  and  C_12 
REMARK       I    between atoms: C_12  and  N_13 
REMARK    3  A    between atoms: N_13  and  C_14 
REMARK    4  A    between atoms: C_19  and  O_20 
ROOT
HETATM    1  C   UNL     1      40.755 -13.610   5.421  1.00  0.00     0.036 A 
HETATM    2  C   UNL     1      40.146 -13.141   4.258  1.00  0.00     0.049 A 
HETATM    3  C   UNL     1      40.052 -13.957   3.112  1.00  0.00     0.063 A 
HETATM    4  C   UNL     1      40.581 -15.262   3.117  1.00  0.00     0.075 A 
HETATM    5  N   UNL     1      40.580 -16.185   2.048  1.00  0.00    -0.226 NA
HETATM    6  C   UNL     1      40.831 -15.777   0.848  1.00  0.00     0.161 C 
HETATM    7  C   UNL     1      41.090 -14.349   0.411  1.00  0.00     0.164 C 
HETATM    8  N   UNL     1      39.844 -13.649   0.688  1.00  0.00    -0.336 N 
HETATM    9  C   UNL     1      39.349 -13.371   1.940  1.00  0.00     0.257 C 
HETATM   10  O   UNL     1      38.365 -12.660   2.117  1.00  0.00    -0.267 OA
HETATM   11  C   UNL     1      41.322 -14.125  -1.082  1.00  0.00     0.035 C 
HETATM   12  C   UNL     1      39.915 -13.918  -1.639  1.00  0.00     0.022 C 
HETATM   13  C   UNL     1      39.212 -13.162  -0.522  1.00  0.00     0.127 C 
HETATM   14  C   UNL     1      41.145 -15.732   4.309  1.00  0.00     0.035 A 
HETATM   15  C   UNL     1      41.228 -14.924   5.446  1.00  0.00     0.032 A 
ENDROOT
BRANCH   1  16
HETATM   16  N   UNL     1      40.950 -12.840   6.586  1.00  0.00    -0.323 N 
HETATM   17  C   UNL     1      41.402 -11.533   6.664  1.00  0.00     0.256 C 
HETATM   18  O   UNL     1      41.627 -10.791   5.715  1.00  0.00    -0.267 OA
HETATM   19  H   UNL     1      40.765 -13.321   7.455  1.00  0.00     0.169 HD
BRANCH  17  20
HETATM   20  C   UNL     1      41.646 -11.009   8.045  1.00  0.00     0.033 A 
HETATM   21  C   UNL     1      40.624 -10.521   8.861  1.00  0.00     0.019 A 
HETATM   22  C   UNL     1      40.911 -10.071  10.153  1.00  0.00     0.031 A 
HETATM   23  C   UNL     1      42.219 -10.123  10.673  1.00  0.00     0.044 A 
HETATM   24  C   UNL     1      43.265 -10.603   9.856  1.00  0.00    -0.034 A 
HETATM   25  C   UNL     1      44.718 -10.642  10.247  1.00  0.00     0.050 C 
HETATM   26  C   UNL     1      42.952 -11.056   8.555  1.00  0.00     0.026 A 
BRANCH  23  27
HETATM   27  N   UNL     1      42.406  -9.698  12.025  1.00  0.00    -0.332 N 
HETATM   28  C   UNL     1      42.640  -8.417  12.481  1.00  0.00     0.096 A 
HETATM   29  C   UNL     1      42.790  -8.438  13.851  1.00  0.00     0.019 A 
HETATM   30  C   UNL     1      42.665  -9.778  14.264  1.00  0.00     0.019 A 
HETATM   31  C   UNL     1      42.450 -10.531  13.131  1.00  0.00     0.096 A 
ENDBRANCH  23  27
ENDBRANCH  17  20
ENDBRANCH   1  16
BRANCH   6  32
HETATM   32  O   UNL     1      40.860 -16.715  -0.106  1.00  0.00    -0.346 OA
HETATM   33  H   UNL     1      41.724 -16.645  -0.548  1.00  0.00     0.219 HD
ENDBRANCH   6  32
TORSDOF 4
ENDMDL
MODEL 7
REMARK VINA RESULT:      -8.1      5.503     11.204
REMARK  4 active torsions:
REMARK  status: ('A' for Active; 'I' for Inactive)
REMARK    1  A    between atoms: C_3  and  N_4 
REMARK    2  A    between atoms: C_11  and  C_12 
REMARK       I    between atoms: C_12  and  N_13 
REMARK    3  A    between atoms: N_13  and  C_14 
REMARK    4  A    between atoms: C_19  and  O_20 
ROOT
HETATM    1  C   UNL     1      41.943 -16.443   1.062  1.00  0.00     0.036 A 
HETATM    2  C   UNL     1      42.189 -15.806   2.278  1.00  0.00     0.049 A 
HETATM    3  C   UNL     1      42.982 -16.421   3.269  1.00  0.00     0.063 A 
HETATM    4  C   UNL     1      43.537 -17.697   3.053  1.00  0.00     0.075 A 
HETATM    5  N   UNL     1      44.330 -18.443   3.951  1.00  0.00    -0.226 NA
HETATM    6  C   UNL     1      44.025 -18.470   5.206  1.00  0.00     0.161 C 
HETATM    7  C   UNL     1      42.894 -17.722   5.881  1.00  0.00     0.164 C 
HETATM    8  N   UNL     1      43.228 -16.316   5.707  1.00  0.00    -0.336 N 
HETATM    9  C   UNL     1      43.210 -15.637   4.511  1.00  0.00     0.257 C 
HETATM   10  O   UNL     1      43.368 -14.422   4.441  1.00  0.00    -0.267 OA
HETATM   11  C   UNL     1      42.771 -17.892   7.394  1.00  0.00     0.035 C 
HETATM   12  C   UNL     1      43.675 -16.798   7.956  1.00  0.00     0.022 C 
HETATM   13  C   UNL     1      43.482 -15.655   6.971  1.00  0.00     0.127 C 
HETATM   14  C   UNL     1      43.319 -18.299   1.808  1.00  0.00     0.035 A 
HETATM   15  C   UNL     1      42.540 -17.684   0.825  1.00  0.00     0.032 A 
ENDROOT
BRANCH   1  16
HETATM   16  N   UNL     1      41.110 -15.932   0.047  1.00  0.00    -0.323 N 
HETATM   17  C   UNL     1      41.241 -14.724  -0.618  1.00  0.00     0.256 C 
HETATM   18  O   UNL     1      42.165 -13.929  -0.493  1.00  0.00    -0.267 OA
HETATM   19  H   UNL     1      40.317 -16.509  -0.189  1.00  0.00     0.169 HD
BRANCH  17  20
HETATM   20  C   UNL     1      40.130 -14.374  -1.560  1.00  0.00     0.033 A 
HETATM   21  C   UNL     1      39.969 -14.989  -2.802  1.00  0.00     0.019 A 
HETATM   22  C   UNL     1      38.893 -14.639  -3.624  1.00  0.00     0.031 A 
HETATM   23  C   UNL     1      37.937 -13.689  -3.215  1.00  0.00     0.044 A 
HETATM   24  C   UNL     1      38.093 -13.051  -1.966  1.00  0.00    -0.034 A 
HETATM   25  C   UNL     1      37.199 -11.963  -1.434  1.00  0.00     0.050 C 
HETATM   26  C   UNL     1      39.184 -13.423  -1.150  1.00  0.00     0.026 A 
BRANCH  23  27
HETATM   27  N   UNL     1      36.839 -13.441  -4.097  1.00  0.00    -0.332 N 
HETATM   28  C   UNL     1      35.921 -14.353  -4.576  1.00  0.00     0.096 A 
HETATM   29  C   UNL     1      35.039 -13.715  -5.421  1.00  0.00     0.019 A 
HETATM   30  C   UNL     1      35.429 -12.364  -5.489  1.00  0.00     0.019 A 
HETATM   31  C   UNL     1      36.541 -12.224  -4.688  1.00  0.00     0.096 A 
ENDBRANCH  23  27
ENDBRANCH  17  20
ENDBRANCH   1  16
BRANCH   6  32
HETATM   32  O   UNL     1      44.794 -19.237   5.989  1.00  0.00    -0.346 OA
HETATM   33  H   UNL     1      44.212 -19.631   6.662  1.00  0.00     0.219 HD
ENDBRANCH   6  32
TORSDOF 4
ENDMDL
MODEL 8
REMARK VINA RESULT:      -7.9      2.716     10.823
REMARK  4 active torsions:
REMARK  status: ('A' for Active; 'I' for Inactive)
REMARK    1  A    between atoms: C_3  and  N_4 
REMARK    2  A    between atoms: C_11  and  C_12 
REMARK       I    between atoms: C_12  and  N_13 
REMARK    3  A    between atoms: N_13  and  C_14 
REMARK    4  A    between atoms: C_19  and  O_20 
ROOT
HETATM    1  C   UNL     1      39.676 -11.091   9.307  1.00  0.00     0.036 A 
HETATM    2  C   UNL     1      40.324 -11.275  10.527  1.00  0.00     0.049 A 
HETATM    3  C   UNL     1      39.978 -10.501  11.653  1.00  0.00     0.063 A 
HETATM    4  C   UNL     1      38.975  -9.517  11.566  1.00  0.00     0.075 A 
HETATM    5  N   UNL     1      38.535  -8.656  12.595  1.00  0.00    -0.226 NA
HETATM    6  C   UNL     1      39.396  -8.118  13.393  1.00  0.00     0.161 C 
HETATM    7  C   UNL     1      40.894  -8.346  13.398  1.00  0.00     0.164 C 
HETATM    8  N   UNL     1      41.050  -9.754  13.730  1.00  0.00    -0.336 N 
HETATM    9  C   UNL     1      40.707 -10.806  12.913  1.00  0.00     0.257 C 
HETATM   10  O   UNL     1      40.985 -11.970  13.185  1.00  0.00    -0.267 OA
HETATM   11  C   UNL     1      41.691  -7.617  14.478  1.00  0.00     0.035 C 
HETATM   12  C   UNL     1      41.657  -8.579  15.664  1.00  0.00     0.022 C 
HETATM   13  C   UNL     1      41.724  -9.945  14.998  1.00  0.00     0.127 C 
HETATM   14  C   UNL     1      38.302  -9.380  10.346  1.00  0.00     0.035 A 
HETATM   15  C   UNL     1      38.641 -10.156   9.234  1.00  0.00     0.032 A 
ENDROOT
BRANCH   1  16
HETATM   16  N   UNL     1      40.003 -11.773   8.117  1.00  0.00    -0.323 N 
HETATM   17  C   UNL     1      40.780 -11.308   7.069  1.00  0.00     0.256 C 
HETATM   18  O   UNL     1      41.391 -10.246   7.040  1.00  0.00    -0.267 OA
HETATM   19  H   UNL     1      39.592 -12.690   8.020  1.00  0.00     0.169 HD
BRANCH  17  20
HETATM   20  C   UNL     1      40.850 -12.196   5.865  1.00  0.00     0.033 A 
HETATM   21  C   UNL     1      39.730 -12.527   5.102  1.00  0.00     0.019 A 
HETATM   22  C   UNL     1      39.865 -13.339   3.972  1.00  0.00     0.031 A 
HETATM   23  C   UNL     1      41.125 -13.817   3.559  1.00  0.00     0.044 A 
HETATM   24  C   UNL     1      42.266 -13.499   4.328  1.00  0.00    -0.034 A 
HETATM   25  C   UNL     1      43.657 -14.003   4.055  1.00  0.00     0.050 C 
HETATM   26  C   UNL     1      42.106 -12.675   5.463  1.00  0.00     0.026 A 
BRANCH  23  27
HETATM   27  N   UNL     1      41.172 -14.589   2.357  1.00  0.00    -0.332 N 
HETATM   28  C   UNL     1      41.429 -14.140   1.077  1.00  0.00     0.096 A 
HETATM   29  C   UNL     1      41.355 -15.198   0.197  1.00  0.00     0.019 A 
HETATM   30  C   UNL     1      41.022 -16.342   0.947  1.00  0.00     0.019 A 
HETATM   31  C   UNL     1      40.897 -15.943   2.259  1.00  0.00     0.096 A 
ENDBRANCH  23  27
ENDBRANCH  17  20
ENDBRANCH   1  16
BRANCH   6  32
HETATM   32  O   UNL     1      38.911  -7.276  14.313  1.00  0.00    -0.346 OA
HETATM   33  H   UNL     1      37.958  -7.182  14.140  1.00  0.00     0.219 HD
ENDBRANCH   6  32
TORSDOF 4
ENDMDL
MODEL 9
REMARK VINA RESULT:      -7.8      6.712     10.454
REMARK  4 active torsions:
REMARK  status: ('A' for Active; 'I' for Inactive)
REMARK    1  A    between atoms: C_3  and  N_4 
REMARK    2  A    between atoms: C_11  and  C_12 
REMARK       I    between atoms: C_12  and  N_13 
REMARK    3  A    between atoms: N_13  and  C_14 
REMARK    4  A    between atoms: C_19  and  O_20 
ROOT
HETATM    1  C   UNL     1      41.594 -14.998   1.603  1.00  0.00     0.036 A 
HETATM    2  C   UNL     1      42.294 -16.204   1.597  1.00  0.00     0.049 A 
HETATM    3  C   UNL     1      42.319 -17.030   2.740  1.00  0.00     0.063 A 
HETATM    4  C   UNL     1      41.644 -16.649   3.915  1.00  0.00     0.075 A 
HETATM    5  N   UNL     1      41.595 -17.356   5.136  1.00  0.00    -0.226 NA
HETATM    6  C   UNL     1      42.660 -17.929   5.589  1.00  0.00     0.161 C 
HETATM    7  C   UNL     1      44.017 -17.984   4.916  1.00  0.00     0.164 C 
HETATM    8  N   UNL     1      43.790 -18.745   3.696  1.00  0.00    -0.336 N 
HETATM    9  C   UNL     1      43.064 -18.310   2.611  1.00  0.00     0.257 C 
HETATM   10  O   UNL     1      43.018 -18.935   1.556  1.00  0.00    -0.267 OA
HETATM   11  C   UNL     1      45.109 -18.765   5.645  1.00  0.00     0.035 C 
HETATM   12  C   UNL     1      44.929 -20.195   5.142  1.00  0.00     0.022 C 
HETATM   13  C   UNL     1      44.518 -19.997   3.690  1.00  0.00     0.127 C 
HETATM   14  C   UNL     1      40.908 -15.458   3.886  1.00  0.00     0.035 A 
HETATM   15  C   UNL     1      40.877 -14.646   2.749  1.00  0.00     0.032 A 
ENDROOT
BRANCH   1  16
HETATM   16  N   UNL     1      41.571 -14.082   0.531  1.00  0.00    -0.323 N 
HETATM   17  C   UNL     1      41.349 -14.362  -0.807  1.00  0.00     0.256 C 
HETATM   18  O   UNL     1      41.046 -15.453  -1.275  1.00  0.00    -0.267 OA
HETATM   19  H   UNL     1      41.771 -13.125   0.780  1.00  0.00     0.169 HD
BRANCH  17  20
HETATM   20  C   UNL     1      41.517 -13.211  -1.750  1.00  0.00     0.033 A 
HETATM   21  C   UNL     1      40.829 -13.117  -2.960  1.00  0.00     0.019 A 
HETATM   22  C   UNL     1      41.008 -12.001  -3.784  1.00  0.00     0.031 A 
HETATM   23  C   UNL     1      41.854 -10.940  -3.408  1.00  0.00     0.044 A 
HETATM   24  C   UNL     1      42.565 -11.026  -2.192  1.00  0.00    -0.034 A 
HETATM   25  C   UNL     1      43.562 -10.011  -1.701  1.00  0.00     0.050 C 
HETATM   26  C   UNL     1      42.367 -12.160  -1.373  1.00  0.00     0.026 A 
BRANCH  23  27
HETATM   27  N   UNL     1      41.926  -9.815  -4.287  1.00  0.00    -0.332 N 
HETATM   28  C   UNL     1      41.177  -8.657  -4.235  1.00  0.00     0.096 A 
HETATM   29  C   UNL     1      41.534  -7.832  -5.281  1.00  0.00     0.019 A 
HETATM   30  C   UNL     1      42.524  -8.504  -6.022  1.00  0.00     0.019 A 
HETATM   31  C   UNL     1      42.734  -9.719  -5.408  1.00  0.00     0.096 A 
ENDBRANCH  23  27
ENDBRANCH  17  20
ENDBRANCH   1  16
BRANCH   6  32
HETATM   32  O   UNL     1      42.550 -18.540   6.775  1.00  0.00    -0.346 OA
HETATM   33  H   UNL     1      41.878 -19.236   6.676  1.00  0.00     0.219 HD
ENDBRANCH   6  32
TORSDOF 4
ENDMDL
MODEL 10
REMARK VINA RESULT:      -7.8      6.474      8.786
REMARK  4 active torsions:
REMARK  status: ('A' for Active; 'I' for Inactive)
REMARK    1  A    between atoms: C_3  and  N_4 
REMARK    2  A    between atoms: C_11  and  C_12 
REMARK       I    between atoms: C_12  and  N_13 
REMARK    3  A    between atoms: N_13  and  C_14 
REMARK    4  A    between atoms: C_19  and  O_20 
ROOT
HETATM    1  C   UNL     1      41.206 -14.141   0.275  1.00  0.00     0.036 A 
HETATM    2  C   UNL     1      41.744 -12.911  -0.103  1.00  0.00     0.049 A 
HETATM    3  C   UNL     1      41.234 -12.210  -1.215  1.00  0.00     0.063 A 
HETATM    4  C   UNL     1      40.174 -12.744  -1.974  1.00  0.00     0.075 A 
HETATM    5  N   UNL     1      39.574 -12.173  -3.117  1.00  0.00    -0.226 NA
HETATM    6  C   UNL     1      40.311 -11.605  -4.012  1.00  0.00     0.161 C 
HETATM    7  C   UNL     1      41.815 -11.419  -3.965  1.00  0.00     0.164 C 
HETATM    8  N   UNL     1      42.040 -10.544  -2.824  1.00  0.00    -0.336 N 
HETATM    9  C   UNL     1      41.856 -10.892  -1.506  1.00  0.00     0.257 C 
HETATM   10  O   UNL     1      42.192 -10.162  -0.579  1.00  0.00    -0.267 OA
HETATM   11  C   UNL     1      42.447 -10.673  -5.139  1.00  0.00     0.035 C 
HETATM   12  C   UNL     1      42.368  -9.207  -4.720  1.00  0.00     0.022 C 
HETATM   13  C   UNL     1      42.600  -9.267  -3.218  1.00  0.00     0.127 C 
HETATM   14  C   UNL     1      39.616 -13.956  -1.550  1.00  0.00     0.035 A 
HETATM   15  C   UNL     1      40.117 -14.643  -0.441  1.00  0.00     0.032 A 
ENDROOT
BRANCH   1  16
HETATM   16  N   UNL     1      41.697 -14.937   1.330  1.00  0.00    -0.323 N 
HETATM   17  C   UNL     1      42.181 -16.232   1.249  1.00  0.00     0.256 C 
HETATM   18  O   UNL     1      42.345 -16.878   0.220  1.00  0.00    -0.267 OA
HETATM   19  H   UNL     1      41.656 -14.512   2.245  1.00  0.00     0.169 HD
BRANCH  17  20
HETATM   20  C   UNL     1      42.511 -16.887   2.555  1.00  0.00     0.033 A 
HETATM   21  C   UNL     1      43.688 -17.606   2.765  1.00  0.00     0.019 A 
HETATM   22  C   UNL     1      43.953 -18.170   4.017  1.00  0.00     0.031 A 
HETATM   23  C   UNL     1      43.063 -18.008   5.096  1.00  0.00     0.044 A 
HETATM   24  C   UNL     1      41.862 -17.293   4.896  1.00  0.00    -0.034 A 
HETATM   25  C   UNL     1      40.784 -17.108   5.930  1.00  0.00     0.050 C 
HETATM   26  C   UNL     1      41.617 -16.728   3.625  1.00  0.00     0.026 A 
BRANCH  23  27
HETATM   27  N   UNL     1      43.447 -18.568   6.354  1.00  0.00    -0.332 N 
HETATM   28  C   UNL     1      43.864 -17.895   7.485  1.00  0.00     0.096 A 
HETATM   29  C   UNL     1      44.167 -18.806   8.474  1.00  0.00     0.019 A 
HETATM   30  C   UNL     1      43.953 -20.090   7.940  1.00  0.00     0.019 A 
HETATM   31  C   UNL     1      43.532 -19.922   6.639  1.00  0.00     0.096 A 
ENDBRANCH  23  27
ENDBRANCH  17  20
ENDBRANCH   1  16
BRANCH   6  32
HETATM   32  O   UNL     1      39.678 -11.129  -5.091  1.00  0.00    -0.346 OA
HETATM   33  H   UNL     1      40.292 -11.209  -5.841  1.00  0.00     0.219 HD
ENDBRANCH   6  32
TORSDOF 4
ENDMDL
