MODEL 1
REMARK VINA RESULT:      -7.9      0.000      0.000
REMARK  8 active torsions:
REMARK  status: ('A' for Active; 'I' for Inactive)
REMARK    1  A    between atoms: C_2  and  C_3 
REMARK    2  A    between atoms: C_3  and  O_4 
REMARK    3  A    between atoms: O_4  and  C_5 
REMARK    4  A    between atoms: C_6  and  O_7 
REMARK    5  A    between atoms: O_7  and  C_8 
REMARK    6  A    between atoms: C_8  and  C_9 
REMARK    7  A    between atoms: C_12  and  N_13 
REMARK       I    between atoms: N_13  and  C_14 
REMARK    8  A    between atoms: C_14  and  C_15 
ROOT
HETATM    1  N   UNL     1      42.208 -15.835   1.364  1.00  0.00    -0.322 N 
HETATM    2  C   UNL     1      41.555 -16.715   2.203  1.00  0.00     0.277 C 
HETATM    3  O   UNL     1      40.382 -17.047   2.194  1.00  0.00    -0.266 OA
HETATM    4  H   UNL     1      43.163 -15.623   1.641  1.00  0.00     0.169 HD
ENDROOT
BRANCH   1   5
HETATM    5  C   UNL     1      41.681 -15.126   0.271  1.00  0.00     0.037 A 
HETATM    6  C   UNL     1      41.491 -15.678  -0.999  1.00  0.00     0.069 A 
HETATM    7  C   UNL     1      40.949 -14.910  -2.039  1.00  0.00     0.104 A 
HETATM    8  C   UNL     1      40.590 -13.568  -1.806  1.00  0.00     0.102 A 
HETATM    9  C   UNL     1      40.795 -13.014  -0.541  1.00  0.00     0.042 A 
HETATM   10  C   UNL     1      41.335 -13.789   0.489  1.00  0.00     0.032 A 
BRANCH   7  11
HETATM   11  O   UNL     1      40.718 -15.378  -3.311  1.00  0.00    -0.348 OA
BRANCH  11  12
HETATM   12  C   UNL     1      39.820 -16.473  -3.470  1.00  0.00     0.175 C 
BRANCH  12  13
HETATM   13  C   UNL     1      38.672 -16.042  -4.379  1.00  0.00     0.022 C 
HETATM   14  C   UNL     1      37.598 -15.263  -3.632  1.00  0.00     0.007 C 
ENDBRANCH  12  13
ENDBRANCH  11  12
ENDBRANCH   7  11
BRANCH   8  15
HETATM   15  O   UNL     1      40.065 -12.885  -2.874  1.00  0.00    -0.348 OA
BRANCH  15  16
HETATM   16  C   UNL     1      40.650 -11.629  -3.210  1.00  0.00     0.175 C 
BRANCH  16  17
HETATM   17  C   UNL     1      42.006 -11.901  -3.853  1.00  0.00     0.022 C 
HETATM   18  C   UNL     1      42.344 -10.869  -4.916  1.00  0.00     0.007 C 
ENDBRANCH  16  17
ENDBRANCH  15  16
ENDBRANCH   8  15
ENDBRANCH   1   5
BRANCH   2  19
HETATM   19  C   UNL     1      42.499 -17.275   3.269  1.00  0.00     0.156 A 
HETATM   20  N   UNL     1      42.693 -16.504   4.305  1.00  0.00    -0.166 NA
HETATM   21  N   UNL     1      43.521 -16.951   5.289  1.00  0.00    -0.242 N 
HETATM   22  C   UNL     1      44.180 -18.157   5.307  1.00  0.00     0.272 A 
HETATM   23  H   UNL     1      43.633 -16.353   6.103  1.00  0.00     0.192 HD
HETATM   24  O   UNL     1      44.893 -18.498   6.243  1.00  0.00    -0.266 OA
HETATM   25  C   UNL     1      43.992 -19.016   4.127  1.00  0.00     0.046 A 
HETATM   26  C   UNL     1      43.159 -18.586   3.093  1.00  0.00     0.016 A 
HETATM   27  C   UNL     1      44.661 -20.244   4.042  1.00  0.00     0.018 A 
HETATM   28  C   UNL     1      43.010 -19.389   1.956  1.00  0.00     0.015 A 
HETATM   29  C   UNL     1      43.678 -20.615   1.871  1.00  0.00     0.001 A 
HETATM   30  C   UNL     1      44.500 -21.043   2.912  1.00  0.00     0.001 A 
ENDBRANCH   2  19
TORSDOF 8
ENDMDL
MODEL 2
REMARK VINA RESULT:      -7.7      1.264      2.874
REMARK  8 active torsions:
REMARK  status: ('A' for Active; 'I' for Inactive)
REMARK    1  A    between atoms: C_2  and  C_3 
REMARK    2  A    between atoms: C_3  and  O_4 
REMARK    3  A    between atoms: O_4  and  C_5 
REMARK    4  A    between atoms: C_6  and  O_7 
REMARK    5  A    between atoms: O_7  and  C_8 
REMARK    6  A    between atoms: C_8  and  C_9 
REMARK    7  A    between atoms: C_12  and  N_13 
REMARK       I    between atoms: N_13  and  C_14 
REMARK    8  A    between atoms: C_14  and  C_15 
ROOT
HETATM    1  N   UNL     1      42.364 -15.894   1.627  1.00  0.00    -0.322 N 
HETATM    2  C   UNL     1      41.704 -16.737   2.497  1.00  0.00     0.277 C 
HETATM    3  O   UNL     1      40.512 -16.983   2.562  1.00  0.00    -0.266 OA
HETATM    4  H   UNL     1      43.349 -15.757   1.842  1.00  0.00     0.169 HD
ENDROOT
BRANCH   1   5
HETATM    5  C   UNL     1      41.821 -15.132   0.578  1.00  0.00     0.037 A 
HETATM    6  C   UNL     1      41.703 -13.740   0.606  1.00  0.00     0.069 A 
HETATM    7  C   UNL     1      41.159 -13.046  -0.485  1.00  0.00     0.104 A 
HETATM    8  C   UNL     1      40.727 -13.757  -1.622  1.00  0.00     0.102 A 
HETATM    9  C   UNL     1      40.832 -15.149  -1.640  1.00  0.00     0.042 A 
HETATM   10  C   UNL     1      41.377 -15.829  -0.549  1.00  0.00     0.032 A 
BRANCH   7  11
HETATM   11  O   UNL     1      41.018 -11.680  -0.545  1.00  0.00    -0.348 OA
BRANCH  11  12
HETATM   12  C   UNL     1      42.109 -10.874  -0.109  1.00  0.00     0.175 C 
BRANCH  12  13
HETATM   13  C   UNL     1      43.210 -10.920  -1.166  1.00  0.00     0.022 C 
HETATM   14  C   UNL     1      43.846  -9.558  -1.405  1.00  0.00     0.007 C 
ENDBRANCH  12  13
ENDBRANCH  11  12
ENDBRANCH   7  11
BRANCH   8  15
HETATM   15  O   UNL     1      40.209 -13.006  -2.647  1.00  0.00    -0.348 OA
BRANCH  15  16
HETATM   16  C   UNL     1      41.000 -12.857  -3.824  1.00  0.00     0.175 C 
BRANCH  16  17
HETATM   17  C   UNL     1      41.029 -11.375  -4.185  1.00  0.00     0.022 C 
HETATM   18  C   UNL     1      42.368 -10.963  -4.772  1.00  0.00     0.007 C 
ENDBRANCH  16  17
ENDBRANCH  15  16
ENDBRANCH   8  15
ENDBRANCH   1   5
BRANCH   2  19
HETATM   19  C   UNL     1      42.671 -17.381   3.493  1.00  0.00     0.156 A 
HETATM   20  N   UNL     1      42.936 -16.671   4.555  1.00  0.00    -0.166 NA
HETATM   21  N   UNL     1      43.788 -17.193   5.480  1.00  0.00    -0.242 N 
HETATM   22  C   UNL     1      44.403 -18.420   5.411  1.00  0.00     0.272 A 
HETATM   23  H   UNL     1      43.955 -16.641   6.316  1.00  0.00     0.192 HD
HETATM   24  O   UNL     1      45.143 -18.831   6.297  1.00  0.00    -0.266 OA
HETATM   25  C   UNL     1      44.136 -19.213   4.199  1.00  0.00     0.046 A 
HETATM   26  C   UNL     1      43.276 -18.704   3.225  1.00  0.00     0.016 A 
HETATM   27  C   UNL     1      44.757 -20.456   4.026  1.00  0.00     0.018 A 
HETATM   28  C   UNL     1      43.052 -19.443   2.058  1.00  0.00     0.015 A 
HETATM   29  C   UNL     1      43.671 -20.686   1.884  1.00  0.00     0.001 A 
HETATM   30  C   UNL     1      44.520 -21.192   2.867  1.00  0.00     0.001 A 
ENDBRANCH   2  19
TORSDOF 8
ENDMDL
MODEL 3
REMARK VINA RESULT:      -7.5      1.369      1.904
REMARK  8 active torsions:
REMARK  status: ('A' for Active; 'I' for Inactive)
REMARK    1  A    between atoms: C_2  and  C_3 
REMARK    2  A    between atoms: C_3  and  O_4 
REMARK    3  A    between atoms: O_4  and  C_5 
REMARK    4  A    between atoms: C_6  and  O_7 
REMARK    5  A    between atoms: O_7  and  C_8 
REMARK    6  A    between atoms: C_8  and  C_9 
REMARK    7  A    between atoms: C_12  and  N_13 
REMARK       I    between atoms: N_13  and  C_14 
REMARK    8  A    between atoms: C_14  and  C_15 
ROOT
HETATM    1  N   UNL     1      42.186 -15.516   1.843  1.00  0.00    -0.322 N 
HETATM    2  C   UNL     1      41.613 -16.569   2.528  1.00  0.00     0.277 C 
HETATM    3  O   UNL     1      40.470 -16.988   2.462  1.00  0.00    -0.266 OA
HETATM    4  H   UNL     1      43.124 -15.276   2.153  1.00  0.00     0.169 HD
ENDROOT
BRANCH   1   5
HETATM    5  C   UNL     1      41.594 -14.686   0.876  1.00  0.00     0.037 A 
HETATM    6  C   UNL     1      41.295 -15.096  -0.427  1.00  0.00     0.069 A 
HETATM    7  C   UNL     1      40.694 -14.212  -1.334  1.00  0.00     0.104 A 
HETATM    8  C   UNL     1      40.385 -12.898  -0.933  1.00  0.00     0.102 A 
HETATM    9  C   UNL     1      40.699 -12.487   0.365  1.00  0.00     0.042 A 
HETATM   10  C   UNL     1      41.296 -13.376   1.260  1.00  0.00     0.032 A 
BRANCH   7  11
HETATM   11  O   UNL     1      40.357 -14.537  -2.627  1.00  0.00    -0.348 OA
BRANCH  11  12
HETATM   12  C   UNL     1      40.459 -15.901  -3.024  1.00  0.00     0.175 C 
BRANCH  12  13
HETATM   13  C   UNL     1      39.258 -16.252  -3.899  1.00  0.00     0.022 C 
HETATM   14  C   UNL     1      38.152 -15.209  -3.818  1.00  0.00     0.007 C 
ENDBRANCH  12  13
ENDBRANCH  11  12
ENDBRANCH   7  11
BRANCH   8  15
HETATM   15  O   UNL     1      39.796 -12.096  -1.878  1.00  0.00    -0.348 OA
BRANCH  15  16
HETATM   16  C   UNL     1      38.709 -11.273  -1.464  1.00  0.00     0.175 C 
BRANCH  16  17
HETATM   17  C   UNL     1      37.477 -12.161  -1.316  1.00  0.00     0.022 C 
HETATM   18  C   UNL     1      36.902 -12.099   0.089  1.00  0.00     0.007 C 
ENDBRANCH  16  17
ENDBRANCH  15  16
ENDBRANCH   8  15
ENDBRANCH   1   5
BRANCH   2  19
HETATM   19  C   UNL     1      42.608 -17.215   3.494  1.00  0.00     0.156 A 
HETATM   20  N   UNL     1      42.897 -16.510   4.554  1.00  0.00    -0.166 NA
HETATM   21  N   UNL     1      43.775 -17.035   5.452  1.00  0.00    -0.242 N 
HETATM   22  C   UNL     1      44.394 -18.259   5.359  1.00  0.00     0.272 A 
HETATM   23  H   UNL     1      43.961 -16.488   6.288  1.00  0.00     0.192 HD
HETATM   24  O   UNL     1      45.158 -18.672   6.223  1.00  0.00    -0.266 OA
HETATM   25  C   UNL     1      44.099 -19.044   4.149  1.00  0.00     0.046 A 
HETATM   26  C   UNL     1      43.212 -18.533   3.201  1.00  0.00     0.016 A 
HETATM   27  C   UNL     1      44.721 -20.283   3.952  1.00  0.00     0.018 A 
HETATM   28  C   UNL     1      42.961 -19.265   2.035  1.00  0.00     0.015 A 
HETATM   29  C   UNL     1      43.581 -20.503   1.837  1.00  0.00     0.001 A 
HETATM   30  C   UNL     1      44.457 -21.012   2.794  1.00  0.00     0.001 A 
ENDBRANCH   2  19
TORSDOF 8
ENDMDL
MODEL 4
REMARK VINA RESULT:      -7.5      2.588      3.689
REMARK  8 active torsions:
REMARK  status: ('A' for Active; 'I' for Inactive)
REMARK    1  A    between atoms: C_2  and  C_3 
REMARK    2  A    between atoms: C_3  and  O_4 
REMARK    3  A    between atoms: O_4  and  C_5 
REMARK    4  A    between atoms: C_6  and  O_7 
REMARK    5  A    between atoms: O_7  and  C_8 
REMARK    6  A    between atoms: C_8  and  C_9 
REMARK    7  A    between atoms: C_12  and  N_13 
REMARK       I    between atoms: N_13  and  C_14 
REMARK    8  A    between atoms: C_14  and  C_15 
ROOT
HETATM    1  N   UNL     1      42.093 -17.868   1.695  1.00  0.00    -0.322 N 
HETATM    2  C   UNL     1      43.459 -18.032   1.797  1.00  0.00     0.277 C 
HETATM    3  O   UNL     1      44.344 -17.243   1.507  1.00  0.00    -0.266 OA
HETATM    4  H   UNL     1      41.555 -18.711   1.883  1.00  0.00     0.169 HD
ENDROOT
BRANCH   1   5
HETATM    5  C   UNL     1      41.385 -16.736   1.258  1.00  0.00     0.037 A 
HETATM    6  C   UNL     1      41.528 -16.167  -0.010  1.00  0.00     0.069 A 
HETATM    7  C   UNL     1      40.778 -15.041  -0.378  1.00  0.00     0.104 A 
HETATM    8  C   UNL     1      39.869 -14.475   0.536  1.00  0.00     0.102 A 
HETATM    9  C   UNL     1      39.739 -15.036   1.809  1.00  0.00     0.042 A 
HETATM   10  C   UNL     1      40.490 -16.159   2.164  1.00  0.00     0.032 A 
BRANCH   7  11
HETATM   11  O   UNL     1      40.849 -14.429  -1.607  1.00  0.00    -0.348 OA
BRANCH  11  12
HETATM   12  C   UNL     1      41.000 -15.253  -2.760  1.00  0.00     0.175 C 
BRANCH  12  13
HETATM   13  C   UNL     1      39.844 -14.978  -3.718  1.00  0.00     0.022 C 
HETATM   14  C   UNL     1      39.062 -16.237  -4.064  1.00  0.00     0.007 C 
ENDBRANCH  12  13
ENDBRANCH  11  12
ENDBRANCH   7  11
BRANCH   8  15
HETATM   15  O   UNL     1      39.172 -13.377   0.099  1.00  0.00    -0.348 OA
BRANCH  15  16
HETATM   16  C   UNL     1      39.595 -12.096   0.561  1.00  0.00     0.175 C 
BRANCH  16  17
HETATM   17  C   UNL     1      38.397 -11.413   1.214  1.00  0.00     0.022 C 
HETATM   18  C   UNL     1      38.354 -11.660   2.712  1.00  0.00     0.007 C 
ENDBRANCH  16  17
ENDBRANCH  15  16
ENDBRANCH   8  15
ENDBRANCH   1   5
BRANCH   2  19
HETATM   19  C   UNL     1      43.819 -19.423   2.323  1.00  0.00     0.156 A 
HETATM   20  N   UNL     1      43.919 -20.355   1.415  1.00  0.00    -0.166 NA
HETATM   21  N   UNL     1      44.241 -21.614   1.822  1.00  0.00    -0.242 N 
HETATM   22  C   UNL     1      44.482 -22.009   3.117  1.00  0.00     0.272 A 
HETATM   23  H   UNL     1      44.349 -22.319   1.098  1.00  0.00     0.192 HD
HETATM   24  O   UNL     1      44.789 -23.160   3.403  1.00  0.00    -0.266 OA
HETATM   25  C   UNL     1      44.337 -20.969   4.149  1.00  0.00     0.046 A 
HETATM   26  C   UNL     1      43.998 -19.670   3.770  1.00  0.00     0.016 A 
HETATM   27  C   UNL     1      44.522 -21.295   5.499  1.00  0.00     0.018 A 
HETATM   28  C   UNL     1      43.825 -18.693   4.757  1.00  0.00     0.015 A 
HETATM   29  C   UNL     1      44.010 -19.017   6.105  1.00  0.00     0.001 A 
HETATM   30  C   UNL     1      44.359 -20.314   6.475  1.00  0.00     0.001 A 
ENDBRANCH   2  19
TORSDOF 8
ENDMDL
MODEL 5
REMARK VINA RESULT:      -7.4      2.372      8.685
REMARK  8 active torsions:
REMARK  status: ('A' for Active; 'I' for Inactive)
REMARK    1  A    between atoms: C_2  and  C_3 
REMARK    2  A    between atoms: C_3  and  O_4 
REMARK    3  A    between atoms: O_4  and  C_5 
REMARK    4  A    between atoms: C_6  and  O_7 
REMARK    5  A    between atoms: O_7  and  C_8 
REMARK    6  A    between atoms: C_8  and  C_9 
REMARK    7  A    between atoms: C_12  and  N_13 
REMARK       I    between atoms: N_13  and  C_14 
REMARK    8  A    between atoms: C_14  and  C_15 
ROOT
HETATM    1  N   UNL     1      40.751 -15.990   1.856  1.00  0.00    -0.322 N 
HETATM    2  C   UNL     1      41.121 -14.729   1.434  1.00  0.00     0.277 C 
HETATM    3  O   UNL     1      42.105 -14.080   1.746  1.00  0.00    -0.266 OA
HETATM    4  H   UNL     1      39.825 -16.278   1.552  1.00  0.00     0.169 HD
ENDROOT
BRANCH   1   5
HETATM    5  C   UNL     1      41.440 -16.848   2.730  1.00  0.00     0.037 A 
HETATM    6  C   UNL     1      42.369 -17.805   2.314  1.00  0.00     0.069 A 
HETATM    7  C   UNL     1      43.024 -18.620   3.249  1.00  0.00     0.104 A 
HETATM    8  C   UNL     1      42.747 -18.474   4.622  1.00  0.00     0.102 A 
HETATM    9  C   UNL     1      41.807 -17.527   5.034  1.00  0.00     0.042 A 
HETATM   10  C   UNL     1      41.161 -16.720   4.094  1.00  0.00     0.032 A 
BRANCH   7  11
HETATM   11  O   UNL     1      43.959 -19.575   2.926  1.00  0.00    -0.348 OA
BRANCH  11  12
HETATM   12  C   UNL     1      43.773 -20.315   1.723  1.00  0.00     0.175 C 
BRANCH  12  13
HETATM   13  C   UNL     1      43.867 -21.806   2.042  1.00  0.00     0.022 C 
HETATM   14  C   UNL     1      44.503 -22.073   3.398  1.00  0.00     0.007 C 
ENDBRANCH  12  13
ENDBRANCH  11  12
ENDBRANCH   7  11
BRANCH   8  15
HETATM   15  O   UNL     1      43.431 -19.306   5.472  1.00  0.00    -0.348 OA
BRANCH  15  16
HETATM   16  C   UNL     1      44.394 -18.717   6.342  1.00  0.00     0.175 C 
BRANCH  16  17
HETATM   17  C   UNL     1      43.837 -18.767   7.761  1.00  0.00     0.022 C 
HETATM   18  C   UNL     1      43.446 -17.387   8.263  1.00  0.00     0.007 C 
ENDBRANCH  16  17
ENDBRANCH  15  16
ENDBRANCH   8  15
ENDBRANCH   1   5
BRANCH   2  19
HETATM   19  C   UNL     1      40.087 -14.135   0.475  1.00  0.00     0.156 A 
HETATM   20  N   UNL     1      39.205 -13.344   1.022  1.00  0.00    -0.166 NA
HETATM   21  N   UNL     1      38.262 -12.782   0.218  1.00  0.00    -0.242 N 
HETATM   22  C   UNL     1      38.145 -12.961  -1.140  1.00  0.00     0.272 A 
HETATM   23  H   UNL     1      37.605 -12.141   0.656  1.00  0.00     0.192 HD
HETATM   24  O   UNL     1      37.278 -12.401  -1.801  1.00  0.00    -0.266 OA
HETATM   25  C   UNL     1      39.116 -13.879  -1.759  1.00  0.00     0.046 A 
HETATM   26  C   UNL     1      40.091 -14.482  -0.963  1.00  0.00     0.016 A 
HETATM   27  C   UNL     1      39.042 -14.153  -3.130  1.00  0.00     0.018 A 
HETATM   28  C   UNL     1      40.989 -15.382  -1.548  1.00  0.00     0.015 A 
HETATM   29  C   UNL     1      40.917 -15.656  -2.917  1.00  0.00     0.001 A 
HETATM   30  C   UNL     1      39.947 -15.041  -3.708  1.00  0.00     0.001 A 
ENDBRANCH   2  19
TORSDOF 8
ENDMDL
MODEL 6
REMARK VINA RESULT:      -7.4      2.252      8.996
REMARK  8 active torsions:
REMARK  status: ('A' for Active; 'I' for Inactive)
REMARK    1  A    between atoms: C_2  and  C_3 
REMARK    2  A    between atoms: C_3  and  O_4 
REMARK    3  A    between atoms: O_4  and  C_5 
REMARK    4  A    between atoms: C_6  and  O_7 
REMARK    5  A    between atoms: O_7  and  C_8 
REMARK    6  A    between atoms: C_8  and  C_9 
REMARK    7  A    between atoms: C_12  and  N_13 
REMARK       I    between atoms: N_13  and  C_14 
REMARK    8  A    between atoms: C_14  and  C_15 
ROOT
HETATM    1  N   UNL     1      41.278 -16.041   0.729  1.00  0.00    -0.322 N 
HETATM    2  C   UNL     1      41.336 -14.665   0.648  1.00  0.00     0.277 C 
HETATM    3  O   UNL     1      42.008 -13.892   1.309  1.00  0.00    -0.266 OA
HETATM    4  H   UNL     1      40.552 -16.464   0.155  1.00  0.00     0.169 HD
ENDROOT
BRANCH   1   5
HETATM    5  C   UNL     1      42.005 -16.892   1.578  1.00  0.00     0.037 A 
HETATM    6  C   UNL     1      41.629 -17.193   2.890  1.00  0.00     0.069 A 
HETATM    7  C   UNL     1      42.403 -18.061   3.674  1.00  0.00     0.104 A 
HETATM    8  C   UNL     1      43.571 -18.637   3.139  1.00  0.00     0.102 A 
HETATM    9  C   UNL     1      43.952 -18.322   1.832  1.00  0.00     0.042 A 
HETATM   10  C   UNL     1      43.174 -17.458   1.060  1.00  0.00     0.032 A 
BRANCH   7  11
HETATM   11  O   UNL     1      42.098 -18.419   4.966  1.00  0.00    -0.348 OA
BRANCH  11  12
HETATM   12  C   UNL     1      41.853 -17.381   5.910  1.00  0.00     0.175 C 
BRANCH  12  13
HETATM   13  C   UNL     1      43.180 -16.960   6.537  1.00  0.00     0.022 C 
HETATM   14  C   UNL     1      43.227 -17.222   8.035  1.00  0.00     0.007 C 
ENDBRANCH  12  13
ENDBRANCH  11  12
ENDBRANCH   7  11
BRANCH   8  15
HETATM   15  O   UNL     1      44.270 -19.476   3.968  1.00  0.00    -0.348 OA
BRANCH  15  16
HETATM   16  C   UNL     1      45.144 -20.428   3.365  1.00  0.00     0.175 C 
BRANCH  16  17
HETATM   17  C   UNL     1      44.346 -21.703   3.110  1.00  0.00     0.022 C 
HETATM   18  C   UNL     1      44.177 -21.976   1.626  1.00  0.00     0.007 C 
ENDBRANCH  16  17
ENDBRANCH  15  16
ENDBRANCH   8  15
ENDBRANCH   1   5
BRANCH   2  19
HETATM   19  C   UNL     1      40.378 -14.126  -0.416  1.00  0.00     0.156 A 
HETATM   20  N   UNL     1      39.115 -14.388  -0.217  1.00  0.00    -0.166 NA
HETATM   21  N   UNL     1      38.214 -13.930  -1.128  1.00  0.00    -0.242 N 
HETATM   22  C   UNL     1      38.504 -13.200  -2.257  1.00  0.00     0.272 A 
HETATM   23  H   UNL     1      37.233 -14.113  -0.938  1.00  0.00     0.192 HD
HETATM   24  O   UNL     1      37.632 -12.805  -3.021  1.00  0.00    -0.266 OA
HETATM   25  C   UNL     1      39.929 -12.931  -2.506  1.00  0.00     0.046 A 
HETATM   26  C   UNL     1      40.882 -13.394  -1.598  1.00  0.00     0.016 A 
HETATM   27  C   UNL     1      40.317 -12.232  -3.656  1.00  0.00     0.018 A 
HETATM   28  C   UNL     1      42.239 -13.167  -1.857  1.00  0.00     0.015 A 
HETATM   29  C   UNL     1      42.628 -12.469  -3.005  1.00  0.00     0.001 A 
HETATM   30  C   UNL     1      41.669 -12.000  -3.901  1.00  0.00     0.001 A 
ENDBRANCH   2  19
TORSDOF 8
ENDMDL
MODEL 7
REMARK VINA RESULT:      -7.3      2.355      9.078
REMARK  8 active torsions:
REMARK  status: ('A' for Active; 'I' for Inactive)
REMARK    1  A    between atoms: C_2  and  C_3 
REMARK    2  A    between atoms: C_3  and  O_4 
REMARK    3  A    between atoms: O_4  and  C_5 
REMARK    4  A    between atoms: C_6  and  O_7 
REMARK    5  A    between atoms: O_7  and  C_8 
REMARK    6  A    between atoms: C_8  and  C_9 
REMARK    7  A    between atoms: C_12  and  N_13 
REMARK       I    between atoms: N_13  and  C_14 
REMARK    8  A    between atoms: C_14  and  C_15 
ROOT
HETATM    1  N   UNL     1      41.226 -16.648   1.517  1.00  0.00    -0.322 N 
HETATM    2  C   UNL     1      41.517 -15.375   1.068  1.00  0.00     0.277 C 
HETATM    3  O   UNL     1      42.335 -14.583   1.503  1.00  0.00    -0.266 OA
HETATM    4  H   UNL     1      40.419 -17.075   1.069  1.00  0.00     0.169 HD
ENDROOT
BRANCH   1   5
HETATM    5  C   UNL     1      41.826 -17.352   2.574  1.00  0.00     0.037 A 
HETATM    6  C   UNL     1      42.821 -18.318   2.403  1.00  0.00     0.069 A 
HETATM    7  C   UNL     1      43.381 -18.973   3.510  1.00  0.00     0.104 A 
HETATM    8  C   UNL     1      42.939 -18.656   4.809  1.00  0.00     0.102 A 
HETATM    9  C   UNL     1      41.933 -17.701   4.976  1.00  0.00     0.042 A 
HETATM   10  C   UNL     1      41.384 -17.054   3.866  1.00  0.00     0.032 A 
BRANCH   7  11
HETATM   11  O   UNL     1      44.370 -19.924   3.430  1.00  0.00    -0.348 OA
BRANCH  11  12
HETATM   12  C   UNL     1      44.296 -20.883   2.379  1.00  0.00     0.175 C 
BRANCH  12  13
HETATM   13  C   UNL     1      44.397 -22.283   2.979  1.00  0.00     0.022 C 
HETATM   14  C   UNL     1      44.794 -22.261   4.448  1.00  0.00     0.007 C 
ENDBRANCH  12  13
ENDBRANCH  11  12
ENDBRANCH   7  11
BRANCH   8  15
HETATM   15  O   UNL     1      43.537 -19.338   5.838  1.00  0.00    -0.348 OA
BRANCH  15  16
HETATM   16  C   UNL     1      44.545 -18.661   6.585  1.00  0.00     0.175 C 
BRANCH  16  17
HETATM   17  C   UNL     1      44.071 -18.564   8.032  1.00  0.00     0.022 C 
HETATM   18  C   UNL     1      43.413 -17.226   8.322  1.00  0.00     0.007 C 
ENDBRANCH  16  17
ENDBRANCH  15  16
ENDBRANCH   8  15
ENDBRANCH   1   5
BRANCH   2  19
HETATM   19  C   UNL     1      40.630 -14.983  -0.116  1.00  0.00     0.156 A 
HETATM   20  N   UNL     1      40.979 -15.487  -1.268  1.00  0.00    -0.166 NA
HETATM   21  N   UNL     1      40.225 -15.178  -2.358  1.00  0.00    -0.242 N 
HETATM   22  C   UNL     1      39.107 -14.378  -2.368  1.00  0.00     0.272 A 
HETATM   23  H   UNL     1      40.490 -15.607  -3.240  1.00  0.00     0.192 HD
HETATM   24  O   UNL     1      38.466 -14.162  -3.390  1.00  0.00    -0.266 OA
HETATM   25  C   UNL     1      38.727 -13.778  -1.078  1.00  0.00     0.046 A 
HETATM   26  C   UNL     1      39.484 -14.065   0.059  1.00  0.00     0.016 A 
HETATM   27  C   UNL     1      37.627 -12.914  -1.006  1.00  0.00     0.018 A 
HETATM   28  C   UNL     1      39.142 -13.465   1.277  1.00  0.00     0.015 A 
HETATM   29  C   UNL     1      38.043 -12.603   1.350  1.00  0.00     0.001 A 
HETATM   30  C   UNL     1      37.286 -12.330   0.212  1.00  0.00     0.001 A 
ENDBRANCH   2  19
TORSDOF 8
ENDMDL
MODEL 8
REMARK VINA RESULT:      -7.3      1.509      2.429
REMARK  8 active torsions:
REMARK  status: ('A' for Active; 'I' for Inactive)
REMARK    1  A    between atoms: C_2  and  C_3 
REMARK    2  A    between atoms: C_3  and  O_4 
REMARK    3  A    between atoms: O_4  and  C_5 
REMARK    4  A    between atoms: C_6  and  O_7 
REMARK    5  A    between atoms: O_7  and  C_8 
REMARK    6  A    between atoms: C_8  and  C_9 
REMARK    7  A    between atoms: C_12  and  N_13 
REMARK       I    between atoms: N_13  and  C_14 
REMARK    8  A    between atoms: C_14  and  C_15 
ROOT
HETATM    1  N   UNL     1      42.015 -15.901   1.621  1.00  0.00    -0.322 N 
HETATM    2  C   UNL     1      41.470 -16.830   2.483  1.00  0.00     0.277 C 
HETATM    3  O   UNL     1      40.313 -17.206   2.565  1.00  0.00    -0.266 OA
HETATM    4  H   UNL     1      42.983 -15.662   1.820  1.00  0.00     0.169 HD
ENDROOT
BRANCH   1   5
HETATM    5  C   UNL     1      41.369 -15.179   0.603  1.00  0.00     0.037 A 
HETATM    6  C   UNL     1      40.689 -13.976   0.810  1.00  0.00     0.069 A 
HETATM    7  C   UNL     1      40.076 -13.307  -0.260  1.00  0.00     0.104 A 
HETATM    8  C   UNL     1      40.145 -13.850  -1.558  1.00  0.00     0.102 A 
HETATM    9  C   UNL     1      40.812 -15.061  -1.759  1.00  0.00     0.042 A 
HETATM   10  C   UNL     1      41.420 -15.718  -0.686  1.00  0.00     0.032 A 
BRANCH   7  11
HETATM   11  O   UNL     1      39.400 -12.116  -0.146  1.00  0.00    -0.348 OA
BRANCH  11  12
HETATM   12  C   UNL     1      38.489 -11.963   0.939  1.00  0.00     0.175 C 
BRANCH  12  13
HETATM   13  C   UNL     1      37.145 -12.569   0.544  1.00  0.00     0.022 C 
HETATM   14  C   UNL     1      36.029 -11.535   0.497  1.00  0.00     0.007 C 
ENDBRANCH  12  13
ENDBRANCH  11  12
ENDBRANCH   7  11
BRANCH   8  15
HETATM   15  O   UNL     1      39.523 -13.135  -2.550  1.00  0.00    -0.348 OA
BRANCH  15  16
HETATM   16  C   UNL     1      40.296 -12.779  -3.694  1.00  0.00     0.175 C 
BRANCH  16  17
HETATM   17  C   UNL     1      41.267 -11.678  -3.280  1.00  0.00     0.022 C 
HETATM   18  C   UNL     1      42.310 -11.413  -4.352  1.00  0.00     0.007 C 
ENDBRANCH  16  17
ENDBRANCH  15  16
ENDBRANCH   8  15
ENDBRANCH   1   5
BRANCH   2  19
HETATM   19  C   UNL     1      42.523 -17.387   3.443  1.00  0.00     0.156 A 
HETATM   20  N   UNL     1      42.794 -16.634   4.474  1.00  0.00    -0.166 NA
HETATM   21  N   UNL     1      43.721 -17.078   5.367  1.00  0.00    -0.242 N 
HETATM   22  C   UNL     1      44.409 -18.266   5.295  1.00  0.00     0.272 A 
HETATM   23  H   UNL     1      43.893 -16.496   6.182  1.00  0.00     0.192 HD
HETATM   24  O   UNL     1      45.216 -18.608   6.152  1.00  0.00    -0.266 OA
HETATM   25  C   UNL     1      44.134 -19.105   4.116  1.00  0.00     0.046 A 
HETATM   26  C   UNL     1      43.198 -18.676   3.175  1.00  0.00     0.016 A 
HETATM   27  C   UNL     1      44.824 -20.311   3.940  1.00  0.00     0.018 A 
HETATM   28  C   UNL     1      42.964 -19.457   2.038  1.00  0.00     0.015 A 
HETATM   29  C   UNL     1      43.652 -20.663   1.861  1.00  0.00     0.001 A 
HETATM   30  C   UNL     1      44.578 -21.090   2.811  1.00  0.00     0.001 A 
ENDBRANCH   2  19
TORSDOF 8
ENDMDL
MODEL 9
REMARK VINA RESULT:      -7.2      1.442      2.249
REMARK  8 active torsions:
REMARK  status: ('A' for Active; 'I' for Inactive)
REMARK    1  A    between atoms: C_2  and  C_3 
REMARK    2  A    between atoms: C_3  and  O_4 
REMARK    3  A    between atoms: O_4  and  C_5 
REMARK    4  A    between atoms: C_6  and  O_7 
REMARK    5  A    between atoms: O_7  and  C_8 
REMARK    6  A    between atoms: C_8  and  C_9 
REMARK    7  A    between atoms: C_12  and  N_13 
REMARK       I    between atoms: N_13  and  C_14 
REMARK    8  A    between atoms: C_14  and  C_15 
ROOT
HETATM    1  N   UNL     1      42.271 -16.473   1.207  1.00  0.00    -0.322 N 
HETATM    2  C   UNL     1      41.694 -17.239   2.200  1.00  0.00     0.277 C 
HETATM    3  O   UNL     1      40.541 -17.228   2.596  1.00  0.00    -0.266 OA
HETATM    4  H   UNL     1      43.280 -16.573   1.135  1.00  0.00     0.169 HD
ENDROOT
BRANCH   1   5
HETATM    5  C   UNL     1      41.657 -15.510   0.388  1.00  0.00     0.037 A 
HETATM    6  C   UNL     1      41.327 -15.723  -0.954  1.00  0.00     0.069 A 
HETATM    7  C   UNL     1      40.706 -14.715  -1.706  1.00  0.00     0.104 A 
HETATM    8  C   UNL     1      40.409 -13.475  -1.107  1.00  0.00     0.102 A 
HETATM    9  C   UNL     1      40.754 -13.260   0.229  1.00  0.00     0.042 A 
HETATM   10  C   UNL     1      41.372 -14.272   0.969  1.00  0.00     0.032 A 
BRANCH   7  11
HETATM   11  O   UNL     1      40.337 -14.846  -3.023  1.00  0.00    -0.348 OA
BRANCH  11  12
HETATM   12  C   UNL     1      39.845 -16.110  -3.460  1.00  0.00     0.175 C 
BRANCH  12  13
HETATM   13  C   UNL     1      38.580 -15.888  -4.287  1.00  0.00     0.022 C 
HETATM   14  C   UNL     1      37.505 -15.136  -3.516  1.00  0.00     0.007 C 
ENDBRANCH  12  13
ENDBRANCH  11  12
ENDBRANCH   7  11
BRANCH   8  15
HETATM   15  O   UNL     1      39.799 -12.544  -1.908  1.00  0.00    -0.348 OA
BRANCH  15  16
HETATM   16  C   UNL     1      40.501 -11.330  -2.166  1.00  0.00     0.175 C 
BRANCH  16  17
HETATM   17  C   UNL     1      40.956 -11.351  -3.622  1.00  0.00     0.022 C 
HETATM   18  C   UNL     1      42.390 -11.832  -3.759  1.00  0.00     0.007 C 
ENDBRANCH  16  17
ENDBRANCH  15  16
ENDBRANCH   8  15
ENDBRANCH   1   5
BRANCH   2  19
HETATM   19  C   UNL     1      42.716 -18.172   2.851  1.00  0.00     0.156 A 
HETATM   20  N   UNL     1      42.935 -19.291   2.216  1.00  0.00    -0.166 NA
HETATM   21  N   UNL     1      43.838 -20.162   2.745  1.00  0.00    -0.242 N 
HETATM   22  C   UNL     1      44.561 -19.976   3.899  1.00  0.00     0.272 A 
HETATM   23  H   UNL     1      44.023 -21.012   2.219  1.00  0.00     0.192 HD
HETATM   24  O   UNL     1      45.375 -20.800   4.301  1.00  0.00    -0.266 OA
HETATM   25  C   UNL     1      44.293 -18.731   4.639  1.00  0.00     0.046 A 
HETATM   26  C   UNL     1      43.366 -17.820   4.132  1.00  0.00     0.016 A 
HETATM   27  C   UNL     1      44.954 -18.482   5.848  1.00  0.00     0.018 A 
HETATM   28  C   UNL     1      43.087 -16.655   4.855  1.00  0.00     0.015 A 
HETATM   29  C   UNL     1      43.746 -16.404   6.063  1.00  0.00     0.001 A 
HETATM   30  C   UNL     1      44.680 -17.314   6.558  1.00  0.00     0.001 A 
ENDBRANCH   2  19
TORSDOF 8
ENDMDL
MODEL 10
REMARK VINA RESULT:      -7.2      2.139      3.437
REMARK  8 active torsions:
REMARK  status: ('A' for Active; 'I' for Inactive)
REMARK    1  A    between atoms: C_2  and  C_3 
REMARK    2  A    between atoms: C_3  and  O_4 
REMARK    3  A    between atoms: O_4  and  C_5 
REMARK    4  A    between atoms: C_6  and  O_7 
REMARK    5  A    between atoms: O_7  and  C_8 
REMARK    6  A    between atoms: C_8  and  C_9 
REMARK    7  A    between atoms: C_12  and  N_13 
REMARK       I    between atoms: N_13  and  C_14 
REMARK    8  A    between atoms: C_14  and  C_15 
ROOT
HETATM    1  N   UNL     1      41.598 -15.730   2.728  1.00  0.00    -0.322 N 
HETATM    2  C   UNL     1      42.770 -15.315   3.327  1.00  0.00     0.277 C 
HETATM    3  O   UNL     1      43.621 -14.557   2.891  1.00  0.00    -0.266 OA
HETATM    4  H   UNL     1      41.105 -16.461   3.235  1.00  0.00     0.169 HD
ENDROOT
BRANCH   1   5
HETATM    5  C   UNL     1      41.084 -15.355   1.475  1.00  0.00     0.037 A 
HETATM    6  C   UNL     1      40.023 -14.462   1.302  1.00  0.00     0.069 A 
HETATM    7  C   UNL     1      39.571 -14.128   0.017  1.00  0.00     0.104 A 
HETATM    8  C   UNL     1      40.191 -14.695  -1.113  1.00  0.00     0.102 A 
HETATM    9  C   UNL     1      41.242 -15.599  -0.937  1.00  0.00     0.042 A 
HETATM   10  C   UNL     1      41.684 -15.924   0.348  1.00  0.00     0.032 A 
BRANCH   7  11
HETATM   11  O   UNL     1      38.545 -13.251  -0.241  1.00  0.00    -0.348 OA
BRANCH  11  12
HETATM   12  C   UNL     1      37.395 -13.299   0.599  1.00  0.00     0.175 C 
BRANCH  12  13
HETATM   13  C   UNL     1      36.893 -11.875   0.830  1.00  0.00     0.022 C 
HETATM   14  C   UNL     1      37.774 -10.831   0.160  1.00  0.00     0.007 C 
ENDBRANCH  12  13
ENDBRANCH  11  12
ENDBRANCH   7  11
BRANCH   8  15
HETATM   15  O   UNL     1      39.693 -14.315  -2.334  1.00  0.00    -0.348 OA
BRANCH  15  16
HETATM   16  C   UNL     1      40.200 -14.977  -3.491  1.00  0.00     0.175 C 
BRANCH  16  17
HETATM   17  C   UNL     1      39.093 -15.867  -4.045  1.00  0.00     0.022 C 
HETATM   18  C   UNL     1      37.719 -15.252  -3.842  1.00  0.00     0.007 C 
ENDBRANCH  16  17
ENDBRANCH  15  16
ENDBRANCH   8  15
ENDBRANCH   1   5
BRANCH   2  19
HETATM   19  C   UNL     1      42.956 -15.963   4.700  1.00  0.00     0.156 A 
HETATM   20  N   UNL     1      42.661 -15.204   5.721  1.00  0.00    -0.166 NA
HETATM   21  N   UNL     1      42.804 -15.727   6.970  1.00  0.00    -0.242 N 
HETATM   22  C   UNL     1      43.228 -16.999   7.271  1.00  0.00     0.272 A 
HETATM   23  H   UNL     1      42.535 -15.134   7.751  1.00  0.00     0.192 HD
HETATM   24  O   UNL     1      43.310 -17.405   8.425  1.00  0.00    -0.266 OA
HETATM   25  C   UNL     1      43.595 -17.848   6.126  1.00  0.00     0.046 A 
HETATM   26  C   UNL     1      43.472 -17.342   4.832  1.00  0.00     0.016 A 
HETATM   27  C   UNL     1      44.080 -19.144   6.345  1.00  0.00     0.018 A 
HETATM   28  C   UNL     1      43.856 -18.139   3.747  1.00  0.00     0.015 A 
HETATM   29  C   UNL     1      44.340 -19.434   3.964  1.00  0.00     0.001 A 
HETATM   30  C   UNL     1      44.449 -19.936   5.260  1.00  0.00     0.001 A 
ENDBRANCH   2  19
TORSDOF 8
ENDMDL
