MODEL 1
REMARK VINA RESULT:      -8.6      0.000      0.000
REMARK  10 active torsions:
REMARK  status: ('A' for Active; 'I' for Inactive)
REMARK       I    between atoms: N_2  and  C_3 
REMARK    1  A    between atoms: N_2  and  C_22 
REMARK    2  A    between atoms: C_3  and  C_4 
REMARK    3  A    between atoms: C_4  and  O_5 
REMARK    4  A    between atoms: O_5  and  C_6 
REMARK    5  A    between atoms: C_6  and  C_7 
REMARK    6  A    between atoms: C_8  and  N_9 
REMARK    7  A    between atoms: N_9  and  C_10 
REMARK    8  A    between atoms: C_10  and  C_11 
REMARK    9  A    between atoms: C_22  and  C_23 
REMARK       I    between atoms: C_23  and  N_24 
REMARK   10  A    between atoms: N_24  and  C_25 
ROOT
HETATM    1  C   UNL     1      41.717 -13.076   3.491  1.00  0.00     0.281 C 
ENDROOT
BRANCH   1   2
HETATM    2  C   UNL     1      42.535 -14.163   2.787  1.00  0.00     0.244 C 
HETATM    3  N   UNL     1      41.871 -15.046   1.943  1.00  0.00    -0.346 N 
HETATM    4  C   UNL     1      40.517 -14.838   1.450  1.00  0.00     0.153 C 
HETATM    5  O   UNL     1      43.763 -14.234   2.922  1.00  0.00    -0.271 OA
BRANCH   3   6
HETATM    6  C   UNL     1      42.672 -16.055   1.239  1.00  0.00     0.228 C 
BRANCH   6   7
HETATM    7  C   UNL     1      42.557 -17.440   1.891  1.00  0.00     0.240 C 
HETATM    8  N   UNL     1      43.771 -18.105   1.942  1.00  0.00    -0.326 N 
HETATM    9  H   UNL     1      44.556 -17.616   1.509  1.00  0.00     0.169 HD
HETATM   10  O   UNL     1      41.471 -17.862   2.281  1.00  0.00    -0.271 OA
BRANCH   8  11
HETATM   11  C   UNL     1      44.036 -19.388   2.453  1.00  0.00     0.035 A 
HETATM   12  C   UNL     1      44.600 -19.627   3.710  1.00  0.00     0.032 A 
HETATM   13  C   UNL     1      44.833 -20.936   4.142  1.00  0.00     0.044 A 
HETATM   14  C   UNL     1      44.499 -22.004   3.319  1.00  0.00     0.116 A 
HETATM   15  F   UNL     1      44.720 -23.257   3.736  1.00  0.00    -0.206 F 
HETATM   16  C   UNL     1      43.939 -21.787   2.067  1.00  0.00     0.044 A 
HETATM   17  C   UNL     1      43.712 -20.480   1.632  1.00  0.00     0.032 A 
ENDBRANCH   8  11
ENDBRANCH   6   7
ENDBRANCH   3   6
ENDBRANCH   1   2
BRANCH   1  18
HETATM   18  O   UNL     1      41.974 -13.131   4.898  1.00  0.00    -0.308 OA
BRANCH  18  19
HETATM   19  C   UNL     1      41.273 -14.065   5.584  1.00  0.00     0.295 C 
HETATM   20  O   UNL     1      40.092 -14.010   5.888  1.00  0.00    -0.259 OA
BRANCH  19  21
HETATM   21  C   UNL     1      42.168 -15.200   5.925  1.00  0.00     0.060 A 
HETATM   22  C   UNL     1      43.337 -14.989   6.691  1.00  0.00     0.025 A 
HETATM   23  C   UNL     1      44.135 -16.117   6.952  1.00  0.00     0.024 A 
HETATM   24  C   UNL     1      43.752 -17.402   6.545  1.00  0.00     0.002 A 
HETATM   25  C   UNL     1      42.571 -17.592   5.838  1.00  0.00     0.001 A 
HETATM   26  C   UNL     1      41.781 -16.493   5.523  1.00  0.00     0.019 A 
BRANCH  22  27
HETATM   27  N   UNL     1      43.749 -13.688   7.032  1.00  0.00    -0.286 NA
HETATM   28  H   UNL     1      43.040 -13.230   7.612  1.00  0.00     0.128 HD
BRANCH  27  29
HETATM   29  C   UNL     1      45.101 -13.460   7.546  1.00  0.00     0.157 C 
BRANCH  29  30
HETATM   30  C   UNL     1      45.177 -12.620   8.778  1.00  0.00     0.065 A 
HETATM   31  O   UNL     1      44.493 -13.092   9.864  1.00  0.00    -0.326 OA
HETATM   32  C   UNL     1      44.686 -12.207  10.874  1.00  0.00     0.142 A 
HETATM   33  C   UNL     1      45.479 -11.165  10.456  1.00  0.00     0.027 A 
HETATM   34  C   UNL     1      45.797 -11.430   9.102  1.00  0.00     0.036 A 
ENDBRANCH  29  30
ENDBRANCH  27  29
ENDBRANCH  22  27
ENDBRANCH  19  21
ENDBRANCH  18  19
ENDBRANCH   1  18
TORSDOF 10
ENDMDL
MODEL 2
REMARK VINA RESULT:      -8.4      2.085      5.221
REMARK  10 active torsions:
REMARK  status: ('A' for Active; 'I' for Inactive)
REMARK       I    between atoms: N_2  and  C_3 
REMARK    1  A    between atoms: N_2  and  C_22 
REMARK    2  A    between atoms: C_3  and  C_4 
REMARK    3  A    between atoms: C_4  and  O_5 
REMARK    4  A    between atoms: O_5  and  C_6 
REMARK    5  A    between atoms: C_6  and  C_7 
REMARK    6  A    between atoms: C_8  and  N_9 
REMARK    7  A    between atoms: N_9  and  C_10 
REMARK    8  A    between atoms: C_10  and  C_11 
REMARK    9  A    between atoms: C_22  and  C_23 
REMARK       I    between atoms: C_23  and  N_24 
REMARK   10  A    between atoms: N_24  and  C_25 
ROOT
HETATM    1  C   UNL     1      44.930 -14.199   7.119  1.00  0.00     0.281 C 
ENDROOT
BRANCH   1   2
HETATM    2  C   UNL     1      43.703 -15.058   6.800  1.00  0.00     0.244 C 
HETATM    3  N   UNL     1      42.886 -14.675   5.742  1.00  0.00    -0.346 N 
HETATM    4  C   UNL     1      43.265 -13.693   4.736  1.00  0.00     0.153 C 
HETATM    5  O   UNL     1      43.461 -16.095   7.431  1.00  0.00    -0.271 OA
BRANCH   3   6
HETATM    6  C   UNL     1      41.738 -15.531   5.417  1.00  0.00     0.228 C 
BRANCH   6   7
HETATM    7  C   UNL     1      42.056 -16.515   4.283  1.00  0.00     0.240 C 
HETATM    8  N   UNL     1      42.862 -17.561   4.699  1.00  0.00    -0.326 N 
HETATM    9  H   UNL     1      43.171 -17.516   5.672  1.00  0.00     0.169 HD
HETATM   10  O   UNL     1      41.627 -16.324   3.148  1.00  0.00    -0.271 OA
BRANCH   8  11
HETATM   11  C   UNL     1      43.360 -18.631   3.932  1.00  0.00     0.035 A 
HETATM   12  C   UNL     1      42.935 -18.924   2.634  1.00  0.00     0.032 A 
HETATM   13  C   UNL     1      43.481 -20.009   1.940  1.00  0.00     0.044 A 
HETATM   14  C   UNL     1      44.452 -20.796   2.546  1.00  0.00     0.116 A 
HETATM   15  F   UNL     1      44.974 -21.833   1.879  1.00  0.00    -0.206 F 
HETATM   16  C   UNL     1      44.885 -20.522   3.836  1.00  0.00     0.044 A 
HETATM   17  C   UNL     1      44.336 -19.442   4.531  1.00  0.00     0.032 A 
ENDBRANCH   8  11
ENDBRANCH   6   7
ENDBRANCH   3   6
ENDBRANCH   1   2
BRANCH   1  18
HETATM   18  O   UNL     1      44.779 -13.630   8.424  1.00  0.00    -0.308 OA
BRANCH  18  19
HETATM   19  C   UNL     1      45.401 -12.442   8.620  1.00  0.00     0.295 C 
HETATM   20  O   UNL     1      46.474 -12.097   8.150  1.00  0.00    -0.259 OA
BRANCH  19  21
HETATM   21  C   UNL     1      44.570 -11.594   9.511  1.00  0.00     0.060 A 
HETATM   22  C   UNL     1      43.255 -11.232   9.139  1.00  0.00     0.025 A 
HETATM   23  C   UNL     1      42.547 -10.412  10.036  1.00  0.00     0.024 A 
HETATM   24  C   UNL     1      43.084 -10.038  11.275  1.00  0.00     0.002 A 
HETATM   25  C   UNL     1      44.359 -10.450  11.641  1.00  0.00     0.001 A 
HETATM   26  C   UNL     1      45.105 -11.223  10.759  1.00  0.00     0.019 A 
BRANCH  22  27
HETATM   27  N   UNL     1      42.754 -11.551   7.864  1.00  0.00    -0.286 NA
HETATM   28  H   UNL     1      42.544 -12.552   7.804  1.00  0.00     0.128 HD
BRANCH  27  29
HETATM   29  C   UNL     1      41.690 -10.738   7.271  1.00  0.00     0.157 C 
BRANCH  29  30
HETATM   30  C   UNL     1      40.732 -11.483   6.403  1.00  0.00     0.065 A 
HETATM   31  O   UNL     1      40.822 -11.232   5.062  1.00  0.00    -0.326 OA
HETATM   32  C   UNL     1      39.888 -11.998   4.447  1.00  0.00     0.142 A 
HETATM   33  C   UNL     1      39.188 -12.737   5.371  1.00  0.00     0.027 A 
HETATM   34  C   UNL     1      39.731 -12.406   6.636  1.00  0.00     0.036 A 
ENDBRANCH  29  30
ENDBRANCH  27  29
ENDBRANCH  22  27
ENDBRANCH  19  21
ENDBRANCH  18  19
ENDBRANCH   1  18
TORSDOF 10
ENDMDL
MODEL 3
REMARK VINA RESULT:      -8.3      4.254      8.175
REMARK  10 active torsions:
REMARK  status: ('A' for Active; 'I' for Inactive)
REMARK       I    between atoms: N_2  and  C_3 
REMARK    1  A    between atoms: N_2  and  C_22 
REMARK    2  A    between atoms: C_3  and  C_4 
REMARK    3  A    between atoms: C_4  and  O_5 
REMARK    4  A    between atoms: O_5  and  C_6 
REMARK    5  A    between atoms: C_6  and  C_7 
REMARK    6  A    between atoms: C_8  and  N_9 
REMARK    7  A    between atoms: N_9  and  C_10 
REMARK    8  A    between atoms: C_10  and  C_11 
REMARK    9  A    between atoms: C_22  and  C_23 
REMARK       I    between atoms: C_23  and  N_24 
REMARK   10  A    between atoms: N_24  and  C_25 
ROOT
HETATM    1  C   UNL     1      41.469 -12.256   5.018  1.00  0.00     0.281 C 
ENDROOT
BRANCH   1   2
HETATM    2  C   UNL     1      40.526 -12.447   6.210  1.00  0.00     0.244 C 
HETATM    3  N   UNL     1      40.233 -11.342   7.003  1.00  0.00    -0.346 N 
HETATM    4  C   UNL     1      40.517  -9.967   6.619  1.00  0.00     0.153 C 
HETATM    5  O   UNL     1      39.995 -13.540   6.444  1.00  0.00    -0.271 OA
BRANCH   3   6
HETATM    6  C   UNL     1      39.293 -11.526   8.115  1.00  0.00     0.228 C 
BRANCH   6   7
HETATM    7  C   UNL     1      39.717 -10.743   9.365  1.00  0.00     0.240 C 
HETATM    8  N   UNL     1      40.930 -11.175   9.876  1.00  0.00    -0.326 N 
HETATM    9  H   UNL     1      41.350 -11.971   9.392  1.00  0.00     0.169 HD
HETATM   10  O   UNL     1      39.002  -9.855   9.823  1.00  0.00    -0.271 OA
BRANCH   8  11
HETATM   11  C   UNL     1      41.612 -10.700  11.011  1.00  0.00     0.035 A 
HETATM   12  C   UNL     1      41.616 -11.349  12.249  1.00  0.00     0.032 A 
HETATM   13  C   UNL     1      42.320 -10.808  13.328  1.00  0.00     0.044 A 
HETATM   14  C   UNL     1      43.021  -9.619  13.167  1.00  0.00     0.116 A 
HETATM   15  F   UNL     1      43.697  -9.103  14.202  1.00  0.00    -0.206 F 
HETATM   16  C   UNL     1      43.028  -8.958  11.946  1.00  0.00     0.044 A 
HETATM   17  C   UNL     1      42.320  -9.496  10.869  1.00  0.00     0.032 A 
ENDBRANCH   8  11
ENDBRANCH   6   7
ENDBRANCH   3   6
ENDBRANCH   1   2
BRANCH   1  18
HETATM   18  O   UNL     1      41.719 -13.527   4.409  1.00  0.00    -0.308 OA
BRANCH  18  19
HETATM   19  C   UNL     1      43.022 -13.889   4.325  1.00  0.00     0.295 C 
HETATM   20  O   UNL     1      43.891 -13.330   3.674  1.00  0.00    -0.259 OA
BRANCH  19  21
HETATM   21  C   UNL     1      43.252 -15.095   5.159  1.00  0.00     0.060 A 
HETATM   22  C   UNL     1      43.583 -14.971   6.528  1.00  0.00     0.025 A 
HETATM   23  C   UNL     1      43.800 -16.166   7.237  1.00  0.00     0.024 A 
HETATM   24  C   UNL     1      43.618 -17.421   6.642  1.00  0.00     0.002 A 
HETATM   25  C   UNL     1      43.241 -17.518   5.308  1.00  0.00     0.001 A 
HETATM   26  C   UNL     1      43.062 -16.357   4.565  1.00  0.00     0.019 A 
BRANCH  22  27
HETATM   27  N   UNL     1      43.834 -13.709   7.097  1.00  0.00    -0.286 NA
HETATM   28  H   UNL     1      43.138 -13.499   7.818  1.00  0.00     0.128 HD
BRANCH  27  29
HETATM   29  C   UNL     1      45.187 -13.358   7.530  1.00  0.00     0.157 C 
BRANCH  29  30
HETATM   30  C   UNL     1      45.262 -12.567   8.794  1.00  0.00     0.065 A 
HETATM   31  O   UNL     1      44.699 -13.148   9.896  1.00  0.00    -0.326 OA
HETATM   32  C   UNL     1      44.871 -12.291  10.933  1.00  0.00     0.142 A 
HETATM   33  C   UNL     1      45.532 -11.159  10.517  1.00  0.00     0.027 A 
HETATM   34  C   UNL     1      45.784 -11.335   9.135  1.00  0.00     0.036 A 
ENDBRANCH  29  30
ENDBRANCH  27  29
ENDBRANCH  22  27
ENDBRANCH  19  21
ENDBRANCH  18  19
ENDBRANCH   1  18
TORSDOF 10
ENDMDL
MODEL 4
REMARK VINA RESULT:      -8.1      2.385      5.512
REMARK  10 active torsions:
REMARK  status: ('A' for Active; 'I' for Inactive)
REMARK       I    between atoms: N_2  and  C_3 
REMARK    1  A    between atoms: N_2  and  C_22 
REMARK    2  A    between atoms: C_3  and  C_4 
REMARK    3  A    between atoms: C_4  and  O_5 
REMARK    4  A    between atoms: O_5  and  C_6 
REMARK    5  A    between atoms: C_6  and  C_7 
REMARK    6  A    between atoms: C_8  and  N_9 
REMARK    7  A    between atoms: N_9  and  C_10 
REMARK    8  A    between atoms: C_10  and  C_11 
REMARK    9  A    between atoms: C_22  and  C_23 
REMARK       I    between atoms: C_23  and  N_24 
REMARK   10  A    between atoms: N_24  and  C_25 
ROOT
HETATM    1  C   UNL     1      42.260 -13.665   5.489  1.00  0.00     0.281 C 
ENDROOT
BRANCH   1   2
HETATM    2  C   UNL     1      42.462 -15.054   6.101  1.00  0.00     0.244 C 
HETATM    3  N   UNL     1      43.709 -15.365   6.634  1.00  0.00    -0.346 N 
HETATM    4  C   UNL     1      44.741 -14.378   6.919  1.00  0.00     0.153 C 
HETATM    5  O   UNL     1      41.535 -15.871   6.167  1.00  0.00    -0.271 OA
BRANCH   3   6
HETATM    6  C   UNL     1      43.878 -16.683   7.258  1.00  0.00     0.228 C 
BRANCH   6   7
HETATM    7  C   UNL     1      44.499 -17.703   6.292  1.00  0.00     0.240 C 
HETATM    8  N   UNL     1      43.580 -18.196   5.381  1.00  0.00    -0.326 N 
HETATM    9  H   UNL     1      42.622 -17.859   5.497  1.00  0.00     0.169 HD
HETATM   10  O   UNL     1      45.682 -18.018   6.387  1.00  0.00    -0.271 OA
BRANCH   8  11
HETATM   11  C   UNL     1      43.790 -19.148   4.366  1.00  0.00     0.035 A 
HETATM   12  C   UNL     1      44.524 -20.325   4.541  1.00  0.00     0.032 A 
HETATM   13  C   UNL     1      44.686 -21.220   3.478  1.00  0.00     0.044 A 
HETATM   14  C   UNL     1      44.113 -20.937   2.245  1.00  0.00     0.116 A 
HETATM   15  F   UNL     1      44.268 -21.796   1.230  1.00  0.00    -0.206 F 
HETATM   16  C   UNL     1      43.382 -19.772   2.052  1.00  0.00     0.044 A 
HETATM   17  C   UNL     1      43.225 -18.876   3.111  1.00  0.00     0.032 A 
ENDBRANCH   8  11
ENDBRANCH   6   7
ENDBRANCH   3   6
ENDBRANCH   1   2
BRANCH   1  18
HETATM   18  O   UNL     1      41.831 -13.807   4.131  1.00  0.00    -0.308 OA
BRANCH  18  19
HETATM   19  C   UNL     1      42.819 -13.813   3.204  1.00  0.00     0.295 C 
HETATM   20  O   UNL     1      43.992 -13.531   3.390  1.00  0.00    -0.259 OA
BRANCH  19  21
HETATM   21  C   UNL     1      42.259 -14.223   1.892  1.00  0.00     0.060 A 
HETATM   22  C   UNL     1      42.103 -13.280   0.850  1.00  0.00     0.025 A 
HETATM   23  C   UNL     1      41.549 -13.752  -0.353  1.00  0.00     0.024 A 
HETATM   24  C   UNL     1      41.242 -15.106  -0.543  1.00  0.00     0.002 A 
HETATM   25  C   UNL     1      41.453 -16.024   0.477  1.00  0.00     0.001 A 
HETATM   26  C   UNL     1      41.957 -15.584   1.696  1.00  0.00     0.019 A 
BRANCH  22  27
HETATM   27  N   UNL     1      42.346 -11.913   1.074  1.00  0.00    -0.286 NA
HETATM   28  H   UNL     1      43.068 -11.569   0.434  1.00  0.00     0.128 HD
BRANCH  27  29
HETATM   29  C   UNL     1      41.224 -10.977   1.178  1.00  0.00     0.157 C 
BRANCH  29  30
HETATM   30  C   UNL     1      40.345 -11.172   2.369  1.00  0.00     0.065 A 
HETATM   31  O   UNL     1      40.778 -10.596   3.530  1.00  0.00    -0.326 OA
HETATM   32  C   UNL     1      39.854 -10.874   4.484  1.00  0.00     0.142 A 
HETATM   33  C   UNL     1      38.832 -11.628   3.958  1.00  0.00     0.027 A 
HETATM   34  C   UNL     1      39.148 -11.823   2.592  1.00  0.00     0.036 A 
ENDBRANCH  29  30
ENDBRANCH  27  29
ENDBRANCH  22  27
ENDBRANCH  19  21
ENDBRANCH  18  19
ENDBRANCH   1  18
TORSDOF 10
ENDMDL
MODEL 5
REMARK VINA RESULT:      -8.0      3.969      6.857
REMARK  10 active torsions:
REMARK  status: ('A' for Active; 'I' for Inactive)
REMARK       I    between atoms: N_2  and  C_3 
REMARK    1  A    between atoms: N_2  and  C_22 
REMARK    2  A    between atoms: C_3  and  C_4 
REMARK    3  A    between atoms: C_4  and  O_5 
REMARK    4  A    between atoms: O_5  and  C_6 
REMARK    5  A    between atoms: C_6  and  C_7 
REMARK    6  A    between atoms: C_8  and  N_9 
REMARK    7  A    between atoms: N_9  and  C_10 
REMARK    8  A    between atoms: C_10  and  C_11 
REMARK    9  A    between atoms: C_22  and  C_23 
REMARK       I    between atoms: C_23  and  N_24 
REMARK   10  A    between atoms: N_24  and  C_25 
ROOT
HETATM    1  C   UNL     1      41.866 -16.815   3.625  1.00  0.00     0.281 C 
ENDROOT
BRANCH   1   2
HETATM    2  C   UNL     1      40.737 -16.532   2.628  1.00  0.00     0.244 C 
HETATM    3  N   UNL     1      39.935 -15.415   2.840  1.00  0.00    -0.346 N 
HETATM    4  C   UNL     1      40.267 -14.338   3.762  1.00  0.00     0.153 C 
HETATM    5  O   UNL     1      40.563 -17.244   1.632  1.00  0.00    -0.271 OA
BRANCH   3   6
HETATM    6  C   UNL     1      38.885 -15.129   1.854  1.00  0.00     0.228 C 
BRANCH   6   7
HETATM    7  C   UNL     1      39.327 -14.073   0.831  1.00  0.00     0.240 C 
HETATM    8  N   UNL     1      40.181 -14.591  -0.129  1.00  0.00    -0.326 N 
HETATM    9  H   UNL     1      40.435 -15.573  -0.006  1.00  0.00     0.169 HD
HETATM   10  O   UNL     1      38.946 -12.910   0.925  1.00  0.00    -0.271 OA
BRANCH   8  11
HETATM   11  C   UNL     1      40.789 -13.915  -1.203  1.00  0.00     0.035 A 
HETATM   12  C   UNL     1      41.985 -13.201  -1.099  1.00  0.00     0.032 A 
HETATM   13  C   UNL     1      42.523 -12.556  -2.218  1.00  0.00     0.044 A 
HETATM   14  C   UNL     1      41.863 -12.629  -3.438  1.00  0.00     0.116 A 
HETATM   15  F   UNL     1      42.380 -12.013  -4.508  1.00  0.00    -0.206 F 
HETATM   16  C   UNL     1      40.672 -13.333  -3.561  1.00  0.00     0.044 A 
HETATM   17  C   UNL     1      40.133 -13.972  -2.443  1.00  0.00     0.032 A 
ENDBRANCH   8  11
ENDBRANCH   6   7
ENDBRANCH   3   6
ENDBRANCH   1   2
BRANCH   1  18
HETATM   18  O   UNL     1      42.312 -18.164   3.459  1.00  0.00    -0.308 OA
BRANCH  18  19
HETATM   19  C   UNL     1      43.535 -18.311   2.894  1.00  0.00     0.295 C 
HETATM   20  O   UNL     1      44.249 -17.418   2.466  1.00  0.00    -0.259 OA
BRANCH  19  21
HETATM   21  C   UNL     1      43.895 -19.750   2.868  1.00  0.00     0.060 A 
HETATM   22  C   UNL     1      44.552 -20.348   3.968  1.00  0.00     0.025 A 
HETATM   23  C   UNL     1      44.870 -21.713   3.850  1.00  0.00     0.024 A 
HETATM   24  C   UNL     1      44.485 -22.466   2.733  1.00  0.00     0.002 A 
HETATM   25  C   UNL     1      43.794 -21.869   1.686  1.00  0.00     0.001 A 
HETATM   26  C   UNL     1      43.503 -20.511   1.750  1.00  0.00     0.019 A 
BRANCH  22  27
HETATM   27  N   UNL     1      44.997 -19.569   5.051  1.00  0.00    -0.286 NA
HETATM   28  H   UNL     1      45.317 -18.652   4.723  1.00  0.00     0.128 HD
BRANCH  27  29
HETATM   29  C   UNL     1      44.177 -19.457   6.258  1.00  0.00     0.157 C 
BRANCH  29  30
HETATM   30  C   UNL     1      43.867 -18.061   6.686  1.00  0.00     0.065 A 
HETATM   31  O   UNL     1      44.752 -17.101   6.278  1.00  0.00    -0.326 OA
HETATM   32  C   UNL     1      44.301 -15.913   6.753  1.00  0.00     0.142 A 
HETATM   33  C   UNL     1      43.141 -16.090   7.469  1.00  0.00     0.027 A 
HETATM   34  C   UNL     1      42.859 -17.477   7.428  1.00  0.00     0.036 A 
ENDBRANCH  29  30
ENDBRANCH  27  29
ENDBRANCH  22  27
ENDBRANCH  19  21
ENDBRANCH  18  19
ENDBRANCH   1  18
TORSDOF 10
ENDMDL
MODEL 6
REMARK VINA RESULT:      -7.9      2.964      7.272
REMARK  10 active torsions:
REMARK  status: ('A' for Active; 'I' for Inactive)
REMARK       I    between atoms: N_2  and  C_3 
REMARK    1  A    between atoms: N_2  and  C_22 
REMARK    2  A    between atoms: C_3  and  C_4 
REMARK    3  A    between atoms: C_4  and  O_5 
REMARK    4  A    between atoms: O_5  and  C_6 
REMARK    5  A    between atoms: C_6  and  C_7 
REMARK    6  A    between atoms: C_8  and  N_9 
REMARK    7  A    between atoms: N_9  and  C_10 
REMARK    8  A    between atoms: C_10  and  C_11 
REMARK    9  A    between atoms: C_22  and  C_23 
REMARK       I    between atoms: C_23  and  N_24 
REMARK   10  A    between atoms: N_24  and  C_25 
ROOT
HETATM    1  C   UNL     1      41.371 -12.233   3.166  1.00  0.00     0.281 C 
ENDROOT
BRANCH   1   2
HETATM    2  C   UNL     1      42.185 -13.200   4.031  1.00  0.00     0.244 C 
HETATM    3  N   UNL     1      41.572 -13.766   5.144  1.00  0.00    -0.346 N 
HETATM    4  C   UNL     1      40.136 -13.740   5.382  1.00  0.00     0.153 C 
HETATM    5  O   UNL     1      43.345 -13.513   3.732  1.00  0.00    -0.271 OA
BRANCH   3   6
HETATM    6  C   UNL     1      42.347 -14.725   5.940  1.00  0.00     0.228 C 
BRANCH   6   7
HETATM    7  C   UNL     1      42.297 -16.140   5.348  1.00  0.00     0.240 C 
HETATM    8  N   UNL     1      43.513 -16.535   4.816  1.00  0.00    -0.326 N 
HETATM    9  H   UNL     1      44.254 -15.832   4.845  1.00  0.00     0.169 HD
HETATM   10  O   UNL     1      41.254 -16.788   5.358  1.00  0.00    -0.271 OA
BRANCH   8  11
HETATM   11  C   UNL     1      43.829 -17.752   4.183  1.00  0.00     0.035 A 
HETATM   12  C   UNL     1      44.174 -18.921   4.868  1.00  0.00     0.032 A 
HETATM   13  C   UNL     1      44.476 -20.089   4.162  1.00  0.00     0.044 A 
HETATM   14  C   UNL     1      44.428 -20.088   2.774  1.00  0.00     0.116 A 
HETATM   15  F   UNL     1      44.715 -21.209   2.100  1.00  0.00    -0.206 F 
HETATM   16  C   UNL     1      44.089 -18.937   2.076  1.00  0.00     0.044 A 
HETATM   17  C   UNL     1      43.793 -17.768   2.780  1.00  0.00     0.032 A 
ENDBRANCH   8  11
ENDBRANCH   6   7
ENDBRANCH   3   6
ENDBRANCH   1   2
BRANCH   1  18
HETATM   18  O   UNL     1      41.448 -12.649   1.798  1.00  0.00    -0.308 OA
BRANCH  18  19
HETATM   19  C   UNL     1      40.324 -13.214   1.295  1.00  0.00     0.295 C 
HETATM   20  O   UNL     1      39.277 -12.643   1.033  1.00  0.00    -0.259 OA
BRANCH  19  21
HETATM   21  C   UNL     1      40.550 -14.668   1.100  1.00  0.00     0.060 A 
HETATM   22  C   UNL     1      41.278 -15.141  -0.015  1.00  0.00     0.025 A 
HETATM   23  C   UNL     1      41.429 -16.534  -0.129  1.00  0.00     0.024 A 
HETATM   24  C   UNL     1      40.954 -17.411   0.856  1.00  0.00     0.002 A 
HETATM   25  C   UNL     1      40.287 -16.919   1.971  1.00  0.00     0.001 A 
HETATM   26  C   UNL     1      40.080 -15.550   2.093  1.00  0.00     0.019 A 
BRANCH  22  27
HETATM   27  N   UNL     1      41.688 -14.260  -1.033  1.00  0.00    -0.286 NA
HETATM   28  H   UNL     1      42.623 -13.893  -0.832  1.00  0.00     0.128 HD
BRANCH  27  29
HETATM   29  C   UNL     1      41.549 -14.650  -2.437  1.00  0.00     0.157 C 
BRANCH  29  30
HETATM   30  C   UNL     1      40.145 -14.839  -2.906  1.00  0.00     0.065 A 
HETATM   31  O   UNL     1      39.972 -15.736  -3.924  1.00  0.00    -0.326 OA
HETATM   32  C   UNL     1      38.645 -15.775  -4.203  1.00  0.00     0.142 A 
HETATM   33  C   UNL     1      37.956 -14.911  -3.385  1.00  0.00     0.027 A 
HETATM   34  C   UNL     1      38.923 -14.305  -2.547  1.00  0.00     0.036 A 
ENDBRANCH  29  30
ENDBRANCH  27  29
ENDBRANCH  22  27
ENDBRANCH  19  21
ENDBRANCH  18  19
ENDBRANCH   1  18
TORSDOF 10
ENDMDL
MODEL 7
REMARK VINA RESULT:      -7.9      2.981      7.455
REMARK  10 active torsions:
REMARK  status: ('A' for Active; 'I' for Inactive)
REMARK       I    between atoms: N_2  and  C_3 
REMARK    1  A    between atoms: N_2  and  C_22 
REMARK    2  A    between atoms: C_3  and  C_4 
REMARK    3  A    between atoms: C_4  and  O_5 
REMARK    4  A    between atoms: O_5  and  C_6 
REMARK    5  A    between atoms: C_6  and  C_7 
REMARK    6  A    between atoms: C_8  and  N_9 
REMARK    7  A    between atoms: N_9  and  C_10 
REMARK    8  A    between atoms: C_10  and  C_11 
REMARK    9  A    between atoms: C_22  and  C_23 
REMARK       I    between atoms: C_23  and  N_24 
REMARK   10  A    between atoms: N_24  and  C_25 
ROOT
HETATM    1  C   UNL     1      42.119 -12.936   2.772  1.00  0.00     0.281 C 
ENDROOT
BRANCH   1   2
HETATM    2  C   UNL     1      43.022 -13.731   3.719  1.00  0.00     0.244 C 
HETATM    3  N   UNL     1      42.423 -14.540   4.679  1.00  0.00    -0.346 N 
HETATM    4  C   UNL     1      41.016 -14.915   4.663  1.00  0.00     0.153 C 
HETATM    5  O   UNL     1      44.255 -13.699   3.613  1.00  0.00    -0.271 OA
BRANCH   3   6
HETATM    6  C   UNL     1      43.298 -15.332   5.551  1.00  0.00     0.228 C 
BRANCH   6   7
HETATM    7  C   UNL     1      43.168 -16.838   5.285  1.00  0.00     0.240 C 
HETATM    8  N   UNL     1      43.825 -17.230   4.130  1.00  0.00    -0.326 N 
HETATM    9  H   UNL     1      44.260 -16.475   3.595  1.00  0.00     0.169 HD
HETATM   10  O   UNL     1      42.520 -17.556   6.041  1.00  0.00    -0.271 OA
BRANCH   8  11
HETATM   11  C   UNL     1      43.905 -18.520   3.573  1.00  0.00     0.035 A 
HETATM   12  C   UNL     1      44.603 -19.580   4.158  1.00  0.00     0.032 A 
HETATM   13  C   UNL     1      44.635 -20.832   3.537  1.00  0.00     0.044 A 
HETATM   14  C   UNL     1      43.966 -21.023   2.335  1.00  0.00     0.116 A 
HETATM   15  F   UNL     1      43.996 -22.224   1.743  1.00  0.00    -0.206 F 
HETATM   16  C   UNL     1      43.269 -19.981   1.737  1.00  0.00     0.044 A 
HETATM   17  C   UNL     1      43.242 -18.729   2.354  1.00  0.00     0.032 A 
ENDBRANCH   8  11
ENDBRANCH   6   7
ENDBRANCH   3   6
ENDBRANCH   1   2
BRANCH   1  18
HETATM   18  O   UNL     1      42.390 -13.329   1.423  1.00  0.00    -0.308 OA
BRANCH  18  19
HETATM   19  C   UNL     1      41.742 -14.440   0.997  1.00  0.00     0.295 C 
HETATM   20  O   UNL     1      42.220 -15.557   0.869  1.00  0.00    -0.259 OA
BRANCH  19  21
HETATM   21  C   UNL     1      40.328 -14.101   0.697  1.00  0.00     0.060 A 
HETATM   22  C   UNL     1      40.005 -13.263  -0.394  1.00  0.00     0.025 A 
HETATM   23  C   UNL     1      38.642 -12.981  -0.593  1.00  0.00     0.024 A 
HETATM   24  C   UNL     1      37.644 -13.565   0.198  1.00  0.00     0.002 A 
HETATM   25  C   UNL     1      37.983 -14.428   1.232  1.00  0.00     0.001 A 
HETATM   26  C   UNL     1      39.324 -14.693   1.486  1.00  0.00     0.019 A 
BRANCH  22  27
HETATM   27  N   UNL     1      41.015 -12.625  -1.136  1.00  0.00    -0.286 NA
HETATM   28  H   UNL     1      41.889 -12.601  -0.602  1.00  0.00     0.128 HD
BRANCH  27  29
HETATM   29  C   UNL     1      41.244 -12.997  -2.533  1.00  0.00     0.157 C 
BRANCH  29  30
HETATM   30  C   UNL     1      40.643 -14.298  -2.948  1.00  0.00     0.065 A 
HETATM   31  O   UNL     1      39.519 -14.216  -3.723  1.00  0.00    -0.326 OA
HETATM   32  C   UNL     1      39.130 -15.485  -4.001  1.00  0.00     0.142 A 
HETATM   33  C   UNL     1      39.981 -16.389  -3.411  1.00  0.00     0.027 A 
HETATM   34  C   UNL     1      40.959 -15.625  -2.730  1.00  0.00     0.036 A 
ENDBRANCH  29  30
ENDBRANCH  27  29
ENDBRANCH  22  27
ENDBRANCH  19  21
ENDBRANCH  18  19
ENDBRANCH   1  18
TORSDOF 10
ENDMDL
MODEL 8
REMARK VINA RESULT:      -7.9      2.774      6.548
REMARK  10 active torsions:
REMARK  status: ('A' for Active; 'I' for Inactive)
REMARK       I    between atoms: N_2  and  C_3 
REMARK    1  A    between atoms: N_2  and  C_22 
REMARK    2  A    between atoms: C_3  and  C_4 
REMARK    3  A    between atoms: C_4  and  O_5 
REMARK    4  A    between atoms: O_5  and  C_6 
REMARK    5  A    between atoms: C_6  and  C_7 
REMARK    6  A    between atoms: C_8  and  N_9 
REMARK    7  A    between atoms: N_9  and  C_10 
REMARK    8  A    between atoms: C_10  and  C_11 
REMARK    9  A    between atoms: C_22  and  C_23 
REMARK       I    between atoms: C_23  and  N_24 
REMARK   10  A    between atoms: N_24  and  C_25 
ROOT
HETATM    1  C   UNL     1      41.927 -14.073   5.708  1.00  0.00     0.281 C 
ENDROOT
BRANCH   1   2
HETATM    2  C   UNL     1      42.294 -15.447   6.276  1.00  0.00     0.244 C 
HETATM    3  N   UNL     1      43.586 -15.641   6.752  1.00  0.00    -0.346 N 
HETATM    4  C   UNL     1      44.524 -14.561   7.022  1.00  0.00     0.153 C 
HETATM    5  O   UNL     1      41.457 -16.355   6.357  1.00  0.00    -0.271 OA
BRANCH   3   6
HETATM    6  C   UNL     1      43.913 -16.948   7.335  1.00  0.00     0.228 C 
BRANCH   6   7
HETATM    7  C   UNL     1      44.583 -17.882   6.319  1.00  0.00     0.240 C 
HETATM    8  N   UNL     1      43.665 -18.539   5.517  1.00  0.00    -0.326 N 
HETATM    9  H   UNL     1      42.684 -18.355   5.733  1.00  0.00     0.169 HD
HETATM   10  O   UNL     1      45.805 -18.003   6.288  1.00  0.00    -0.271 OA
BRANCH   8  11
HETATM   11  C   UNL     1      43.918 -19.473   4.495  1.00  0.00     0.035 A 
HETATM   12  C   UNL     1      44.534 -20.710   4.703  1.00  0.00     0.032 A 
HETATM   13  C   UNL     1      44.749 -21.581   3.631  1.00  0.00     0.044 A 
HETATM   14  C   UNL     1      44.345 -21.215   2.353  1.00  0.00     0.116 A 
HETATM   15  F   UNL     1      44.550 -22.051   1.328  1.00  0.00    -0.206 F 
HETATM   16  C   UNL     1      43.732 -19.990   2.126  1.00  0.00     0.044 A 
HETATM   17  C   UNL     1      43.523 -19.117   3.196  1.00  0.00     0.032 A 
ENDBRANCH   8  11
ENDBRANCH   6   7
ENDBRANCH   3   6
ENDBRANCH   1   2
BRANCH   1  18
HETATM   18  O   UNL     1      42.159 -14.071   4.296  1.00  0.00    -0.308 OA
BRANCH  18  19
HETATM   19  C   UNL     1      41.049 -13.994   3.521  1.00  0.00     0.295 C 
HETATM   20  O   UNL     1      40.109 -13.231   3.673  1.00  0.00    -0.259 OA
BRANCH  19  21
HETATM   21  C   UNL     1      41.140 -14.997   2.431  1.00  0.00     0.060 A 
HETATM   22  C   UNL     1      41.717 -14.657   1.186  1.00  0.00     0.025 A 
HETATM   23  C   UNL     1      41.746 -15.665   0.206  1.00  0.00     0.024 A 
HETATM   24  C   UNL     1      41.301 -16.966   0.471  1.00  0.00     0.002 A 
HETATM   25  C   UNL     1      40.786 -17.292   1.720  1.00  0.00     0.001 A 
HETATM   26  C   UNL     1      40.700 -16.308   2.699  1.00  0.00     0.019 A 
BRANCH  22  27
HETATM   27  N   UNL     1      42.094 -13.331   0.906  1.00  0.00    -0.286 NA
HETATM   28  H   UNL     1      43.071 -13.295   0.600  1.00  0.00     0.128 HD
BRANCH  27  29
HETATM   29  C   UNL     1      41.235 -12.486   0.075  1.00  0.00     0.157 C 
BRANCH  29  30
HETATM   30  C   UNL     1      41.636 -12.390  -1.360  1.00  0.00     0.065 A 
HETATM   31  O   UNL     1      40.872 -13.102  -2.242  1.00  0.00    -0.326 OA
HETATM   32  C   UNL     1      41.382 -12.885  -3.480  1.00  0.00     0.142 A 
HETATM   33  C   UNL     1      42.471 -12.049  -3.411  1.00  0.00     0.027 A 
HETATM   34  C   UNL     1      42.638 -11.729  -2.042  1.00  0.00     0.036 A 
ENDBRANCH  29  30
ENDBRANCH  27  29
ENDBRANCH  22  27
ENDBRANCH  19  21
ENDBRANCH  18  19
ENDBRANCH   1  18
TORSDOF 10
ENDMDL
MODEL 9
REMARK VINA RESULT:      -7.8      3.202      6.885
REMARK  10 active torsions:
REMARK  status: ('A' for Active; 'I' for Inactive)
REMARK       I    between atoms: N_2  and  C_3 
REMARK    1  A    between atoms: N_2  and  C_22 
REMARK    2  A    between atoms: C_3  and  C_4 
REMARK    3  A    between atoms: C_4  and  O_5 
REMARK    4  A    between atoms: O_5  and  C_6 
REMARK    5  A    between atoms: C_6  and  C_7 
REMARK    6  A    between atoms: C_8  and  N_9 
REMARK    7  A    between atoms: N_9  and  C_10 
REMARK    8  A    between atoms: C_10  and  C_11 
REMARK    9  A    between atoms: C_22  and  C_23 
REMARK       I    between atoms: C_23  and  N_24 
REMARK   10  A    between atoms: N_24  and  C_25 
ROOT
HETATM    1  C   UNL     1      41.997 -13.022   2.713  1.00  0.00     0.281 C 
ENDROOT
BRANCH   1   2
HETATM    2  C   UNL     1      42.906 -13.754   3.705  1.00  0.00     0.244 C 
HETATM    3  N   UNL     1      42.312 -14.492   4.723  1.00  0.00    -0.346 N 
HETATM    4  C   UNL     1      40.904 -14.862   4.744  1.00  0.00     0.153 C 
HETATM    5  O   UNL     1      44.137 -13.734   3.587  1.00  0.00    -0.271 OA
BRANCH   3   6
HETATM    6  C   UNL     1      43.192 -15.226   5.641  1.00  0.00     0.228 C 
BRANCH   6   7
HETATM    7  C   UNL     1      43.158 -16.739   5.386  1.00  0.00     0.240 C 
HETATM    8  N   UNL     1      43.742 -17.086   4.178  1.00  0.00    -0.326 N 
HETATM    9  H   UNL     1      44.069 -16.303   3.609  1.00  0.00     0.169 HD
HETATM   10  O   UNL     1      42.636 -17.501   6.195  1.00  0.00    -0.271 OA
BRANCH   8  11
HETATM   11  C   UNL     1      43.875 -18.369   3.617  1.00  0.00     0.035 A 
HETATM   12  C   UNL     1      43.285 -18.759   2.411  1.00  0.00     0.032 A 
HETATM   13  C   UNL     1      43.467 -20.056   1.922  1.00  0.00     0.044 A 
HETATM   14  C   UNL     1      44.241 -20.960   2.639  1.00  0.00     0.116 A 
HETATM   15  F   UNL     1      44.416 -22.201   2.168  1.00  0.00    -0.206 F 
HETATM   16  C   UNL     1      44.834 -20.592   3.839  1.00  0.00     0.044 A 
HETATM   17  C   UNL     1      44.648 -19.299   4.330  1.00  0.00     0.032 A 
ENDBRANCH   8  11
ENDBRANCH   6   7
ENDBRANCH   3   6
ENDBRANCH   1   2
BRANCH   1  18
HETATM   18  O   UNL     1      42.244 -13.519   1.394  1.00  0.00    -0.308 OA
BRANCH  18  19
HETATM   19  C   UNL     1      41.526 -14.611   1.037  1.00  0.00     0.295 C 
HETATM   20  O   UNL     1      41.705 -15.756   1.420  1.00  0.00    -0.259 OA
BRANCH  19  21
HETATM   21  C   UNL     1      40.459 -14.208   0.086  1.00  0.00     0.060 A 
HETATM   22  C   UNL     1      40.771 -13.904  -1.258  1.00  0.00     0.025 A 
HETATM   23  C   UNL     1      39.700 -13.516  -2.084  1.00  0.00     0.024 A 
HETATM   24  C   UNL     1      38.377 -13.509  -1.623  1.00  0.00     0.002 A 
HETATM   25  C   UNL     1      38.089 -13.863  -0.311  1.00  0.00     0.001 A 
HETATM   26  C   UNL     1      39.128 -14.208   0.546  1.00  0.00     0.019 A 
BRANCH  22  27
HETATM   27  N   UNL     1      42.107 -13.843  -1.692  1.00  0.00    -0.286 NA
HETATM   28  H   UNL     1      42.474 -14.787  -1.851  1.00  0.00     0.128 HD
BRANCH  27  29
HETATM   29  C   UNL     1      42.488 -12.926  -2.766  1.00  0.00     0.157 C 
BRANCH  29  30
HETATM   30  C   UNL     1      42.793 -11.531  -2.331  1.00  0.00     0.065 A 
HETATM   31  O   UNL     1      43.297 -11.398  -1.067  1.00  0.00    -0.326 OA
HETATM   32  C   UNL     1      43.514 -10.075  -0.860  1.00  0.00     0.142 A 
HETATM   33  C   UNL     1      43.150  -9.348  -1.968  1.00  0.00     0.027 A 
HETATM   34  C   UNL     1      42.683 -10.287  -2.920  1.00  0.00     0.036 A 
ENDBRANCH  29  30
ENDBRANCH  27  29
ENDBRANCH  22  27
ENDBRANCH  19  21
ENDBRANCH  18  19
ENDBRANCH   1  18
TORSDOF 10
ENDMDL
MODEL 10
REMARK VINA RESULT:      -7.8      4.199      9.223
REMARK  10 active torsions:
REMARK  status: ('A' for Active; 'I' for Inactive)
REMARK       I    between atoms: N_2  and  C_3 
REMARK    1  A    between atoms: N_2  and  C_22 
REMARK    2  A    between atoms: C_3  and  C_4 
REMARK    3  A    between atoms: C_4  and  O_5 
REMARK    4  A    between atoms: O_5  and  C_6 
REMARK    5  A    between atoms: C_6  and  C_7 
REMARK    6  A    between atoms: C_8  and  N_9 
REMARK    7  A    between atoms: N_9  and  C_10 
REMARK    8  A    between atoms: C_10  and  C_11 
REMARK    9  A    between atoms: C_22  and  C_23 
REMARK       I    between atoms: C_23  and  N_24 
REMARK   10  A    between atoms: N_24  and  C_25 
ROOT
HETATM    1  C   UNL     1      41.858 -12.017   4.905  1.00  0.00     0.281 C 
ENDROOT
BRANCH   1   2
HETATM    2  C   UNL     1      40.816 -12.205   6.012  1.00  0.00     0.244 C 
HETATM    3  N   UNL     1      40.682 -11.204   6.969  1.00  0.00    -0.346 N 
HETATM    4  C   UNL     1      41.243  -9.868   6.832  1.00  0.00     0.153 C 
HETATM    5  O   UNL     1      40.076 -13.197   6.040  1.00  0.00    -0.271 OA
BRANCH   3   6
HETATM    6  C   UNL     1      39.650 -11.375   7.999  1.00  0.00     0.228 C 
BRANCH   6   7
HETATM    7  C   UNL     1      39.988 -10.610   9.286  1.00  0.00     0.240 C 
HETATM    8  N   UNL     1      41.013 -11.206  10.002  1.00  0.00    -0.326 N 
HETATM    9  H   UNL     1      41.370 -12.080   9.612  1.00  0.00     0.169 HD
HETATM   10  O   UNL     1      39.364  -9.600   9.599  1.00  0.00    -0.271 OA
BRANCH   8  11
HETATM   11  C   UNL     1      41.571 -10.792  11.226  1.00  0.00     0.035 A 
HETATM   12  C   UNL     1      40.963 -10.994  12.469  1.00  0.00     0.032 A 
HETATM   13  C   UNL     1      41.585 -10.550  13.640  1.00  0.00     0.044 A 
HETATM   14  C   UNL     1      42.814  -9.906  13.566  1.00  0.00     0.116 A 
HETATM   15  F   UNL     1      43.409  -9.483  14.688  1.00  0.00    -0.206 F 
HETATM   16  C   UNL     1      43.433  -9.695  12.341  1.00  0.00     0.044 A 
HETATM   17  C   UNL     1      42.809 -10.133  11.171  1.00  0.00     0.032 A 
ENDBRANCH   8  11
ENDBRANCH   6   7
ENDBRANCH   3   6
ENDBRANCH   1   2
BRANCH   1  18
HETATM   18  O   UNL     1      41.971 -13.230   4.155  1.00  0.00    -0.308 OA
BRANCH  18  19
HETATM   19  C   UNL     1      43.159 -13.873   4.259  1.00  0.00     0.295 C 
HETATM   20  O   UNL     1      44.164 -13.655   3.600  1.00  0.00    -0.259 OA
BRANCH  19  21
HETATM   21  C   UNL     1      43.067 -14.910   5.318  1.00  0.00     0.060 A 
HETATM   22  C   UNL     1      42.076 -15.916   5.254  1.00  0.00     0.025 A 
HETATM   23  C   UNL     1      42.051 -16.847   6.308  1.00  0.00     0.024 A 
HETATM   24  C   UNL     1      43.010 -16.831   7.330  1.00  0.00     0.002 A 
HETATM   25  C   UNL     1      44.007 -15.863   7.343  1.00  0.00     0.001 A 
HETATM   26  C   UNL     1      44.034 -14.900   6.341  1.00  0.00     0.019 A 
BRANCH  22  27
HETATM   27  N   UNL     1      41.076 -15.881   4.266  1.00  0.00    -0.286 NA
HETATM   28  H   UNL     1      41.040 -14.956   3.828  1.00  0.00     0.128 HD
BRANCH  27  29
HETATM   29  C   UNL     1      40.989 -16.954   3.274  1.00  0.00     0.157 C 
BRANCH  29  30
HETATM   30  C   UNL     1      42.261 -17.257   2.555  1.00  0.00     0.065 A 
HETATM   31  O   UNL     1      42.865 -18.438   2.885  1.00  0.00    -0.326 OA
HETATM   32  C   UNL     1      43.989 -18.538   2.131  1.00  0.00     0.142 A 
HETATM   33  C   UNL     1      44.125 -17.434   1.323  1.00  0.00     0.027 A 
HETATM   34  C   UNL     1      43.010 -16.605   1.596  1.00  0.00     0.036 A 
ENDBRANCH  29  30
ENDBRANCH  27  29
ENDBRANCH  22  27
ENDBRANCH  19  21
ENDBRANCH  18  19
ENDBRANCH   1  18
TORSDOF 10
ENDMDL
