MODEL 1
REMARK VINA RESULT:      -8.6      0.000      0.000
REMARK  5 active torsions:
REMARK  status: ('A' for Active; 'I' for Inactive)
REMARK    1  A    between atoms: C_6  and  C_7 
REMARK    2  A    between atoms: C_7  and  C_8 
REMARK       I    between atoms: C_8  and  N_9 
REMARK    3  A    between atoms: N_9  and  C_10 
REMARK    4  A    between atoms: C_11  and  O_12 
REMARK    5  A    between atoms: O_12  and  C_13 
ROOT
HETATM    1  C   UNL     1      42.361 -17.344   4.457  1.00  0.00     0.069 A 
HETATM    2  C   UNL     1      43.450 -17.985   5.065  1.00  0.00     0.102 A 
HETATM    3  C   UNL     1      43.531 -18.066   6.469  1.00  0.00     0.039 A 
HETATM    4  C   UNL     1      42.520 -17.548   7.274  1.00  0.00     0.003 A 
HETATM    5  C   UNL     1      41.429 -16.923   6.684  1.00  0.00     0.002 A 
HETATM    6  C   UNL     1      41.356 -16.819   5.293  1.00  0.00     0.032 A 
ENDROOT
BRANCH   1   7
HETATM    7  N   UNL     1      42.101 -17.200   3.075  1.00  0.00    -0.324 N 
HETATM    8  C   UNL     1      42.875 -16.687   2.048  1.00  0.00     0.228 C 
HETATM    9  O   UNL     1      43.889 -16.005   2.146  1.00  0.00    -0.273 OA
HETATM   10  H   UNL     1      41.225 -17.615   2.759  1.00  0.00     0.169 HD
BRANCH   8  11
HETATM   11  C   UNL     1      42.313 -16.997   0.663  1.00  0.00     0.164 C 
BRANCH  11  12
HETATM   12  C   UNL     1      41.345 -15.952   0.216  1.00  0.00     0.065 A 
HETATM   13  N   UNL     1      40.404 -15.506   1.063  1.00  0.00    -0.179 NA
HETATM   14  N   UNL     1      39.692 -14.636   0.327  1.00  0.00    -0.282 N 
HETATM   15  C   UNL     1      40.076 -14.589  -0.985  1.00  0.00     0.026 A 
HETATM   16  H   UNL     1      38.933 -14.131   0.776  1.00  0.00     0.189 HD
HETATM   17  C   UNL     1      39.359 -13.786  -1.999  1.00  0.00     0.070 C 
HETATM   18  C   UNL     1      41.176 -15.412  -1.079  1.00  0.00     0.055 A 
ENDBRANCH  11  12
ENDBRANCH   8  11
ENDBRANCH   1   7
BRANCH   2  19
HETATM   19  O   UNL     1      44.509 -18.472   4.343  1.00  0.00    -0.308 OA
BRANCH  19  20
HETATM   20  C   UNL     1      44.475 -19.802   3.980  1.00  0.00     0.082 A 
HETATM   21  C   UNL     1      44.136 -20.248   2.701  1.00  0.00     0.079 A 
HETATM   22  C   UNL     1      44.182 -21.610   2.421  1.00  0.00     0.122 A 
HETATM   23  F   UNL     1      43.857 -22.042   1.196  1.00  0.00    -0.206 F 
HETATM   24  C   UNL     1      44.568 -22.532   3.387  1.00  0.00     0.084 A 
HETATM   25  C   UNL     1      44.921 -22.071   4.647  1.00  0.00     0.122 A 
HETATM   26  F   UNL     1      45.305 -22.947   5.584  1.00  0.00    -0.206 F 
HETATM   27  C   UNL     1      44.886 -20.714   4.952  1.00  0.00     0.079 A 
ENDBRANCH  19  20
ENDBRANCH   2  19
TORSDOF 5
ENDMDL
MODEL 2
REMARK VINA RESULT:      -8.5      3.397      6.468
REMARK  5 active torsions:
REMARK  status: ('A' for Active; 'I' for Inactive)
REMARK    1  A    between atoms: C_6  and  C_7 
REMARK    2  A    between atoms: C_7  and  C_8 
REMARK       I    between atoms: C_8  and  N_9 
REMARK    3  A    between atoms: N_9  and  C_10 
REMARK    4  A    between atoms: C_11  and  O_12 
REMARK    5  A    between atoms: O_12  and  C_13 
ROOT
HETATM    1  C   UNL     1      44.459 -20.321   4.506  1.00  0.00     0.069 A 
HETATM    2  C   UNL     1      44.416 -19.931   3.160  1.00  0.00     0.102 A 
HETATM    3  C   UNL     1      44.486 -20.898   2.139  1.00  0.00     0.039 A 
HETATM    4  C   UNL     1      44.561 -22.255   2.444  1.00  0.00     0.003 A 
HETATM    5  C   UNL     1      44.591 -22.656   3.773  1.00  0.00     0.002 A 
HETATM    6  C   UNL     1      44.546 -21.698   4.790  1.00  0.00     0.032 A 
ENDROOT
BRANCH   1   7
HETATM    7  N   UNL     1      44.368 -19.496   5.651  1.00  0.00    -0.324 N 
HETATM    8  C   UNL     1      44.021 -19.785   6.960  1.00  0.00     0.228 C 
HETATM    9  O   UNL     1      43.465 -20.794   7.380  1.00  0.00    -0.273 OA
HETATM   10  H   UNL     1      44.690 -18.539   5.515  1.00  0.00     0.169 HD
BRANCH   8  11
HETATM   11  C   UNL     1      44.342 -18.650   7.929  1.00  0.00     0.164 C 
BRANCH  11  12
HETATM   12  C   UNL     1      43.788 -17.348   7.453  1.00  0.00     0.065 A 
HETATM   13  N   UNL     1      42.460 -17.172   7.378  1.00  0.00    -0.179 NA
HETATM   14  N   UNL     1      42.325 -15.936   6.869  1.00  0.00    -0.282 N 
HETATM   15  C   UNL     1      43.513 -15.358   6.518  1.00  0.00     0.026 A 
HETATM   16  H   UNL     1      41.388 -15.560   6.756  1.00  0.00     0.189 HD
HETATM   17  C   UNL     1      43.594 -14.048   5.837  1.00  0.00     0.070 C 
HETATM   18  C   UNL     1      44.489 -16.243   6.920  1.00  0.00     0.055 A 
ENDBRANCH  11  12
ENDBRANCH   8  11
ENDBRANCH   1   7
BRANCH   2  19
HETATM   19  O   UNL     1      44.397 -18.613   2.779  1.00  0.00    -0.308 OA
BRANCH  19  20
HETATM   20  C   UNL     1      43.166 -18.013   2.622  1.00  0.00     0.082 A 
HETATM   21  C   UNL     1      42.404 -17.515   3.682  1.00  0.00     0.079 A 
HETATM   22  C   UNL     1      41.195 -16.881   3.413  1.00  0.00     0.122 A 
HETATM   23  F   UNL     1      40.463 -16.403   4.426  1.00  0.00    -0.206 F 
HETATM   24  C   UNL     1      40.738 -16.726   2.109  1.00  0.00     0.084 A 
HETATM   25  C   UNL     1      41.515 -17.208   1.066  1.00  0.00     0.122 A 
HETATM   26  F   UNL     1      41.091 -17.055  -0.195  1.00  0.00    -0.206 F 
HETATM   27  C   UNL     1      42.728 -17.844   1.308  1.00  0.00     0.079 A 
ENDBRANCH  19  20
ENDBRANCH   2  19
TORSDOF 5
ENDMDL
MODEL 3
REMARK VINA RESULT:      -8.4      1.220      2.149
REMARK  5 active torsions:
REMARK  status: ('A' for Active; 'I' for Inactive)
REMARK    1  A    between atoms: C_6  and  C_7 
REMARK    2  A    between atoms: C_7  and  C_8 
REMARK       I    between atoms: C_8  and  N_9 
REMARK    3  A    between atoms: N_9  and  C_10 
REMARK    4  A    between atoms: C_11  and  O_12 
REMARK    5  A    between atoms: O_12  and  C_13 
ROOT
HETATM    1  C   UNL     1      42.523 -17.521   5.407  1.00  0.00     0.069 A 
HETATM    2  C   UNL     1      43.795 -18.103   5.315  1.00  0.00     0.102 A 
HETATM    3  C   UNL     1      44.602 -18.227   6.462  1.00  0.00     0.039 A 
HETATM    4  C   UNL     1      44.140 -17.810   7.709  1.00  0.00     0.003 A 
HETATM    5  C   UNL     1      42.877 -17.244   7.816  1.00  0.00     0.002 A 
HETATM    6  C   UNL     1      42.082 -17.098   6.676  1.00  0.00     0.032 A 
ENDROOT
BRANCH   1   7
HETATM    7  N   UNL     1      41.572 -17.348   4.374  1.00  0.00    -0.324 N 
HETATM    8  C   UNL     1      41.460 -16.383   3.388  1.00  0.00     0.228 C 
HETATM    9  O   UNL     1      42.032 -15.300   3.334  1.00  0.00    -0.273 OA
HETATM   10  H   UNL     1      40.896 -18.105   4.285  1.00  0.00     0.169 HD
BRANCH   8  11
HETATM   11  C   UNL     1      40.448 -16.749   2.305  1.00  0.00     0.164 C 
BRANCH  11  12
HETATM   12  C   UNL     1      40.772 -16.089   1.005  1.00  0.00     0.065 A 
HETATM   13  N   UNL     1      41.704 -16.619   0.199  1.00  0.00    -0.179 NA
HETATM   14  N   UNL     1      41.774 -15.756  -0.829  1.00  0.00    -0.282 N 
HETATM   15  C   UNL     1      40.999 -14.643  -0.658  1.00  0.00     0.026 A 
HETATM   16  H   UNL     1      42.398 -15.973  -1.600  1.00  0.00     0.189 HD
HETATM   17  C   UNL     1      41.007 -13.510  -1.609  1.00  0.00     0.070 C 
HETATM   18  C   UNL     1      40.306 -14.849   0.514  1.00  0.00     0.055 A 
ENDBRANCH  11  12
ENDBRANCH   8  11
ENDBRANCH   1   7
BRANCH   2  19
HETATM   19  O   UNL     1      44.340 -18.488   4.117  1.00  0.00    -0.308 OA
BRANCH  19  20
HETATM   20  C   UNL     1      44.477 -19.840   3.884  1.00  0.00     0.082 A 
HETATM   21  C   UNL     1      44.860 -20.760   4.862  1.00  0.00     0.079 A 
HETATM   22  C   UNL     1      44.920 -22.113   4.539  1.00  0.00     0.122 A 
HETATM   23  F   UNL     1      45.288 -22.998   5.474  1.00  0.00    -0.206 F 
HETATM   24  C   UNL     1      44.596 -22.564   3.265  1.00  0.00     0.084 A 
HETATM   25  C   UNL     1      44.198 -21.639   2.310  1.00  0.00     0.122 A 
HETATM   26  F   UNL     1      43.873 -22.061   1.081  1.00  0.00    -0.206 F 
HETATM   27  C   UNL     1      44.128 -20.282   2.608  1.00  0.00     0.079 A 
ENDBRANCH  19  20
ENDBRANCH   2  19
TORSDOF 5
ENDMDL
MODEL 4
REMARK VINA RESULT:      -8.3      2.463      4.494
REMARK  5 active torsions:
REMARK  status: ('A' for Active; 'I' for Inactive)
REMARK    1  A    between atoms: C_6  and  C_7 
REMARK    2  A    between atoms: C_7  and  C_8 
REMARK       I    between atoms: C_8  and  N_9 
REMARK    3  A    between atoms: N_9  and  C_10 
REMARK    4  A    between atoms: C_11  and  O_12 
REMARK    5  A    between atoms: O_12  and  C_13 
ROOT
HETATM    1  C   UNL     1      43.381 -19.583   2.386  1.00  0.00     0.069 A 
HETATM    2  C   UNL     1      44.326 -19.511   3.419  1.00  0.00     0.102 A 
HETATM    3  C   UNL     1      44.968 -20.678   3.876  1.00  0.00     0.039 A 
HETATM    4  C   UNL     1      44.706 -21.914   3.289  1.00  0.00     0.003 A 
HETATM    5  C   UNL     1      43.782 -21.998   2.256  1.00  0.00     0.002 A 
HETATM    6  C   UNL     1      43.125 -20.846   1.815  1.00  0.00     0.032 A 
ENDROOT
BRANCH   1   7
HETATM    7  N   UNL     1      42.670 -18.519   1.784  1.00  0.00    -0.324 N 
HETATM    8  C   UNL     1      43.110 -17.383   1.126  1.00  0.00     0.228 C 
HETATM    9  O   UNL     1      44.240 -16.909   1.128  1.00  0.00    -0.273 OA
HETATM   10  H   UNL     1      41.659 -18.643   1.756  1.00  0.00     0.169 HD
BRANCH   8  11
HETATM   11  C   UNL     1      41.995 -16.656   0.378  1.00  0.00     0.164 C 
BRANCH  11  12
HETATM   12  C   UNL     1      41.114 -15.893   1.312  1.00  0.00     0.065 A 
HETATM   13  N   UNL     1      40.164 -16.534   2.009  1.00  0.00    -0.179 NA
HETATM   14  N   UNL     1      39.541 -15.554   2.686  1.00  0.00    -0.282 N 
HETATM   15  C   UNL     1      39.988 -14.303   2.365  1.00  0.00     0.026 A 
HETATM   16  H   UNL     1      38.795 -15.809   3.325  1.00  0.00     0.189 HD
HETATM   17  C   UNL     1      39.369 -13.072   2.904  1.00  0.00     0.070 C 
HETATM   18  C   UNL     1      41.039 -14.494   1.496  1.00  0.00     0.055 A 
ENDBRANCH  11  12
ENDBRANCH   8  11
ENDBRANCH   1   7
BRANCH   2  19
HETATM   19  O   UNL     1      44.598 -18.341   4.082  1.00  0.00    -0.308 OA
BRANCH  19  20
HETATM   20  C   UNL     1      43.995 -18.148   5.307  1.00  0.00     0.082 A 
HETATM   21  C   UNL     1      44.580 -18.506   6.524  1.00  0.00     0.079 A 
HETATM   22  C   UNL     1      43.911 -18.222   7.711  1.00  0.00     0.122 A 
HETATM   23  F   UNL     1      44.469 -18.565   8.879  1.00  0.00    -0.206 F 
HETATM   24  C   UNL     1      42.678 -17.580   7.707  1.00  0.00     0.084 A 
HETATM   25  C   UNL     1      42.120 -17.213   6.491  1.00  0.00     0.122 A 
HETATM   26  F   UNL     1      40.938 -16.584   6.474  1.00  0.00    -0.206 F 
HETATM   27  C   UNL     1      42.769 -17.484   5.291  1.00  0.00     0.079 A 
ENDBRANCH  19  20
ENDBRANCH   2  19
TORSDOF 5
ENDMDL
MODEL 5
REMARK VINA RESULT:      -8.3      3.113      4.944
REMARK  5 active torsions:
REMARK  status: ('A' for Active; 'I' for Inactive)
REMARK    1  A    between atoms: C_6  and  C_7 
REMARK    2  A    between atoms: C_7  and  C_8 
REMARK       I    between atoms: C_8  and  N_9 
REMARK    3  A    between atoms: N_9  and  C_10 
REMARK    4  A    between atoms: C_11  and  O_12 
REMARK    5  A    between atoms: O_12  and  C_13 
ROOT
HETATM    1  C   UNL     1      43.289 -18.852   3.455  1.00  0.00     0.069 A 
HETATM    2  C   UNL     1      43.139 -18.828   4.849  1.00  0.00     0.102 A 
HETATM    3  C   UNL     1      43.876 -19.714   5.658  1.00  0.00     0.039 A 
HETATM    4  C   UNL     1      44.791 -20.601   5.094  1.00  0.00     0.003 A 
HETATM    5  C   UNL     1      44.959 -20.626   3.716  1.00  0.00     0.002 A 
HETATM    6  C   UNL     1      44.212 -19.765   2.909  1.00  0.00     0.032 A 
ENDROOT
BRANCH   1   7
HETATM    7  N   UNL     1      42.661 -18.019   2.501  1.00  0.00    -0.324 N 
HETATM    8  C   UNL     1      43.004 -16.771   2.010  1.00  0.00     0.228 C 
HETATM    9  O   UNL     1      43.814 -15.980   2.480  1.00  0.00    -0.273 OA
HETATM   10  H   UNL     1      41.860 -18.438   2.029  1.00  0.00     0.169 HD
BRANCH   8  11
HETATM   11  C   UNL     1      42.200 -16.372   0.775  1.00  0.00     0.164 C 
BRANCH  11  12
HETATM   12  C   UNL     1      40.854 -15.840   1.142  1.00  0.00     0.065 A 
HETATM   13  N   UNL     1      40.065 -16.535   1.976  1.00  0.00    -0.179 NA
HETATM   14  N   UNL     1      38.937 -15.806   2.037  1.00  0.00    -0.282 N 
HETATM   15  C   UNL     1      38.937 -14.731   1.192  1.00  0.00     0.026 A 
HETATM   16  H   UNL     1      38.193 -16.121   2.652  1.00  0.00     0.189 HD
HETATM   17  C   UNL     1      37.757 -13.858   1.012  1.00  0.00     0.070 C 
HETATM   18  C   UNL     1      40.189 -14.708   0.621  1.00  0.00     0.055 A 
ENDBRANCH  11  12
ENDBRANCH   8  11
ENDBRANCH   1   7
BRANCH   2  19
HETATM   19  O   UNL     1      42.221 -18.022   5.473  1.00  0.00    -0.308 OA
BRANCH  19  20
HETATM   20  C   UNL     1      42.574 -16.708   5.696  1.00  0.00     0.082 A 
HETATM   21  C   UNL     1      43.798 -16.316   6.242  1.00  0.00     0.079 A 
HETATM   22  C   UNL     1      44.080 -14.959   6.379  1.00  0.00     0.122 A 
HETATM   23  F   UNL     1      45.252 -14.580   6.903  1.00  0.00    -0.206 F 
HETATM   24  C   UNL     1      43.169 -13.990   5.975  1.00  0.00     0.084 A 
HETATM   25  C   UNL     1      41.965 -14.396   5.417  1.00  0.00     0.122 A 
HETATM   26  F   UNL     1      41.083 -13.472   5.013  1.00  0.00    -0.206 F 
HETATM   27  C   UNL     1      41.661 -15.745   5.266  1.00  0.00     0.079 A 
ENDBRANCH  19  20
ENDBRANCH   2  19
TORSDOF 5
ENDMDL
MODEL 6
REMARK VINA RESULT:      -8.2      2.326      5.488
REMARK  5 active torsions:
REMARK  status: ('A' for Active; 'I' for Inactive)
REMARK    1  A    between atoms: C_6  and  C_7 
REMARK    2  A    between atoms: C_7  and  C_8 
REMARK       I    between atoms: C_8  and  N_9 
REMARK    3  A    between atoms: N_9  and  C_10 
REMARK    4  A    between atoms: C_11  and  O_12 
REMARK    5  A    between atoms: O_12  and  C_13 
ROOT
HETATM    1  C   UNL     1      42.325 -16.616   3.465  1.00  0.00     0.069 A 
HETATM    2  C   UNL     1      42.854 -17.356   2.398  1.00  0.00     0.102 A 
HETATM    3  C   UNL     1      42.071 -17.617   1.258  1.00  0.00     0.039 A 
HETATM    4  C   UNL     1      40.775 -17.116   1.152  1.00  0.00     0.003 A 
HETATM    5  C   UNL     1      40.243 -16.371   2.196  1.00  0.00     0.002 A 
HETATM    6  C   UNL     1      41.009 -16.130   3.339  1.00  0.00     0.032 A 
ENDROOT
BRANCH   1   7
HETATM    7  N   UNL     1      42.973 -16.234   4.662  1.00  0.00    -0.324 N 
HETATM    8  C   UNL     1      42.687 -15.235   5.578  1.00  0.00     0.228 C 
HETATM    9  O   UNL     1      41.934 -14.279   5.430  1.00  0.00    -0.273 OA
HETATM   10  H   UNL     1      43.736 -16.845   4.948  1.00  0.00     0.169 HD
BRANCH   8  11
HETATM   11  C   UNL     1      43.479 -15.370   6.876  1.00  0.00     0.164 C 
BRANCH  11  12
HETATM   12  C   UNL     1      43.889 -16.783   7.127  1.00  0.00     0.065 A 
HETATM   13  N   UNL     1      45.082 -17.220   6.697  1.00  0.00    -0.179 NA
HETATM   14  N   UNL     1      45.093 -18.521   7.036  1.00  0.00    -0.282 N 
HETATM   15  C   UNL     1      43.912 -18.954   7.570  1.00  0.00     0.026 A 
HETATM   16  H   UNL     1      45.930 -19.063   6.843  1.00  0.00     0.189 HD
HETATM   17  C   UNL     1      43.661 -20.372   7.910  1.00  0.00     0.070 C 
HETATM   18  C   UNL     1      43.118 -17.834   7.674  1.00  0.00     0.055 A 
ENDBRANCH  11  12
ENDBRANCH   8  11
ENDBRANCH   1   7
BRANCH   2  19
HETATM   19  O   UNL     1      44.101 -17.926   2.450  1.00  0.00    -0.308 OA
BRANCH  19  20
HETATM   20  C   UNL     1      44.170 -19.290   2.637  1.00  0.00     0.082 A 
HETATM   21  C   UNL     1      43.914 -20.225   1.631  1.00  0.00     0.079 A 
HETATM   22  C   UNL     1      44.062 -21.581   1.908  1.00  0.00     0.122 A 
HETATM   23  F   UNL     1      43.816 -22.479   0.947  1.00  0.00    -0.206 F 
HETATM   24  C   UNL     1      44.468 -22.020   3.163  1.00  0.00     0.084 A 
HETATM   25  C   UNL     1      44.738 -21.078   4.145  1.00  0.00     0.122 A 
HETATM   26  F   UNL     1      45.141 -21.487   5.355  1.00  0.00    -0.206 F 
HETATM   27  C   UNL     1      44.601 -19.717   3.893  1.00  0.00     0.079 A 
ENDBRANCH  19  20
ENDBRANCH   2  19
TORSDOF 5
ENDMDL
MODEL 7
REMARK VINA RESULT:      -8.1      3.107      4.887
REMARK  5 active torsions:
REMARK  status: ('A' for Active; 'I' for Inactive)
REMARK    1  A    between atoms: C_6  and  C_7 
REMARK    2  A    between atoms: C_7  and  C_8 
REMARK       I    between atoms: C_8  and  N_9 
REMARK    3  A    between atoms: N_9  and  C_10 
REMARK    4  A    between atoms: C_11  and  O_12 
REMARK    5  A    between atoms: O_12  and  C_13 
ROOT
HETATM    1  C   UNL     1      44.222 -19.505   3.186  1.00  0.00     0.069 A 
HETATM    2  C   UNL     1      44.734 -20.196   4.293  1.00  0.00     0.102 A 
HETATM    3  C   UNL     1      44.782 -21.603   4.290  1.00  0.00     0.039 A 
HETATM    4  C   UNL     1      44.358 -22.330   3.180  1.00  0.00     0.003 A 
HETATM    5  C   UNL     1      43.860 -21.657   2.072  1.00  0.00     0.002 A 
HETATM    6  C   UNL     1      43.788 -20.262   2.080  1.00  0.00     0.032 A 
ENDROOT
BRANCH   1   7
HETATM    7  N   UNL     1      44.129 -18.106   3.004  1.00  0.00    -0.324 N 
HETATM    8  C   UNL     1      43.827 -17.348   1.885  1.00  0.00     0.228 C 
HETATM    9  O   UNL     1      43.810 -17.715   0.716  1.00  0.00    -0.273 OA
HETATM   10  H   UNL     1      44.221 -17.557   3.858  1.00  0.00     0.169 HD
BRANCH   8  11
HETATM   11  C   UNL     1      43.551 -15.882   2.212  1.00  0.00     0.164 C 
BRANCH  11  12
HETATM   12  C   UNL     1      42.327 -15.728   3.053  1.00  0.00     0.065 A 
HETATM   13  N   UNL     1      41.351 -16.646   2.990  1.00  0.00    -0.179 NA
HETATM   14  N   UNL     1      40.403 -16.170   3.816  1.00  0.00    -0.282 N 
HETATM   15  C   UNL     1      40.692 -14.933   4.320  1.00  0.00     0.026 A 
HETATM   16  H   UNL     1      39.568 -16.727   3.963  1.00  0.00     0.189 HD
HETATM   17  C   UNL     1      39.742 -14.170   5.159  1.00  0.00     0.070 C 
HETATM   18  C   UNL     1      41.958 -14.633   3.867  1.00  0.00     0.055 A 
ENDBRANCH  11  12
ENDBRANCH   8  11
ENDBRANCH   1   7
BRANCH   2  19
HETATM   19  O   UNL     1      45.121 -19.555   5.442  1.00  0.00    -0.308 OA
BRANCH  19  20
HETATM   20  C   UNL     1      44.341 -18.507   5.881  1.00  0.00     0.082 A 
HETATM   21  C   UNL     1      42.955 -18.585   6.038  1.00  0.00     0.079 A 
HETATM   22  C   UNL     1      42.263 -17.486   6.537  1.00  0.00     0.122 A 
HETATM   23  F   UNL     1      40.935 -17.557   6.688  1.00  0.00    -0.206 F 
HETATM   24  C   UNL     1      42.927 -16.316   6.890  1.00  0.00     0.084 A 
HETATM   25  C   UNL     1      44.306 -16.262   6.746  1.00  0.00     0.122 A 
HETATM   26  F   UNL     1      44.959 -15.145   7.093  1.00  0.00    -0.206 F 
HETATM   27  C   UNL     1      45.021 -17.347   6.252  1.00  0.00     0.079 A 
ENDBRANCH  19  20
ENDBRANCH   2  19
TORSDOF 5
ENDMDL
MODEL 8
REMARK VINA RESULT:      -8.1      2.105      2.421
REMARK  5 active torsions:
REMARK  status: ('A' for Active; 'I' for Inactive)
REMARK    1  A    between atoms: C_6  and  C_7 
REMARK    2  A    between atoms: C_7  and  C_8 
REMARK       I    between atoms: C_8  and  N_9 
REMARK    3  A    between atoms: N_9  and  C_10 
REMARK    4  A    between atoms: C_11  and  O_12 
REMARK    5  A    between atoms: O_12  and  C_13 
ROOT
HETATM    1  C   UNL     1      43.130 -15.379   4.312  1.00  0.00     0.069 A 
HETATM    2  C   UNL     1      42.888 -16.300   5.341  1.00  0.00     0.102 A 
HETATM    3  C   UNL     1      43.371 -16.053   6.641  1.00  0.00     0.039 A 
HETATM    4  C   UNL     1      44.062 -14.880   6.935  1.00  0.00     0.003 A 
HETATM    5  C   UNL     1      44.297 -13.954   5.928  1.00  0.00     0.002 A 
HETATM    6  C   UNL     1      43.840 -14.205   4.632  1.00  0.00     0.032 A 
ENDROOT
BRANCH   1   7
HETATM    7  N   UNL     1      42.696 -15.447   2.968  1.00  0.00    -0.324 N 
HETATM    8  C   UNL     1      43.148 -16.201   1.898  1.00  0.00     0.228 C 
HETATM    9  O   UNL     1      44.206 -16.814   1.810  1.00  0.00    -0.273 OA
HETATM   10  H   UNL     1      41.854 -14.911   2.763  1.00  0.00     0.169 HD
BRANCH   8  11
HETATM   11  C   UNL     1      42.197 -16.176   0.704  1.00  0.00     0.164 C 
BRANCH  11  12
HETATM   12  C   UNL     1      40.837 -15.698   1.093  1.00  0.00     0.065 A 
HETATM   13  N   UNL     1      40.115 -16.392   1.987  1.00  0.00    -0.179 NA
HETATM   14  N   UNL     1      38.952 -15.722   2.053  1.00  0.00    -0.282 N 
HETATM   15  C   UNL     1      38.865 -14.691   1.159  1.00  0.00     0.026 A 
HETATM   16  H   UNL     1      38.247 -16.044   2.708  1.00  0.00     0.189 HD
HETATM   17  C   UNL     1      37.634 -13.891   0.980  1.00  0.00     0.070 C 
HETATM   18  C   UNL     1      40.095 -14.630   0.542  1.00  0.00     0.055 A 
ENDBRANCH  11  12
ENDBRANCH   8  11
ENDBRANCH   1   7
BRANCH   2  19
HETATM   19  O   UNL     1      42.263 -17.500   5.118  1.00  0.00    -0.308 OA
BRANCH  19  20
HETATM   20  C   UNL     1      43.042 -18.638   5.140  1.00  0.00     0.082 A 
HETATM   21  C   UNL     1      43.852 -19.044   4.077  1.00  0.00     0.079 A 
HETATM   22  C   UNL     1      44.640 -20.182   4.217  1.00  0.00     0.122 A 
HETATM   23  F   UNL     1      45.417 -20.574   3.200  1.00  0.00    -0.206 F 
HETATM   24  C   UNL     1      44.643 -20.915   5.398  1.00  0.00     0.084 A 
HETATM   25  C   UNL     1      43.848 -20.488   6.452  1.00  0.00     0.122 A 
HETATM   26  F   UNL     1      43.850 -21.179   7.599  1.00  0.00    -0.206 F 
HETATM   27  C   UNL     1      43.053 -19.352   6.338  1.00  0.00     0.079 A 
ENDBRANCH  19  20
ENDBRANCH   2  19
TORSDOF 5
ENDMDL
MODEL 9
REMARK VINA RESULT:      -7.9      2.284      3.013
REMARK  5 active torsions:
REMARK  status: ('A' for Active; 'I' for Inactive)
REMARK    1  A    between atoms: C_6  and  C_7 
REMARK    2  A    between atoms: C_7  and  C_8 
REMARK       I    between atoms: C_8  and  N_9 
REMARK    3  A    between atoms: N_9  and  C_10 
REMARK    4  A    between atoms: C_11  and  O_12 
REMARK    5  A    between atoms: O_12  and  C_13 
ROOT
HETATM    1  C   UNL     1      42.434 -15.569   4.797  1.00  0.00     0.069 A 
HETATM    2  C   UNL     1      42.937 -16.575   5.633  1.00  0.00     0.102 A 
HETATM    3  C   UNL     1      43.979 -16.291   6.537  1.00  0.00     0.039 A 
HETATM    4  C   UNL     1      44.500 -15.004   6.644  1.00  0.00     0.003 A 
HETATM    5  C   UNL     1      44.002 -13.995   5.831  1.00  0.00     0.002 A 
HETATM    6  C   UNL     1      42.985 -14.277   4.916  1.00  0.00     0.032 A 
ENDROOT
BRANCH   1   7
HETATM    7  N   UNL     1      41.378 -15.665   3.861  1.00  0.00    -0.324 N 
HETATM    8  C   UNL     1      40.248 -14.888   3.675  1.00  0.00     0.228 C 
HETATM    9  O   UNL     1      39.770 -14.067   4.450  1.00  0.00    -0.273 OA
HETATM   10  H   UNL     1      41.505 -16.380   3.146  1.00  0.00     0.169 HD
BRANCH   8  11
HETATM   11  C   UNL     1      39.530 -15.179   2.359  1.00  0.00     0.164 C 
BRANCH  11  12
HETATM   12  C   UNL     1      40.418 -14.934   1.184  1.00  0.00     0.065 A 
HETATM   13  N   UNL     1      41.376 -15.820   0.873  1.00  0.00    -0.179 NA
HETATM   14  N   UNL     1      42.002 -15.265  -0.179  1.00  0.00    -0.282 N 
HETATM   15  C   UNL     1      41.549 -14.012  -0.483  1.00  0.00     0.026 A 
HETATM   16  H   UNL     1      42.755 -15.783  -0.621  1.00  0.00     0.189 HD
HETATM   17  C   UNL     1      42.168 -13.170  -1.530  1.00  0.00     0.070 C 
HETATM   18  C   UNL     1      40.490 -13.783   0.368  1.00  0.00     0.055 A 
ENDBRANCH  11  12
ENDBRANCH   8  11
ENDBRANCH   1   7
BRANCH   2  19
HETATM   19  O   UNL     1      42.513 -17.877   5.549  1.00  0.00    -0.308 OA
BRANCH  19  20
HETATM   20  C   UNL     1      43.277 -18.750   4.804  1.00  0.00     0.082 A 
HETATM   21  C   UNL     1      44.107 -19.724   5.362  1.00  0.00     0.079 A 
HETATM   22  C   UNL     1      44.799 -20.592   4.522  1.00  0.00     0.122 A 
HETATM   23  F   UNL     1      45.596 -21.527   5.053  1.00  0.00    -0.206 F 
HETATM   24  C   UNL     1      44.671 -20.511   3.140  1.00  0.00     0.084 A 
HETATM   25  C   UNL     1      43.827 -19.550   2.602  1.00  0.00     0.122 A 
HETATM   26  F   UNL     1      43.686 -19.470   1.272  1.00  0.00    -0.206 F 
HETATM   27  C   UNL     1      43.123 -18.673   3.419  1.00  0.00     0.079 A 
ENDBRANCH  19  20
ENDBRANCH   2  19
TORSDOF 5
ENDMDL
MODEL 10
REMARK VINA RESULT:      -7.9      3.357      6.005
REMARK  5 active torsions:
REMARK  status: ('A' for Active; 'I' for Inactive)
REMARK    1  A    between atoms: C_6  and  C_7 
REMARK    2  A    between atoms: C_7  and  C_8 
REMARK       I    between atoms: C_8  and  N_9 
REMARK    3  A    between atoms: N_9  and  C_10 
REMARK    4  A    between atoms: C_11  and  O_12 
REMARK    5  A    between atoms: O_12  and  C_13 
ROOT
HETATM    1  C   UNL     1      43.560 -19.029   4.281  1.00  0.00     0.069 A 
HETATM    2  C   UNL     1      42.788 -19.058   3.112  1.00  0.00     0.102 A 
HETATM    3  C   UNL     1      43.178 -19.861   2.023  1.00  0.00     0.039 A 
HETATM    4  C   UNL     1      44.313 -20.666   2.100  1.00  0.00     0.003 A 
HETATM    5  C   UNL     1      45.080 -20.657   3.257  1.00  0.00     0.002 A 
HETATM    6  C   UNL     1      44.709 -19.843   4.331  1.00  0.00     0.032 A 
ENDROOT
BRANCH   1   7
HETATM    7  N   UNL     1      43.303 -18.313   5.473  1.00  0.00    -0.324 N 
HETATM    8  C   UNL     1      44.149 -17.625   6.326  1.00  0.00     0.228 C 
HETATM    9  O   UNL     1      45.373 -17.686   6.376  1.00  0.00    -0.273 OA
HETATM   10  H   UNL     1      42.317 -18.215   5.708  1.00  0.00     0.169 HD
BRANCH   8  11
HETATM   11  C   UNL     1      43.404 -16.753   7.334  1.00  0.00     0.164 C 
BRANCH  11  12
HETATM   12  C   UNL     1      42.155 -16.181   6.748  1.00  0.00     0.065 A 
HETATM   13  N   UNL     1      41.021 -16.898   6.761  1.00  0.00    -0.179 NA
HETATM   14  N   UNL     1      40.136 -16.117   6.117  1.00  0.00    -0.282 N 
HETATM   15  C   UNL     1      40.690 -14.979   5.601  1.00  0.00     0.026 A 
HETATM   16  H   UNL     1      39.177 -16.440   6.036  1.00  0.00     0.189 HD
HETATM   17  C   UNL     1      39.928 -14.031   4.759  1.00  0.00     0.070 C 
HETATM   18  C   UNL     1      42.000 -14.976   6.027  1.00  0.00     0.055 A 
ENDBRANCH  11  12
ENDBRANCH   8  11
ENDBRANCH   1   7
BRANCH   2  19
HETATM   19  O   UNL     1      41.689 -18.255   2.940  1.00  0.00    -0.308 OA
BRANCH  19  20
HETATM   20  C   UNL     1      41.812 -17.181   2.085  1.00  0.00     0.082 A 
HETATM   21  C   UNL     1      41.359 -17.186   0.763  1.00  0.00     0.079 A 
HETATM   22  C   UNL     1      41.484 -16.031  -0.004  1.00  0.00     0.122 A 
HETATM   23  F   UNL     1      41.052 -16.033  -1.271  1.00  0.00    -0.206 F 
HETATM   24  C   UNL     1      42.042 -14.873   0.523  1.00  0.00     0.084 A 
HETATM   25  C   UNL     1      42.470 -14.878   1.843  1.00  0.00     0.122 A 
HETATM   26  F   UNL     1      42.999 -13.765   2.367  1.00  0.00    -0.206 F 
HETATM   27  C   UNL     1      42.353 -16.018   2.632  1.00  0.00     0.079 A 
ENDBRANCH  19  20
ENDBRANCH   2  19
TORSDOF 5
ENDMDL
