MODEL 1
REMARK VINA RESULT:      -9.1      0.000      0.000
REMARK  8 active torsions:
REMARK  status: ('A' for Active; 'I' for Inactive)
REMARK    1  A    between atoms: C_4  and  C_5 
REMARK    2  A    between atoms: C_5  and  C_6 
REMARK    3  A    between atoms: C_6  and  N_7 
REMARK    4  A    between atoms: C_8  and  S_9 
REMARK    5  A    between atoms: S_9  and  C_10 
REMARK    6  A    between atoms: C_10  and  C_11 
REMARK    7  A    between atoms: C_24  and  C_25 
REMARK    8  A    between atoms: C_26  and  O_27 
ROOT
HETATM    1  N   UNL     1      42.357 -13.308   6.031  1.00  0.00    -0.307 N 
HETATM    2  C   UNL     1      41.592 -12.229   6.398  1.00  0.00     0.192 C 
HETATM    3  N   UNL     1      40.433 -12.276   5.788  1.00  0.00    -0.122 NA
HETATM    4  N   UNL     1      40.385 -13.433   5.070  1.00  0.00    -0.128 NA
HETATM    5  C   UNL     1      41.504 -14.108   5.280  1.00  0.00     0.167 C 
ENDROOT
BRANCH   2   6
HETATM    6  S   UNL     1      42.050 -10.995   7.518  1.00  0.00    -0.083 SA
BRANCH   6   7
HETATM    7  C   UNL     1      40.558 -10.945   8.560  1.00  0.00     0.161 C 
BRANCH   7   8
HETATM    8  C   UNL     1      40.846 -10.828  10.046  1.00  0.00     0.117 A 
HETATM    9  N   UNL     1      41.722  -9.962  10.445  1.00  0.00    -0.234 NA
HETATM   10  C   UNL     1      42.001  -9.875  11.820  1.00  0.00     0.074 A 
HETATM   11  C   UNL     1      41.369 -10.686  12.767  1.00  0.00     0.061 A 
HETATM   12  C   UNL     1      42.951  -8.954  12.259  1.00  0.00     0.032 A 
HETATM   13  C   UNL     1      40.375 -11.650  12.271  1.00  0.00     0.259 A 
HETATM   14  C   UNL     1      41.670 -10.587  14.128  1.00  0.00     0.019 A 
HETATM   15  O   UNL     1      39.764 -12.405  13.018  1.00  0.00    -0.267 OA
HETATM   16  N   UNL     1      40.183 -11.653  10.913  1.00  0.00    -0.310 N 
HETATM   17  H   UNL     1      39.502 -12.312  10.560  1.00  0.00     0.170 HD
HETATM   18  C   UNL     1      42.623  -9.660  14.552  1.00  0.00     0.001 A 
HETATM   19  C   UNL     1      43.263  -8.844  13.618  1.00  0.00     0.002 A 
ENDBRANCH   7   8
ENDBRANCH   6   7
ENDBRANCH   2   6
BRANCH   1  20
HETATM   20  C   UNL     1      43.743 -13.600   6.351  1.00  0.00     0.137 C 
BRANCH  20  21
HETATM   21  C   UNL     1      44.009 -14.467   7.590  1.00  0.00     0.059 C 
BRANCH  21  22
HETATM   22  C   UNL     1      44.057 -15.967   7.366  1.00  0.00    -0.057 A 
HETATM   23  C   UNL     1      44.927 -16.455   6.375  1.00  0.00     0.007 A 
HETATM   24  C   UNL     1      45.032 -17.823   6.119  1.00  0.00     0.001 A 
HETATM   25  C   UNL     1      44.268 -18.729   6.849  1.00  0.00     0.000 A 
HETATM   26  C   UNL     1      43.406 -18.265   7.838  1.00  0.00     0.001 A 
HETATM   27  C   UNL     1      43.303 -16.895   8.099  1.00  0.00     0.007 A 
ENDBRANCH  21  22
ENDBRANCH  20  21
ENDBRANCH   1  20
BRANCH   5  28
HETATM   28  C   UNL     1      41.742 -15.447   4.729  1.00  0.00     0.045 A 
HETATM   29  C   UNL     1      41.062 -16.560   5.258  1.00  0.00     0.079 A 
HETATM   30  C   UNL     1      41.267 -17.843   4.753  1.00  0.00     0.037 A 
HETATM   31  C   UNL     1      42.182 -18.045   3.724  1.00  0.00     0.003 A 
HETATM   32  C   UNL     1      42.899 -16.965   3.213  1.00  0.00     0.001 A 
HETATM   33  C   UNL     1      42.690 -15.678   3.721  1.00  0.00     0.018 A 
BRANCH  29  34
HETATM   34  O   UNL     1      40.176 -16.456   6.301  1.00  0.00    -0.360 OA
HETATM   35  H   UNL     1      39.659 -15.633   6.177  1.00  0.00     0.217 HD
ENDBRANCH  29  34
ENDBRANCH   5  28
TORSDOF 8
ENDMDL
MODEL 2
REMARK VINA RESULT:      -9.0      5.354      9.433
REMARK  8 active torsions:
REMARK  status: ('A' for Active; 'I' for Inactive)
REMARK    1  A    between atoms: C_4  and  C_5 
REMARK    2  A    between atoms: C_5  and  C_6 
REMARK    3  A    between atoms: C_6  and  N_7 
REMARK    4  A    between atoms: C_8  and  S_9 
REMARK    5  A    between atoms: S_9  and  C_10 
REMARK    6  A    between atoms: C_10  and  C_11 
REMARK    7  A    between atoms: C_24  and  C_25 
REMARK    8  A    between atoms: C_26  and  O_27 
ROOT
HETATM    1  N   UNL     1      41.655 -14.959   5.100  1.00  0.00    -0.307 N 
HETATM    2  C   UNL     1      42.633 -15.227   6.024  1.00  0.00     0.192 C 
HETATM    3  N   UNL     1      43.446 -14.203   6.124  1.00  0.00    -0.122 NA
HETATM    4  N   UNL     1      42.966 -13.209   5.325  1.00  0.00    -0.128 NA
HETATM    5  C   UNL     1      41.837 -13.620   4.769  1.00  0.00     0.167 C 
ENDROOT
BRANCH   2   6
HETATM    6  S   UNL     1      42.779 -16.677   6.954  1.00  0.00    -0.083 SA
BRANCH   6   7
HETATM    7  C   UNL     1      44.397 -17.267   6.365  1.00  0.00     0.161 C 
BRANCH   7   8
HETATM    8  C   UNL     1      44.314 -18.245   5.208  1.00  0.00     0.117 A 
HETATM    9  N   UNL     1      44.550 -19.498   5.431  1.00  0.00    -0.234 NA
HETATM   10  C   UNL     1      44.494 -20.394   4.350  1.00  0.00     0.074 A 
HETATM   11  C   UNL     1      44.194 -19.983   3.049  1.00  0.00     0.061 A 
HETATM   12  C   UNL     1      44.758 -21.744   4.579  1.00  0.00     0.032 A 
HETATM   13  C   UNL     1      43.924 -18.552   2.841  1.00  0.00     0.259 A 
HETATM   14  C   UNL     1      44.153 -20.893   1.988  1.00  0.00     0.019 A 
HETATM   15  O   UNL     1      43.648 -18.090   1.740  1.00  0.00    -0.267 OA
HETATM   16  N   UNL     1      44.008 -17.768   3.962  1.00  0.00    -0.310 N 
HETATM   17  H   UNL     1      43.825 -16.781   3.832  1.00  0.00     0.170 HD
HETATM   18  C   UNL     1      44.419 -22.240   2.233  1.00  0.00     0.001 A 
HETATM   19  C   UNL     1      44.722 -22.666   3.527  1.00  0.00     0.002 A 
ENDBRANCH   7   8
ENDBRANCH   6   7
ENDBRANCH   2   6
BRANCH   1  20
HETATM   20  C   UNL     1      40.626 -15.837   4.572  1.00  0.00     0.137 C 
BRANCH  20  21
HETATM   21  C   UNL     1      40.868 -16.441   3.181  1.00  0.00     0.059 C 
BRANCH  21  22
HETATM   22  C   UNL     1      40.330 -15.654   2.001  1.00  0.00    -0.057 A 
HETATM   23  C   UNL     1      39.014 -15.168   2.082  1.00  0.00     0.007 A 
HETATM   24  C   UNL     1      38.454 -14.427   1.039  1.00  0.00     0.001 A 
HETATM   25  C   UNL     1      39.200 -14.159  -0.104  1.00  0.00     0.000 A 
HETATM   26  C   UNL     1      40.508 -14.626  -0.200  1.00  0.00     0.001 A 
HETATM   27  C   UNL     1      41.072 -15.364   0.846  1.00  0.00     0.007 A 
ENDBRANCH  21  22
ENDBRANCH  20  21
ENDBRANCH   1  20
BRANCH   5  28
HETATM   28  C   UNL     1      41.007 -12.758   3.920  1.00  0.00     0.045 A 
HETATM   29  C   UNL     1      41.506 -12.288   2.691  1.00  0.00     0.079 A 
HETATM   30  C   UNL     1      40.740 -11.469   1.863  1.00  0.00     0.037 A 
HETATM   31  C   UNL     1      39.465 -11.078   2.262  1.00  0.00     0.003 A 
HETATM   32  C   UNL     1      38.967 -11.495   3.494  1.00  0.00     0.001 A 
HETATM   33  C   UNL     1      39.738 -12.318   4.322  1.00  0.00     0.018 A 
BRANCH  29  34
HETATM   34  O   UNL     1      42.767 -12.589   2.242  1.00  0.00    -0.360 OA
HETATM   35  H   UNL     1      42.800 -13.551   2.054  1.00  0.00     0.217 HD
ENDBRANCH  29  34
ENDBRANCH   5  28
TORSDOF 8
ENDMDL
MODEL 3
REMARK VINA RESULT:      -8.9      2.189      2.726
REMARK  8 active torsions:
REMARK  status: ('A' for Active; 'I' for Inactive)
REMARK    1  A    between atoms: C_4  and  C_5 
REMARK    2  A    between atoms: C_5  and  C_6 
REMARK    3  A    between atoms: C_6  and  N_7 
REMARK    4  A    between atoms: C_8  and  S_9 
REMARK    5  A    between atoms: S_9  and  C_10 
REMARK    6  A    between atoms: C_10  and  C_11 
REMARK    7  A    between atoms: C_24  and  C_25 
REMARK    8  A    between atoms: C_26  and  O_27 
ROOT
HETATM    1  N   UNL     1      41.494 -14.131   4.766  1.00  0.00    -0.307 N 
HETATM    2  C   UNL     1      40.595 -13.102   4.895  1.00  0.00     0.192 C 
HETATM    3  N   UNL     1      40.095 -12.796   3.723  1.00  0.00    -0.122 NA
HETATM    4  N   UNL     1      40.596 -13.676   2.812  1.00  0.00    -0.128 NA
HETATM    5  C   UNL     1      41.373 -14.543   3.443  1.00  0.00     0.167 C 
ENDROOT
BRANCH   2   6
HETATM    6  S   UNL     1      40.149 -12.328   6.375  1.00  0.00    -0.083 SA
BRANCH   6   7
HETATM    7  C   UNL     1      41.467 -11.078   6.487  1.00  0.00     0.161 C 
BRANCH   7   8
HETATM    8  C   UNL     1      42.158 -11.028   7.837  1.00  0.00     0.117 A 
HETATM    9  N   UNL     1      41.764 -10.155   8.708  1.00  0.00    -0.234 NA
HETATM   10  C   UNL     1      42.423 -10.099   9.948  1.00  0.00     0.074 A 
HETATM   11  C   UNL     1      43.484 -10.948  10.273  1.00  0.00     0.061 A 
HETATM   12  C   UNL     1      42.013  -9.155  10.888  1.00  0.00     0.032 A 
HETATM   13  C   UNL     1      43.895 -11.930   9.258  1.00  0.00     0.259 A 
HETATM   14  C   UNL     1      44.130 -10.867  11.510  1.00  0.00     0.019 A 
HETATM   15  O   UNL     1      44.812 -12.722   9.444  1.00  0.00    -0.267 OA
HETATM   16  N   UNL     1      43.187 -11.896   8.084  1.00  0.00    -0.310 N 
HETATM   17  H   UNL     1      43.460 -12.567   7.378  1.00  0.00     0.170 HD
HETATM   18  C   UNL     1      43.708  -9.917  12.440  1.00  0.00     0.001 A 
HETATM   19  C   UNL     1      42.651  -9.061  12.129  1.00  0.00     0.002 A 
ENDBRANCH   7   8
ENDBRANCH   6   7
ENDBRANCH   2   6
BRANCH   1  20
HETATM   20  C   UNL     1      42.379 -14.708   5.762  1.00  0.00     0.137 C 
BRANCH  20  21
HETATM   21  C   UNL     1      42.014 -16.099   6.302  1.00  0.00     0.059 C 
BRANCH  21  22
HETATM   22  C   UNL     1      42.987 -17.220   5.989  1.00  0.00    -0.057 A 
HETATM   23  C   UNL     1      44.299 -17.105   6.479  1.00  0.00     0.007 A 
HETATM   24  C   UNL     1      45.247 -18.102   6.240  1.00  0.00     0.001 A 
HETATM   25  C   UNL     1      44.900 -19.231   5.505  1.00  0.00     0.000 A 
HETATM   26  C   UNL     1      43.604 -19.365   5.016  1.00  0.00     0.001 A 
HETATM   27  C   UNL     1      42.651 -18.370   5.260  1.00  0.00     0.007 A 
ENDBRANCH  21  22
ENDBRANCH  20  21
ENDBRANCH   1  20
BRANCH   5  28
HETATM   28  C   UNL     1      42.001 -15.685   2.770  1.00  0.00     0.045 A 
HETATM   29  C   UNL     1      41.211 -16.748   2.297  1.00  0.00     0.079 A 
HETATM   30  C   UNL     1      41.780 -17.846   1.653  1.00  0.00     0.037 A 
HETATM   31  C   UNL     1      43.162 -17.916   1.495  1.00  0.00     0.003 A 
HETATM   32  C   UNL     1      43.969 -16.897   1.995  1.00  0.00     0.001 A 
HETATM   33  C   UNL     1      43.394 -15.796   2.639  1.00  0.00     0.018 A 
BRANCH  29  34
HETATM   34  O   UNL     1      39.847 -16.779   2.449  1.00  0.00    -0.360 OA
HETATM   35  H   UNL     1      39.509 -15.868   2.329  1.00  0.00     0.217 HD
ENDBRANCH  29  34
ENDBRANCH   5  28
TORSDOF 8
ENDMDL
MODEL 4
REMARK VINA RESULT:      -8.9      1.989      2.579
REMARK  8 active torsions:
REMARK  status: ('A' for Active; 'I' for Inactive)
REMARK    1  A    between atoms: C_4  and  C_5 
REMARK    2  A    between atoms: C_5  and  C_6 
REMARK    3  A    between atoms: C_6  and  N_7 
REMARK    4  A    between atoms: C_8  and  S_9 
REMARK    5  A    between atoms: S_9  and  C_10 
REMARK    6  A    between atoms: C_10  and  C_11 
REMARK    7  A    between atoms: C_24  and  C_25 
REMARK    8  A    between atoms: C_26  and  O_27 
ROOT
HETATM    1  N   UNL     1      41.127 -14.213   4.689  1.00  0.00    -0.307 N 
HETATM    2  C   UNL     1      40.155 -13.247   4.766  1.00  0.00     0.192 C 
HETATM    3  N   UNL     1      39.707 -12.969   3.566  1.00  0.00    -0.122 NA
HETATM    4  N   UNL     1      40.319 -13.810   2.686  1.00  0.00    -0.128 NA
HETATM    5  C   UNL     1      41.113 -14.626   3.361  1.00  0.00     0.167 C 
ENDROOT
BRANCH   2   6
HETATM    6  S   UNL     1      39.570 -12.511   6.217  1.00  0.00    -0.083 SA
BRANCH   6   7
HETATM    7  C   UNL     1      40.802 -11.185   6.416  1.00  0.00     0.161 C 
BRANCH   7   8
HETATM    8  C   UNL     1      41.312 -11.025   7.836  1.00  0.00     0.117 A 
HETATM    9  N   UNL     1      42.591 -10.992   8.039  1.00  0.00    -0.234 NA
HETATM   10  C   UNL     1      43.057 -10.866   9.359  1.00  0.00     0.074 A 
HETATM   11  C   UNL     1      42.195 -10.777  10.455  1.00  0.00     0.061 A 
HETATM   12  C   UNL     1      44.432 -10.841   9.589  1.00  0.00     0.032 A 
HETATM   13  C   UNL     1      40.750 -10.810  10.178  1.00  0.00     0.259 A 
HETATM   14  C   UNL     1      42.683 -10.661  11.759  1.00  0.00     0.019 A 
HETATM   15  O   UNL     1      39.911 -10.735  11.068  1.00  0.00    -0.267 OA
HETATM   16  N   UNL     1      40.406 -10.938   8.857  1.00  0.00    -0.310 N 
HETATM   17  H   UNL     1      39.415 -10.962   8.654  1.00  0.00     0.170 HD
HETATM   18  C   UNL     1      44.061 -10.638  11.973  1.00  0.00     0.001 A 
HETATM   19  C   UNL     1      44.935 -10.727  10.889  1.00  0.00     0.002 A 
ENDBRANCH   7   8
ENDBRANCH   6   7
ENDBRANCH   2   6
BRANCH   1  20
HETATM   20  C   UNL     1      41.987 -14.735   5.737  1.00  0.00     0.137 C 
BRANCH  20  21
HETATM   21  C   UNL     1      41.710 -16.165   6.223  1.00  0.00     0.059 C 
BRANCH  21  22
HETATM   22  C   UNL     1      42.804 -17.186   5.972  1.00  0.00    -0.057 A 
HETATM   23  C   UNL     1      44.072 -16.939   6.524  1.00  0.00     0.007 A 
HETATM   24  C   UNL     1      45.125 -17.838   6.343  1.00  0.00     0.001 A 
HETATM   25  C   UNL     1      44.928 -19.001   5.605  1.00  0.00     0.000 A 
HETATM   26  C   UNL     1      43.677 -19.266   5.055  1.00  0.00     0.001 A 
HETATM   27  C   UNL     1      42.620 -18.369   5.240  1.00  0.00     0.007 A 
ENDBRANCH  21  22
ENDBRANCH  20  21
ENDBRANCH   1  20
BRANCH   5  28
HETATM   28  C   UNL     1      41.855 -15.721   2.727  1.00  0.00     0.045 A 
HETATM   29  C   UNL     1      41.168 -16.842   2.225  1.00  0.00     0.079 A 
HETATM   30  C   UNL     1      41.847 -17.896   1.616  1.00  0.00     0.037 A 
HETATM   31  C   UNL     1      43.236 -17.864   1.523  1.00  0.00     0.003 A 
HETATM   32  C   UNL     1      43.941 -16.785   2.051  1.00  0.00     0.001 A 
HETATM   33  C   UNL     1      43.256 -15.728   2.661  1.00  0.00     0.018 A 
BRANCH  29  34
HETATM   34  O   UNL     1      39.806 -16.974   2.315  1.00  0.00    -0.360 OA
HETATM   35  H   UNL     1      39.603 -17.923   2.454  1.00  0.00     0.217 HD
ENDBRANCH  29  34
ENDBRANCH   5  28
TORSDOF 8
ENDMDL
MODEL 5
REMARK VINA RESULT:      -8.8      5.445      9.232
REMARK  8 active torsions:
REMARK  status: ('A' for Active; 'I' for Inactive)
REMARK    1  A    between atoms: C_4  and  C_5 
REMARK    2  A    between atoms: C_5  and  C_6 
REMARK    3  A    between atoms: C_6  and  N_7 
REMARK    4  A    between atoms: C_8  and  S_9 
REMARK    5  A    between atoms: S_9  and  C_10 
REMARK    6  A    between atoms: C_10  and  C_11 
REMARK    7  A    between atoms: C_24  and  C_25 
REMARK    8  A    between atoms: C_26  and  O_27 
ROOT
HETATM    1  N   UNL     1      41.505 -13.879   3.906  1.00  0.00    -0.307 N 
HETATM    2  C   UNL     1      41.868 -14.400   5.123  1.00  0.00     0.192 C 
HETATM    3  N   UNL     1      40.800 -14.623   5.849  1.00  0.00    -0.122 NA
HETATM    4  N   UNL     1      39.709 -14.330   5.089  1.00  0.00    -0.128 NA
HETATM    5  C   UNL     1      40.117 -13.965   3.884  1.00  0.00     0.167 C 
ENDROOT
BRANCH   2   6
HETATM    6  S   UNL     1      43.482 -14.746   5.635  1.00  0.00    -0.083 SA
BRANCH   6   7
HETATM    7  C   UNL     1      43.283 -16.481   6.151  1.00  0.00     0.161 C 
BRANCH   7   8
HETATM    8  C   UNL     1      43.239 -17.466   4.997  1.00  0.00     0.117 A 
HETATM    9  N   UNL     1      43.947 -18.548   5.073  1.00  0.00    -0.234 NA
HETATM   10  C   UNL     1      43.919 -19.445   3.991  1.00  0.00     0.074 A 
HETATM   11  C   UNL     1      43.158 -19.213   2.842  1.00  0.00     0.061 A 
HETATM   12  C   UNL     1      44.688 -20.607   4.059  1.00  0.00     0.032 A 
HETATM   13  C   UNL     1      42.363 -17.976   2.802  1.00  0.00     0.259 A 
HETATM   14  C   UNL     1      43.154 -20.116   1.776  1.00  0.00     0.019 A 
HETATM   15  O   UNL     1      41.659 -17.680   1.842  1.00  0.00    -0.267 OA
HETATM   16  N   UNL     1      42.465 -17.172   3.908  1.00  0.00    -0.310 N 
HETATM   17  H   UNL     1      41.922 -16.319   3.891  1.00  0.00     0.170 HD
HETATM   18  C   UNL     1      43.928 -21.274   1.858  1.00  0.00     0.001 A 
HETATM   19  C   UNL     1      44.694 -21.519   2.998  1.00  0.00     0.002 A 
ENDBRANCH   7   8
ENDBRANCH   6   7
ENDBRANCH   2   6
BRANCH   1  20
HETATM   20  C   UNL     1      42.346 -13.363   2.841  1.00  0.00     0.137 C 
BRANCH  20  21
HETATM   21  C   UNL     1      42.608 -14.290   1.644  1.00  0.00     0.059 C 
BRANCH  21  22
HETATM   22  C   UNL     1      41.803 -14.012   0.388  1.00  0.00    -0.057 A 
HETATM   23  C   UNL     1      41.504 -12.672   0.083  1.00  0.00     0.007 A 
HETATM   24  C   UNL     1      40.776 -12.339  -1.061  1.00  0.00     0.001 A 
HETATM   25  C   UNL     1      40.334 -13.339  -1.921  1.00  0.00     0.000 A 
HETATM   26  C   UNL     1      40.625 -14.671  -1.639  1.00  0.00     0.001 A 
HETATM   27  C   UNL     1      41.359 -15.006  -0.496  1.00  0.00     0.007 A 
ENDBRANCH  21  22
ENDBRANCH  20  21
ENDBRANCH   1  20
BRANCH   5  28
HETATM   28  C   UNL     1      39.191 -13.668   2.785  1.00  0.00     0.045 A 
HETATM   29  C   UNL     1      38.722 -14.705   1.958  1.00  0.00     0.079 A 
HETATM   30  C   UNL     1      37.841 -14.453   0.907  1.00  0.00     0.037 A 
HETATM   31  C   UNL     1      37.433 -13.149   0.643  1.00  0.00     0.003 A 
HETATM   32  C   UNL     1      37.918 -12.100   1.421  1.00  0.00     0.001 A 
HETATM   33  C   UNL     1      38.801 -12.357   2.475  1.00  0.00     0.018 A 
BRANCH  29  34
HETATM   34  O   UNL     1      39.108 -16.012   2.121  1.00  0.00    -0.360 OA
HETATM   35  H   UNL     1      38.794 -16.313   2.999  1.00  0.00     0.217 HD
ENDBRANCH  29  34
ENDBRANCH   5  28
TORSDOF 8
ENDMDL
MODEL 6
REMARK VINA RESULT:      -8.5      5.177      9.581
REMARK  8 active torsions:
REMARK  status: ('A' for Active; 'I' for Inactive)
REMARK    1  A    between atoms: C_4  and  C_5 
REMARK    2  A    between atoms: C_5  and  C_6 
REMARK    3  A    between atoms: C_6  and  N_7 
REMARK    4  A    between atoms: C_8  and  S_9 
REMARK    5  A    between atoms: S_9  and  C_10 
REMARK    6  A    between atoms: C_10  and  C_11 
REMARK    7  A    between atoms: C_24  and  C_25 
REMARK    8  A    between atoms: C_26  and  O_27 
ROOT
HETATM    1  N   UNL     1      41.060 -15.861   3.592  1.00  0.00    -0.307 N 
HETATM    2  C   UNL     1      40.294 -14.911   2.964  1.00  0.00     0.192 C 
HETATM    3  N   UNL     1      39.917 -13.999   3.828  1.00  0.00    -0.122 NA
HETATM    4  N   UNL     1      40.500 -14.290   5.024  1.00  0.00    -0.128 NA
HETATM    5  C   UNL     1      41.264 -15.361   4.874  1.00  0.00     0.167 C 
ENDROOT
BRANCH   2   6
HETATM    6  S   UNL     1      39.895 -14.880   1.283  1.00  0.00    -0.083 SA
BRANCH   6   7
HETATM    7  C   UNL     1      41.566 -14.901   0.562  1.00  0.00     0.161 C 
BRANCH   7   8
HETATM    8  C   UNL     1      41.709 -14.056  -0.691  1.00  0.00     0.117 A 
HETATM    9  N   UNL     1      42.159 -12.847  -0.580  1.00  0.00    -0.234 NA
HETATM   10  C   UNL     1      42.267 -12.062  -1.741  1.00  0.00     0.074 A 
HETATM   11  C   UNL     1      41.907 -12.538  -3.005  1.00  0.00     0.061 A 
HETATM   12  C   UNL     1      42.741 -10.755  -1.630  1.00  0.00     0.032 A 
HETATM   13  C   UNL     1      41.408 -13.919  -3.086  1.00  0.00     0.259 A 
HETATM   14  C   UNL     1      42.015 -11.734  -4.144  1.00  0.00     0.019 A 
HETATM   15  O   UNL     1      41.069 -14.432  -4.147  1.00  0.00    -0.267 OA
HETATM   16  N   UNL     1      41.341 -14.593  -1.894  1.00  0.00    -0.310 N 
HETATM   17  H   UNL     1      40.999 -15.544  -1.938  1.00  0.00     0.170 HD
HETATM   18  C   UNL     1      42.490 -10.429  -4.016  1.00  0.00     0.001 A 
HETATM   19  C   UNL     1      42.853  -9.940  -2.761  1.00  0.00     0.002 A 
ENDBRANCH   7   8
ENDBRANCH   6   7
ENDBRANCH   2   6
BRANCH   1  20
HETATM   20  C   UNL     1      41.582 -17.111   3.069  1.00  0.00     0.137 C 
BRANCH  20  21
HETATM   21  C   UNL     1      43.105 -17.220   2.904  1.00  0.00     0.059 C 
BRANCH  21  22
HETATM   22  C   UNL     1      43.727 -18.557   3.259  1.00  0.00    -0.057 A 
HETATM   23  C   UNL     1      44.236 -18.720   4.559  1.00  0.00     0.007 A 
HETATM   24  C   UNL     1      44.814 -19.925   4.961  1.00  0.00     0.001 A 
HETATM   25  C   UNL     1      44.896 -20.990   4.069  1.00  0.00     0.000 A 
HETATM   26  C   UNL     1      44.392 -20.850   2.779  1.00  0.00     0.001 A 
HETATM   27  C   UNL     1      43.807 -19.645   2.377  1.00  0.00     0.007 A 
ENDBRANCH  21  22
ENDBRANCH  20  21
ENDBRANCH   1  20
BRANCH   5  28
HETATM   28  C   UNL     1      42.109 -15.893   5.948  1.00  0.00     0.045 A 
HETATM   29  C   UNL     1      43.342 -15.282   6.245  1.00  0.00     0.079 A 
HETATM   30  C   UNL     1      44.165 -15.765   7.261  1.00  0.00     0.037 A 
HETATM   31  C   UNL     1      43.785 -16.892   7.985  1.00  0.00     0.003 A 
HETATM   32  C   UNL     1      42.590 -17.540   7.680  1.00  0.00     0.001 A 
HETATM   33  C   UNL     1      41.765 -17.052   6.661  1.00  0.00     0.018 A 
BRANCH  29  34
HETATM   34  O   UNL     1      43.813 -14.195   5.552  1.00  0.00    -0.360 OA
HETATM   35  H   UNL     1      43.270 -14.094   4.743  1.00  0.00     0.217 HD
ENDBRANCH  29  34
ENDBRANCH   5  28
TORSDOF 8
ENDMDL
MODEL 7
REMARK VINA RESULT:      -8.5      6.007     10.586
REMARK  8 active torsions:
REMARK  status: ('A' for Active; 'I' for Inactive)
REMARK    1  A    between atoms: C_4  and  C_5 
REMARK    2  A    between atoms: C_5  and  C_6 
REMARK    3  A    between atoms: C_6  and  N_7 
REMARK    4  A    between atoms: C_8  and  S_9 
REMARK    5  A    between atoms: S_9  and  C_10 
REMARK    6  A    between atoms: C_10  and  C_11 
REMARK    7  A    between atoms: C_24  and  C_25 
REMARK    8  A    between atoms: C_26  and  O_27 
ROOT
HETATM    1  N   UNL     1      42.129 -16.117   2.227  1.00  0.00    -0.307 N 
HETATM    2  C   UNL     1      41.190 -15.587   1.378  1.00  0.00     0.192 C 
HETATM    3  N   UNL     1      40.133 -15.214   2.059  1.00  0.00    -0.122 NA
HETATM    4  N   UNL     1      40.394 -15.416   3.380  1.00  0.00    -0.128 NA
HETATM    5  C   UNL     1      41.629 -15.878   3.503  1.00  0.00     0.167 C 
ENDROOT
BRANCH   2   6
HETATM    6  S   UNL     1      41.360 -15.401  -0.332  1.00  0.00    -0.083 SA
BRANCH   6   7
HETATM    7  C   UNL     1      40.372 -13.892  -0.584  1.00  0.00     0.161 C 
BRANCH   7   8
HETATM    8  C   UNL     1      39.348 -14.004  -1.698  1.00  0.00     0.117 A 
HETATM    9  N   UNL     1      38.534 -13.016  -1.899  1.00  0.00    -0.234 NA
HETATM   10  C   UNL     1      37.573 -13.135  -2.917  1.00  0.00     0.074 A 
HETATM   11  C   UNL     1      37.463 -14.276  -3.716  1.00  0.00     0.061 A 
HETATM   12  C   UNL     1      36.686 -12.082  -3.133  1.00  0.00     0.032 A 
HETATM   13  C   UNL     1      38.412 -15.371  -3.459  1.00  0.00     0.259 A 
HETATM   14  C   UNL     1      36.492 -14.375  -4.717  1.00  0.00     0.019 A 
HETATM   15  O   UNL     1      38.402 -16.412  -4.106  1.00  0.00    -0.267 OA
HETATM   16  N   UNL     1      39.305 -15.151  -2.443  1.00  0.00    -0.310 N 
HETATM   17  H   UNL     1      39.963 -15.897  -2.257  1.00  0.00     0.170 HD
HETATM   18  C   UNL     1      35.612 -13.312  -4.921  1.00  0.00     0.001 A 
HETATM   19  C   UNL     1      35.708 -12.167  -4.130  1.00  0.00     0.002 A 
ENDBRANCH   7   8
ENDBRANCH   6   7
ENDBRANCH   2   6
BRANCH   1  20
HETATM   20  C   UNL     1      43.386 -16.771   1.911  1.00  0.00     0.137 C 
BRANCH  20  21
HETATM   21  C   UNL     1      43.314 -18.212   1.387  1.00  0.00     0.059 C 
BRANCH  21  22
HETATM   22  C   UNL     1      43.806 -19.297   2.328  1.00  0.00    -0.057 A 
HETATM   23  C   UNL     1      44.182 -18.917   3.627  1.00  0.00     0.007 A 
HETATM   24  C   UNL     1      44.636 -19.861   4.551  1.00  0.00     0.001 A 
HETATM   25  C   UNL     1      44.722 -21.202   4.191  1.00  0.00     0.000 A 
HETATM   26  C   UNL     1      44.349 -21.598   2.910  1.00  0.00     0.001 A 
HETATM   27  C   UNL     1      43.888 -20.655   1.985  1.00  0.00     0.007 A 
ENDBRANCH  21  22
ENDBRANCH  20  21
ENDBRANCH   1  20
BRANCH   5  28
HETATM   28  C   UNL     1      42.265 -16.117   4.803  1.00  0.00     0.045 A 
HETATM   29  C   UNL     1      41.719 -17.061   5.692  1.00  0.00     0.079 A 
HETATM   30  C   UNL     1      42.302 -17.310   6.933  1.00  0.00     0.037 A 
HETATM   31  C   UNL     1      43.432 -16.596   7.324  1.00  0.00     0.003 A 
HETATM   32  C   UNL     1      43.964 -15.625   6.479  1.00  0.00     0.001 A 
HETATM   33  C   UNL     1      43.377 -15.379   5.234  1.00  0.00     0.018 A 
BRANCH  29  34
HETATM   34  O   UNL     1      40.584 -17.777   5.405  1.00  0.00    -0.360 OA
HETATM   35  H   UNL     1      40.828 -18.493   4.782  1.00  0.00     0.217 HD
ENDBRANCH  29  34
ENDBRANCH   5  28
TORSDOF 8
ENDMDL
MODEL 8
REMARK VINA RESULT:      -8.4      6.159      9.698
REMARK  8 active torsions:
REMARK  status: ('A' for Active; 'I' for Inactive)
REMARK    1  A    between atoms: C_4  and  C_5 
REMARK    2  A    between atoms: C_5  and  C_6 
REMARK    3  A    between atoms: C_6  and  N_7 
REMARK    4  A    between atoms: C_8  and  S_9 
REMARK    5  A    between atoms: S_9  and  C_10 
REMARK    6  A    between atoms: C_10  and  C_11 
REMARK    7  A    between atoms: C_24  and  C_25 
REMARK    8  A    between atoms: C_26  and  O_27 
ROOT
HETATM    1  N   UNL     1      41.004 -13.769   1.614  1.00  0.00    -0.307 N 
HETATM    2  C   UNL     1      40.636 -14.098   2.895  1.00  0.00     0.192 C 
HETATM    3  N   UNL     1      39.481 -14.718   2.882  1.00  0.00    -0.122 NA
HETATM    4  N   UNL     1      39.109 -14.882   1.582  1.00  0.00    -0.128 NA
HETATM    5  C   UNL     1      40.061 -14.393   0.804  1.00  0.00     0.167 C 
ENDROOT
BRANCH   2   6
HETATM    6  S   UNL     1      41.553 -13.780   4.326  1.00  0.00    -0.083 SA
BRANCH   6   7
HETATM    7  C   UNL     1      41.360 -15.374   5.183  1.00  0.00     0.161 C 
BRANCH   7   8
HETATM    8  C   UNL     1      41.944 -16.555   4.430  1.00  0.00     0.117 A 
HETATM    9  N   UNL     1      42.861 -17.269   5.002  1.00  0.00    -0.234 NA
HETATM   10  C   UNL     1      43.414 -18.347   4.290  1.00  0.00     0.074 A 
HETATM   11  C   UNL     1      43.012 -18.675   2.992  1.00  0.00     0.061 A 
HETATM   12  C   UNL     1      44.409 -19.115   4.894  1.00  0.00     0.032 A 
HETATM   13  C   UNL     1      41.963 -17.843   2.383  1.00  0.00     0.259 A 
HETATM   14  C   UNL     1      43.583 -19.747   2.301  1.00  0.00     0.019 A 
HETATM   15  O   UNL     1      41.538 -18.048   1.252  1.00  0.00    -0.267 OA
HETATM   16  N   UNL     1      41.496 -16.817   3.164  1.00  0.00    -0.310 N 
HETATM   17  H   UNL     1      40.774 -16.238   2.756  1.00  0.00     0.170 HD
HETATM   18  C   UNL     1      44.578 -20.505   2.918  1.00  0.00     0.001 A 
HETATM   19  C   UNL     1      44.991 -20.190   4.213  1.00  0.00     0.002 A 
ENDBRANCH   7   8
ENDBRANCH   6   7
ENDBRANCH   2   6
BRANCH   1  20
HETATM   20  C   UNL     1      42.128 -12.971   1.159  1.00  0.00     0.137 C 
BRANCH  20  21
HETATM   21  C   UNL     1      41.818 -11.560   0.637  1.00  0.00     0.059 C 
BRANCH  21  22
HETATM   22  C   UNL     1      41.775 -11.394  -0.871  1.00  0.00    -0.057 A 
HETATM   23  C   UNL     1      42.657 -12.169  -1.642  1.00  0.00     0.007 A 
HETATM   24  C   UNL     1      42.668 -12.077  -3.035  1.00  0.00     0.001 A 
HETATM   25  C   UNL     1      41.796 -11.207  -3.682  1.00  0.00     0.000 A 
HETATM   26  C   UNL     1      40.911 -10.435  -2.936  1.00  0.00     0.001 A 
HETATM   27  C   UNL     1      40.895 -10.530  -1.540  1.00  0.00     0.007 A 
ENDBRANCH  21  22
ENDBRANCH  20  21
ENDBRANCH   1  20
BRANCH   5  28
HETATM   28  C   UNL     1      40.022 -14.490  -0.660  1.00  0.00     0.045 A 
HETATM   29  C   UNL     1      40.943 -15.310  -1.338  1.00  0.00     0.079 A 
HETATM   30  C   UNL     1      40.928 -15.423  -2.727  1.00  0.00     0.037 A 
HETATM   31  C   UNL     1      40.007 -14.692  -3.472  1.00  0.00     0.003 A 
HETATM   32  C   UNL     1      39.115 -13.839  -2.826  1.00  0.00     0.001 A 
HETATM   33  C   UNL     1      39.131 -13.730  -1.431  1.00  0.00     0.018 A 
BRANCH  29  34
HETATM   34  O   UNL     1      41.911 -16.031  -0.685  1.00  0.00    -0.360 OA
HETATM   35  H   UNL     1      42.204 -15.509   0.092  1.00  0.00     0.217 HD
ENDBRANCH  29  34
ENDBRANCH   5  28
TORSDOF 8
ENDMDL
MODEL 9
REMARK VINA RESULT:      -8.3      3.084      4.347
REMARK  8 active torsions:
REMARK  status: ('A' for Active; 'I' for Inactive)
REMARK    1  A    between atoms: C_4  and  C_5 
REMARK    2  A    between atoms: C_5  and  C_6 
REMARK    3  A    between atoms: C_6  and  N_7 
REMARK    4  A    between atoms: C_8  and  S_9 
REMARK    5  A    between atoms: S_9  and  C_10 
REMARK    6  A    between atoms: C_10  and  C_11 
REMARK    7  A    between atoms: C_24  and  C_25 
REMARK    8  A    between atoms: C_26  and  O_27 
ROOT
HETATM    1  N   UNL     1      42.384 -15.219   4.350  1.00  0.00    -0.307 N 
HETATM    2  C   UNL     1      43.448 -14.746   5.076  1.00  0.00     0.192 C 
HETATM    3  N   UNL     1      43.989 -13.724   4.460  1.00  0.00    -0.122 NA
HETATM    4  N   UNL     1      43.237 -13.453   3.357  1.00  0.00    -0.128 NA
HETATM    5  C   UNL     1      42.213 -14.293   3.327  1.00  0.00     0.167 C 
ENDROOT
BRANCH   2   6
HETATM    6  S   UNL     1      43.997 -15.369   6.592  1.00  0.00    -0.083 SA
BRANCH   6   7
HETATM    7  C   UNL     1      45.095 -14.012   7.110  1.00  0.00     0.161 C 
BRANCH   7   8
HETATM    8  C   UNL     1      44.402 -12.931   7.919  1.00  0.00     0.117 A 
HETATM    9  N   UNL     1      44.874 -12.627   9.087  1.00  0.00    -0.234 NA
HETATM   10  C   UNL     1      44.213 -11.641   9.840  1.00  0.00     0.074 A 
HETATM   11  C   UNL     1      43.072 -10.981   9.377  1.00  0.00     0.061 A 
HETATM   12  C   UNL     1      44.707 -11.314  11.103  1.00  0.00     0.032 A 
HETATM   13  C   UNL     1      42.575 -11.353   8.044  1.00  0.00     0.259 A 
HETATM   14  C   UNL     1      42.427 -10.011  10.150  1.00  0.00     0.019 A 
HETATM   15  O   UNL     1      41.584 -10.832   7.545  1.00  0.00    -0.267 OA
HETATM   16  N   UNL     1      43.292 -12.326   7.397  1.00  0.00    -0.310 N 
HETATM   17  H   UNL     1      42.960 -12.590   6.478  1.00  0.00     0.170 HD
HETATM   18  C   UNL     1      42.933  -9.695  11.411  1.00  0.00     0.001 A 
HETATM   19  C   UNL     1      44.072 -10.346  11.887  1.00  0.00     0.002 A 
ENDBRANCH   7   8
ENDBRANCH   6   7
ENDBRANCH   2   6
BRANCH   1  20
HETATM   20  C   UNL     1      41.575 -16.404   4.574  1.00  0.00     0.137 C 
BRANCH  20  21
HETATM   21  C   UNL     1      41.672 -17.526   3.531  1.00  0.00     0.059 C 
BRANCH  21  22
HETATM   22  C   UNL     1      42.801 -18.524   3.717  1.00  0.00    -0.057 A 
HETATM   23  C   UNL     1      43.245 -19.230   2.586  1.00  0.00     0.007 A 
HETATM   24  C   UNL     1      44.285 -20.157   2.678  1.00  0.00     0.001 A 
HETATM   25  C   UNL     1      44.899 -20.394   3.904  1.00  0.00     0.000 A 
HETATM   26  C   UNL     1      44.477 -19.700   5.033  1.00  0.00     0.001 A 
HETATM   27  C   UNL     1      43.439 -18.767   4.942  1.00  0.00     0.007 A 
ENDBRANCH  21  22
ENDBRANCH  20  21
ENDBRANCH   1  20
BRANCH   5  28
HETATM   28  C   UNL     1      41.151 -14.218   2.317  1.00  0.00     0.045 A 
HETATM   29  C   UNL     1      41.347 -14.784   1.044  1.00  0.00     0.079 A 
HETATM   30  C   UNL     1      40.356 -14.729   0.065  1.00  0.00     0.037 A 
HETATM   31  C   UNL     1      39.154 -14.079   0.332  1.00  0.00     0.003 A 
HETATM   32  C   UNL     1      38.954 -13.473   1.570  1.00  0.00     0.001 A 
HETATM   33  C   UNL     1      39.951 -13.531   2.551  1.00  0.00     0.018 A 
BRANCH  29  34
HETATM   34  O   UNL     1      42.517 -15.404   0.683  1.00  0.00    -0.360 OA
HETATM   35  H   UNL     1      42.529 -15.483  -0.293  1.00  0.00     0.217 HD
ENDBRANCH  29  34
ENDBRANCH   5  28
TORSDOF 8
ENDMDL
MODEL 10
REMARK VINA RESULT:      -8.3      6.355      9.849
REMARK  8 active torsions:
REMARK  status: ('A' for Active; 'I' for Inactive)
REMARK    1  A    between atoms: C_4  and  C_5 
REMARK    2  A    between atoms: C_5  and  C_6 
REMARK    3  A    between atoms: C_6  and  N_7 
REMARK    4  A    between atoms: C_8  and  S_9 
REMARK    5  A    between atoms: S_9  and  C_10 
REMARK    6  A    between atoms: C_10  and  C_11 
REMARK    7  A    between atoms: C_24  and  C_25 
REMARK    8  A    between atoms: C_26  and  O_27 
ROOT
HETATM    1  N   UNL     1      42.313 -17.662   2.494  1.00  0.00    -0.307 N 
HETATM    2  C   UNL     1      42.297 -16.903   1.350  1.00  0.00     0.192 C 
HETATM    3  N   UNL     1      43.437 -17.030   0.715  1.00  0.00    -0.122 NA
HETATM    4  N   UNL     1      44.192 -17.941   1.390  1.00  0.00    -0.128 NA
HETATM    5  C   UNL     1      43.491 -18.396   2.416  1.00  0.00     0.167 C 
ENDROOT
BRANCH   2   6
HETATM    6  S   UNL     1      40.975 -15.940   0.791  1.00  0.00    -0.083 SA
BRANCH   6   7
HETATM    7  C   UNL     1      41.733 -14.287   0.874  1.00  0.00     0.161 C 
BRANCH   7   8
HETATM    8  C   UNL     1      41.867 -13.601  -0.474  1.00  0.00     0.117 A 
HETATM    9  N   UNL     1      42.225 -12.357  -0.508  1.00  0.00    -0.234 NA
HETATM   10  C   UNL     1      42.325 -11.722  -1.757  1.00  0.00     0.074 A 
HETATM   11  C   UNL     1      42.052 -12.381  -2.959  1.00  0.00     0.061 A 
HETATM   12  C   UNL     1      42.699 -10.379  -1.803  1.00  0.00     0.032 A 
HETATM   13  C   UNL     1      41.656 -13.795  -2.875  1.00  0.00     0.259 A 
HETATM   14  C   UNL     1      42.149 -11.724  -4.189  1.00  0.00     0.019 A 
HETATM   15  O   UNL     1      41.399 -14.464  -3.869  1.00  0.00    -0.267 OA
HETATM   16  N   UNL     1      41.588 -14.314  -1.608  1.00  0.00    -0.310 N 
HETATM   17  H   UNL     1      41.317 -15.286  -1.537  1.00  0.00     0.170 HD
HETATM   18  C   UNL     1      42.525 -10.381  -4.219  1.00  0.00     0.001 A 
HETATM   19  C   UNL     1      42.799  -9.709  -3.027  1.00  0.00     0.002 A 
ENDBRANCH   7   8
ENDBRANCH   6   7
ENDBRANCH   2   6
BRANCH   1  20
HETATM   20  C   UNL     1      41.332 -17.729   3.563  1.00  0.00     0.137 C 
BRANCH  20  21
HETATM   21  C   UNL     1      41.208 -16.502   4.478  1.00  0.00     0.059 C 
BRANCH  21  22
HETATM   22  C   UNL     1      42.178 -16.428   5.643  1.00  0.00    -0.057 A 
HETATM   23  C   UNL     1      42.011 -17.345   6.694  1.00  0.00     0.007 A 
HETATM   24  C   UNL     1      42.870 -17.344   7.795  1.00  0.00     0.001 A 
HETATM   25  C   UNL     1      43.912 -16.424   7.863  1.00  0.00     0.000 A 
HETATM   26  C   UNL     1      44.097 -15.512   6.829  1.00  0.00     0.001 A 
HETATM   27  C   UNL     1      43.240 -15.516   5.723  1.00  0.00     0.007 A 
ENDBRANCH  21  22
ENDBRANCH  20  21
ENDBRANCH   1  20
BRANCH   5  28
HETATM   28  C   UNL     1      43.974 -19.462   3.301  1.00  0.00     0.045 A 
HETATM   29  C   UNL     1      44.128 -20.772   2.811  1.00  0.00     0.079 A 
HETATM   30  C   UNL     1      44.587 -21.803   3.628  1.00  0.00     0.037 A 
HETATM   31  C   UNL     1      44.874 -21.551   4.967  1.00  0.00     0.003 A 
HETATM   32  C   UNL     1      44.688 -20.272   5.486  1.00  0.00     0.001 A 
HETATM   33  C   UNL     1      44.229 -19.238   4.663  1.00  0.00     0.018 A 
BRANCH  29  34
HETATM   34  O   UNL     1      43.827 -21.116   1.517  1.00  0.00    -0.360 OA
HETATM   35  H   UNL     1      42.853 -21.078   1.414  1.00  0.00     0.217 HD
ENDBRANCH  29  34
ENDBRANCH   5  28
TORSDOF 8
ENDMDL
