MODEL 1
REMARK VINA RESULT:      -8.4      0.000      0.000
REMARK  5 active torsions:
REMARK  status: ('A' for Active; 'I' for Inactive)
REMARK    1  A    between atoms: C_2  and  C_3 
REMARK    2  A    between atoms: C_2  and  C_19 
REMARK       I    between atoms: C_3  and  N_4 
REMARK    3  A    between atoms: N_4  and  C_5 
REMARK    4  A    between atoms: C_8  and  O_9 
REMARK    5  A    between atoms: O_9  and  C_10 
ROOT
HETATM    1  C   UNL     1      42.758 -16.535   2.821  1.00  0.00     0.234 C 
HETATM    2  N   UNL     1      41.527 -16.430   2.188  1.00  0.00    -0.325 N 
HETATM    3  O   UNL     1      43.776 -15.945   2.470  1.00  0.00    -0.272 OA
HETATM    4  H   UNL     1      40.743 -16.884   2.642  1.00  0.00     0.169 HD
ENDROOT
BRANCH   2   5
HETATM    5  C   UNL     1      41.233 -15.695   1.022  1.00  0.00     0.052 A 
HETATM    6  C   UNL     1      40.683 -14.417   0.992  1.00  0.00     0.149 A 
HETATM    7  N   UNL     1      40.428 -13.723  -0.148  1.00  0.00    -0.235 NA
HETATM    8  C   UNL     1      40.738 -14.326  -1.313  1.00  0.00     0.169 A 
HETATM    9  C   UNL     1      41.275 -15.600  -1.393  1.00  0.00     0.060 A 
HETATM   10  C   UNL     1      41.530 -16.289  -0.208  1.00  0.00     0.035 A 
BRANCH   8  11
HETATM   11  O   UNL     1      40.471 -13.693  -2.521  1.00  0.00    -0.291 OA
BRANCH  11  12
HETATM   12  C   UNL     1      39.293 -13.999  -3.149  1.00  0.00     0.095 A 
HETATM   13  C   UNL     1      39.051 -15.212  -3.784  1.00  0.00     0.153 A 
HETATM   14  N   UNL     1      37.858 -15.552  -4.334  1.00  0.00    -0.270 NA
HETATM   15  C   UNL     1      36.873 -14.632  -4.249  1.00  0.00     0.116 A 
HETATM   16  C   UNL     1      37.015 -13.401  -3.626  1.00  0.00     0.022 A 
HETATM   17  C   UNL     1      38.247 -13.088  -3.055  1.00  0.00     0.040 A 
ENDBRANCH  11  12
ENDBRANCH   8  11
ENDBRANCH   2   5
BRANCH   1  18
HETATM   18  C   UNL     1      42.756 -17.520   4.026  1.00  0.00     0.061 C 
HETATM   19  C   UNL     1      43.485 -16.802   5.184  1.00  0.00     0.030 C 
HETATM   20  C   UNL     1      41.304 -17.771   4.490  1.00  0.00     0.030 C 
BRANCH  18  21
HETATM   21  C   UNL     1      43.382 -18.870   3.625  1.00  0.00    -0.038 A 
HETATM   22  C   UNL     1      44.208 -19.611   4.487  1.00  0.00     0.050 A 
HETATM   23  C   UNL     1      44.756 -20.823   4.071  1.00  0.00     0.117 A 
HETATM   24  F   UNL     1      45.548 -21.505   4.910  1.00  0.00    -0.206 F 
HETATM   25  C   UNL     1      44.501 -21.335   2.806  1.00  0.00     0.042 A 
HETATM   26  C   UNL     1      43.681 -20.622   1.939  1.00  0.00     0.004 A 
HETATM   27  C   UNL     1      43.128 -19.403   2.344  1.00  0.00     0.008 A 
ENDBRANCH  18  21
ENDBRANCH   1  18
TORSDOF 5
ENDMDL
MODEL 2
REMARK VINA RESULT:      -8.3      4.767      8.889
REMARK  5 active torsions:
REMARK  status: ('A' for Active; 'I' for Inactive)
REMARK    1  A    between atoms: C_2  and  C_3 
REMARK    2  A    between atoms: C_2  and  C_19 
REMARK       I    between atoms: C_3  and  N_4 
REMARK    3  A    between atoms: N_4  and  C_5 
REMARK    4  A    between atoms: C_8  and  O_9 
REMARK    5  A    between atoms: O_9  and  C_10 
ROOT
HETATM    1  C   UNL     1      43.115 -15.995   3.648  1.00  0.00     0.234 C 
HETATM    2  N   UNL     1      42.787 -15.801   4.983  1.00  0.00    -0.325 N 
HETATM    3  O   UNL     1      43.891 -15.288   3.010  1.00  0.00    -0.272 OA
HETATM    4  H   UNL     1      42.220 -16.518   5.420  1.00  0.00     0.169 HD
ENDROOT
BRANCH   2   5
HETATM    5  C   UNL     1      43.223 -14.754   5.820  1.00  0.00     0.052 A 
HETATM    6  C   UNL     1      42.626 -13.500   5.918  1.00  0.00     0.149 A 
HETATM    7  N   UNL     1      43.056 -12.515   6.748  1.00  0.00    -0.235 NA
HETATM    8  C   UNL     1      44.127 -12.788   7.520  1.00  0.00     0.169 A 
HETATM    9  C   UNL     1      44.801 -13.998   7.488  1.00  0.00     0.060 A 
HETATM   10  C   UNL     1      44.336 -14.994   6.629  1.00  0.00     0.035 A 
BRANCH   8  11
HETATM   11  O   UNL     1      44.645 -11.817   8.367  1.00  0.00    -0.291 OA
BRANCH  11  12
HETATM   12  C   UNL     1      43.969 -11.564   9.531  1.00  0.00     0.095 A 
HETATM   13  C   UNL     1      42.841 -10.756   9.607  1.00  0.00     0.153 A 
HETATM   14  N   UNL     1      42.119 -10.571  10.741  1.00  0.00    -0.270 NA
HETATM   15  C   UNL     1      42.554 -11.219  11.844  1.00  0.00     0.116 A 
HETATM   16  C   UNL     1      43.661 -12.056  11.862  1.00  0.00     0.022 A 
HETATM   17  C   UNL     1      44.371 -12.239  10.679  1.00  0.00     0.040 A 
ENDBRANCH  11  12
ENDBRANCH   8  11
ENDBRANCH   2   5
BRANCH   1  18
HETATM   18  C   UNL     1      42.369 -17.193   2.991  1.00  0.00     0.061 C 
HETATM   19  C   UNL     1      40.987 -17.281   3.676  1.00  0.00     0.030 C 
HETATM   20  C   UNL     1      42.117 -16.891   1.497  1.00  0.00     0.030 C 
BRANCH  18  21
HETATM   21  C   UNL     1      43.210 -18.480   3.096  1.00  0.00    -0.038 A 
HETATM   22  C   UNL     1      43.229 -19.460   2.091  1.00  0.00     0.050 A 
HETATM   23  C   UNL     1      44.002 -20.611   2.239  1.00  0.00     0.117 A 
HETATM   24  F   UNL     1      43.993 -21.534   1.269  1.00  0.00    -0.206 F 
HETATM   25  C   UNL     1      44.774 -20.820   3.373  1.00  0.00     0.042 A 
HETATM   26  C   UNL     1      44.777 -19.859   4.379  1.00  0.00     0.004 A 
HETATM   27  C   UNL     1      44.003 -18.703   4.242  1.00  0.00     0.008 A 
ENDBRANCH  18  21
ENDBRANCH   1  18
TORSDOF 5
ENDMDL
MODEL 3
REMARK VINA RESULT:      -8.2      1.768      2.441
REMARK  5 active torsions:
REMARK  status: ('A' for Active; 'I' for Inactive)
REMARK    1  A    between atoms: C_2  and  C_3 
REMARK    2  A    between atoms: C_2  and  C_19 
REMARK       I    between atoms: C_3  and  N_4 
REMARK    3  A    between atoms: N_4  and  C_5 
REMARK    4  A    between atoms: C_8  and  O_9 
REMARK    5  A    between atoms: O_9  and  C_10 
ROOT
HETATM    1  C   UNL     1      42.631 -16.510   2.946  1.00  0.00     0.234 C 
HETATM    2  N   UNL     1      41.366 -16.510   2.374  1.00  0.00    -0.325 N 
HETATM    3  O   UNL     1      43.576 -15.832   2.550  1.00  0.00    -0.272 OA
HETATM    4  H   UNL     1      40.648 -17.033   2.862  1.00  0.00     0.169 HD
ENDROOT
BRANCH   2   5
HETATM    5  C   UNL     1      40.952 -15.798   1.231  1.00  0.00     0.052 A 
HETATM    6  C   UNL     1      40.118 -14.684   1.233  1.00  0.00     0.149 A 
HETATM    7  N   UNL     1      39.751 -14.004   0.116  1.00  0.00    -0.235 NA
HETATM    8  C   UNL     1      40.238 -14.450  -1.060  1.00  0.00     0.169 A 
HETATM    9  C   UNL     1      41.063 -15.557  -1.172  1.00  0.00     0.060 A 
HETATM   10  C   UNL     1      41.428 -16.234  -0.009  1.00  0.00     0.035 A 
BRANCH   8  11
HETATM   11  O   UNL     1      39.876 -13.828  -2.248  1.00  0.00    -0.291 OA
BRANCH  11  12
HETATM   12  C   UNL     1      40.575 -12.708  -2.615  1.00  0.00     0.095 A 
HETATM   13  C   UNL     1      40.346 -11.447  -2.078  1.00  0.00     0.153 A 
HETATM   14  N   UNL     1      41.091 -10.353  -2.377  1.00  0.00    -0.270 NA
HETATM   15  C   UNL     1      42.101 -10.534  -3.256  1.00  0.00     0.116 A 
HETATM   16  C   UNL     1      42.413 -11.756  -3.834  1.00  0.00     0.022 A 
HETATM   17  C   UNL     1      41.641 -12.864  -3.495  1.00  0.00     0.040 A 
ENDBRANCH  11  12
ENDBRANCH   8  11
ENDBRANCH   2   5
BRANCH   1  18
HETATM   18  C   UNL     1      42.775 -17.498   4.140  1.00  0.00     0.061 C 
HETATM   19  C   UNL     1      43.596 -16.763   5.224  1.00  0.00     0.030 C 
HETATM   20  C   UNL     1      41.383 -17.788   4.745  1.00  0.00     0.030 C 
BRANCH  18  21
HETATM   21  C   UNL     1      43.393 -18.829   3.673  1.00  0.00    -0.038 A 
HETATM   22  C   UNL     1      44.236 -19.603   4.487  1.00  0.00     0.050 A 
HETATM   23  C   UNL     1      44.776 -20.798   4.012  1.00  0.00     0.117 A 
HETATM   24  F   UNL     1      45.585 -21.511   4.807  1.00  0.00    -0.206 F 
HETATM   25  C   UNL     1      44.496 -21.258   2.733  1.00  0.00     0.042 A 
HETATM   26  C   UNL     1      43.659 -20.511   1.912  1.00  0.00     0.004 A 
HETATM   27  C   UNL     1      43.114 -19.310   2.376  1.00  0.00     0.008 A 
ENDBRANCH  18  21
ENDBRANCH   1  18
TORSDOF 5
ENDMDL
MODEL 4
REMARK VINA RESULT:      -8.2      1.370      1.969
REMARK  5 active torsions:
REMARK  status: ('A' for Active; 'I' for Inactive)
REMARK    1  A    between atoms: C_2  and  C_3 
REMARK    2  A    between atoms: C_2  and  C_19 
REMARK       I    between atoms: C_3  and  N_4 
REMARK    3  A    between atoms: N_4  and  C_5 
REMARK    4  A    between atoms: C_8  and  O_9 
REMARK    5  A    between atoms: O_9  and  C_10 
ROOT
HETATM    1  C   UNL     1      42.651 -16.242   4.173  1.00  0.00     0.234 C 
HETATM    2  N   UNL     1      41.617 -16.472   3.276  1.00  0.00    -0.325 N 
HETATM    3  O   UNL     1      43.577 -15.457   3.984  1.00  0.00    -0.272 OA
HETATM    4  H   UNL     1      40.860 -17.063   3.598  1.00  0.00     0.169 HD
ENDROOT
BRANCH   2   5
HETATM    5  C   UNL     1      41.467 -15.910   1.992  1.00  0.00     0.052 A 
HETATM    6  C   UNL     1      41.203 -14.570   1.725  1.00  0.00     0.149 A 
HETATM    7  N   UNL     1      41.084 -14.051   0.475  1.00  0.00    -0.235 NA
HETATM    8  C   UNL     1      41.236 -14.903  -0.559  1.00  0.00     0.169 A 
HETATM    9  C   UNL     1      41.486 -16.257  -0.401  1.00  0.00     0.060 A 
HETATM   10  C   UNL     1      41.609 -16.762   0.893  1.00  0.00     0.035 A 
BRANCH   8  11
HETATM   11  O   UNL     1      41.090 -14.452  -1.864  1.00  0.00    -0.291 OA
BRANCH  11  12
HETATM   12  C   UNL     1      39.916 -14.745  -2.508  1.00  0.00     0.095 A 
HETATM   13  C   UNL     1      38.719 -14.081  -2.267  1.00  0.00     0.153 A 
HETATM   14  N   UNL     1      37.576 -14.309  -2.960  1.00  0.00    -0.270 NA
HETATM   15  C   UNL     1      37.637 -15.249  -3.929  1.00  0.00     0.116 A 
HETATM   16  C   UNL     1      38.788 -15.954  -4.250  1.00  0.00     0.022 A 
HETATM   17  C   UNL     1      39.950 -15.685  -3.532  1.00  0.00     0.040 A 
ENDBRANCH  11  12
ENDBRANCH   8  11
ENDBRANCH   2   5
BRANCH   1  18
HETATM   18  C   UNL     1      42.565 -17.113   5.460  1.00  0.00     0.061 C 
HETATM   19  C   UNL     1      43.089 -16.238   6.621  1.00  0.00     0.030 C 
HETATM   20  C   UNL     1      41.086 -17.437   5.769  1.00  0.00     0.030 C 
BRANCH  18  21
HETATM   21  C   UNL     1      43.328 -18.438   5.272  1.00  0.00    -0.038 A 
HETATM   22  C   UNL     1      43.898 -18.820   4.047  1.00  0.00     0.050 A 
HETATM   23  C   UNL     1      44.572 -20.035   3.929  1.00  0.00     0.117 A 
HETATM   24  F   UNL     1      45.098 -20.378   2.745  1.00  0.00    -0.206 F 
HETATM   25  C   UNL     1      44.705 -20.894   5.010  1.00  0.00     0.042 A 
HETATM   26  C   UNL     1      44.154 -20.534   6.234  1.00  0.00     0.004 A 
HETATM   27  C   UNL     1      43.473 -19.319   6.364  1.00  0.00     0.008 A 
ENDBRANCH  18  21
ENDBRANCH   1  18
TORSDOF 5
ENDMDL
MODEL 5
REMARK VINA RESULT:      -8.1      4.447      6.986
REMARK  5 active torsions:
REMARK  status: ('A' for Active; 'I' for Inactive)
REMARK    1  A    between atoms: C_2  and  C_3 
REMARK    2  A    between atoms: C_2  and  C_19 
REMARK       I    between atoms: C_3  and  N_4 
REMARK    3  A    between atoms: N_4  and  C_5 
REMARK    4  A    between atoms: C_8  and  O_9 
REMARK    5  A    between atoms: O_9  and  C_10 
ROOT
HETATM    1  C   UNL     1      42.718 -16.335   3.054  1.00  0.00     0.234 C 
HETATM    2  N   UNL     1      41.388 -16.187   3.422  1.00  0.00    -0.325 N 
HETATM    3  O   UNL     1      43.598 -15.505   3.267  1.00  0.00    -0.272 OA
HETATM    4  H   UNL     1      40.787 -16.991   3.284  1.00  0.00     0.169 HD
ENDROOT
BRANCH   2   5
HETATM    5  C   UNL     1      40.799 -15.066   4.040  1.00  0.00     0.052 A 
HETATM    6  C   UNL     1      40.324 -13.938   3.376  1.00  0.00     0.149 A 
HETATM    7  N   UNL     1      39.742 -12.879   3.997  1.00  0.00    -0.235 NA
HETATM    8  C   UNL     1      39.622 -12.944   5.338  1.00  0.00     0.169 A 
HETATM    9  C   UNL     1      40.074 -14.014   6.092  1.00  0.00     0.060 A 
HETATM   10  C   UNL     1      40.664 -15.091   5.430  1.00  0.00     0.035 A 
BRANCH   8  11
HETATM   11  O   UNL     1      39.071 -11.882   6.044  1.00  0.00    -0.291 OA
BRANCH  11  12
HETATM   12  C   UNL     1      39.900 -11.178   6.878  1.00  0.00     0.095 A 
HETATM   13  C   UNL     1      41.031 -10.497   6.444  1.00  0.00     0.153 A 
HETATM   14  N   UNL     1      41.807  -9.731   7.251  1.00  0.00    -0.270 NA
HETATM   15  C   UNL     1      41.433  -9.652   8.547  1.00  0.00     0.116 A 
HETATM   16  C   UNL     1      40.314 -10.286   9.069  1.00  0.00     0.022 A 
HETATM   17  C   UNL     1      39.529 -11.052   8.212  1.00  0.00     0.040 A 
ENDBRANCH  11  12
ENDBRANCH   8  11
ENDBRANCH   2   5
BRANCH   1  18
HETATM   18  C   UNL     1      43.010 -17.660   2.290  1.00  0.00     0.061 C 
HETATM   19  C   UNL     1      41.686 -18.080   1.613  1.00  0.00     0.030 C 
HETATM   20  C   UNL     1      44.032 -17.395   1.162  1.00  0.00     0.030 C 
BRANCH  18  21
HETATM   21  C   UNL     1      43.596 -18.719   3.244  1.00  0.00    -0.038 A 
HETATM   22  C   UNL     1      43.563 -18.585   4.642  1.00  0.00     0.050 A 
HETATM   23  C   UNL     1      44.115 -19.570   5.459  1.00  0.00     0.117 A 
HETATM   24  F   UNL     1      44.078 -19.412   6.789  1.00  0.00    -0.206 F 
HETATM   25  C   UNL     1      44.705 -20.706   4.923  1.00  0.00     0.042 A 
HETATM   26  C   UNL     1      44.743 -20.862   3.542  1.00  0.00     0.004 A 
HETATM   27  C   UNL     1      44.195 -19.880   2.712  1.00  0.00     0.008 A 
ENDBRANCH  18  21
ENDBRANCH   1  18
TORSDOF 5
ENDMDL
MODEL 6
REMARK VINA RESULT:      -8.0      3.042      8.512
REMARK  5 active torsions:
REMARK  status: ('A' for Active; 'I' for Inactive)
REMARK    1  A    between atoms: C_2  and  C_3 
REMARK    2  A    between atoms: C_2  and  C_19 
REMARK       I    between atoms: C_3  and  N_4 
REMARK    3  A    between atoms: N_4  and  C_5 
REMARK    4  A    between atoms: C_8  and  O_9 
REMARK    5  A    between atoms: O_9  and  C_10 
ROOT
HETATM    1  C   UNL     1      40.542 -14.301   1.198  1.00  0.00     0.234 C 
HETATM    2  N   UNL     1      40.623 -15.683   1.306  1.00  0.00    -0.325 N 
HETATM    3  O   UNL     1      41.334 -13.513   1.710  1.00  0.00    -0.272 OA
HETATM    4  H   UNL     1      39.970 -16.220   0.747  1.00  0.00     0.169 HD
ENDROOT
BRANCH   2   5
HETATM    5  C   UNL     1      41.565 -16.422   2.048  1.00  0.00     0.052 A 
HETATM    6  C   UNL     1      41.316 -17.057   3.262  1.00  0.00     0.149 A 
HETATM    7  N   UNL     1      42.240 -17.780   3.947  1.00  0.00    -0.235 NA
HETATM    8  C   UNL     1      43.468 -17.880   3.400  1.00  0.00     0.169 A 
HETATM    9  C   UNL     1      43.822 -17.275   2.205  1.00  0.00     0.060 A 
HETATM   10  C   UNL     1      42.853 -16.542   1.520  1.00  0.00     0.035 A 
BRANCH   8  11
HETATM   11  O   UNL     1      44.474 -18.572   4.062  1.00  0.00    -0.291 OA
BRANCH  11  12
HETATM   12  C   UNL     1      44.550 -19.926   3.860  1.00  0.00     0.095 A 
HETATM   13  C   UNL     1      44.798 -20.843   4.874  1.00  0.00     0.153 A 
HETATM   14  N   UNL     1      44.791 -22.188   4.694  1.00  0.00    -0.270 NA
HETATM   15  C   UNL     1      44.533 -22.626   3.442  1.00  0.00     0.116 A 
HETATM   16  C   UNL     1      44.262 -21.788   2.370  1.00  0.00     0.022 A 
HETATM   17  C   UNL     1      44.260 -20.413   2.590  1.00  0.00     0.040 A 
ENDBRANCH  11  12
ENDBRANCH   8  11
ENDBRANCH   2   5
BRANCH   1  18
HETATM   18  C   UNL     1      39.309 -13.810   0.386  1.00  0.00     0.061 C 
HETATM   19  C   UNL     1      38.057 -14.345   1.118  1.00  0.00     0.030 C 
HETATM   20  C   UNL     1      39.236 -12.268   0.432  1.00  0.00     0.030 C 
BRANCH  18  21
HETATM   21  C   UNL     1      39.417 -14.252  -1.086  1.00  0.00    -0.038 A 
HETATM   22  C   UNL     1      40.624 -14.679  -1.665  1.00  0.00     0.050 A 
HETATM   23  C   UNL     1      40.669 -15.060  -3.005  1.00  0.00     0.117 A 
HETATM   24  F   UNL     1      41.835 -15.454  -3.534  1.00  0.00    -0.206 F 
HETATM   25  C   UNL     1      39.532 -15.036  -3.801  1.00  0.00     0.042 A 
HETATM   26  C   UNL     1      38.325 -14.624  -3.247  1.00  0.00     0.004 A 
HETATM   27  C   UNL     1      38.268 -14.236  -1.905  1.00  0.00     0.008 A 
ENDBRANCH  18  21
ENDBRANCH   1  18
TORSDOF 5
ENDMDL
MODEL 7
REMARK VINA RESULT:      -8.0      2.347      3.334
REMARK  5 active torsions:
REMARK  status: ('A' for Active; 'I' for Inactive)
REMARK    1  A    between atoms: C_2  and  C_3 
REMARK    2  A    between atoms: C_2  and  C_19 
REMARK       I    between atoms: C_3  and  N_4 
REMARK    3  A    between atoms: N_4  and  C_5 
REMARK    4  A    between atoms: C_8  and  O_9 
REMARK    5  A    between atoms: O_9  and  C_10 
ROOT
HETATM    1  C   UNL     1      43.011 -17.925   4.776  1.00  0.00     0.234 C 
HETATM    2  N   UNL     1      43.604 -17.097   3.833  1.00  0.00    -0.325 N 
HETATM    3  O   UNL     1      41.805 -17.968   5.007  1.00  0.00    -0.272 OA
HETATM    4  H   UNL     1      44.593 -17.237   3.665  1.00  0.00     0.169 HD
ENDROOT
BRANCH   2   5
HETATM    5  C   UNL     1      42.963 -16.134   3.027  1.00  0.00     0.052 A 
HETATM    6  C   UNL     1      42.019 -16.408   2.042  1.00  0.00     0.149 A 
HETATM    7  N   UNL     1      41.402 -15.457   1.293  1.00  0.00    -0.235 NA
HETATM    8  C   UNL     1      41.736 -14.174   1.536  1.00  0.00     0.169 A 
HETATM    9  C   UNL     1      42.675 -13.797   2.483  1.00  0.00     0.060 A 
HETATM   10  C   UNL     1      43.290 -14.792   3.241  1.00  0.00     0.035 A 
BRANCH   8  11
HETATM   11  O   UNL     1      41.174 -13.150   0.784  1.00  0.00    -0.291 OA
BRANCH  11  12
HETATM   12  C   UNL     1      41.232 -13.262  -0.581  1.00  0.00     0.095 A 
HETATM   13  C   UNL     1      40.135 -13.577  -1.374  1.00  0.00     0.153 A 
HETATM   14  N   UNL     1      40.168 -13.607  -2.730  1.00  0.00    -0.270 NA
HETATM   15  C   UNL     1      41.353 -13.316  -3.310  1.00  0.00     0.116 A 
HETATM   16  C   UNL     1      42.498 -12.979  -2.603  1.00  0.00     0.022 A 
HETATM   17  C   UNL     1      42.428 -12.940  -1.212  1.00  0.00     0.040 A 
ENDBRANCH  11  12
ENDBRANCH   8  11
ENDBRANCH   2   5
BRANCH   1  18
HETATM   18  C   UNL     1      44.029 -18.795   5.569  1.00  0.00     0.061 C 
HETATM   19  C   UNL     1      45.292 -17.927   5.766  1.00  0.00     0.030 C 
HETATM   20  C   UNL     1      43.466 -19.101   6.975  1.00  0.00     0.030 C 
BRANCH  18  21
HETATM   21  C   UNL     1      44.285 -20.129   4.843  1.00  0.00    -0.038 A 
HETATM   22  C   UNL     1      44.281 -20.247   3.443  1.00  0.00     0.050 A 
HETATM   23  C   UNL     1      44.512 -21.480   2.836  1.00  0.00     0.117 A 
HETATM   24  F   UNL     1      44.492 -21.565   1.499  1.00  0.00    -0.206 F 
HETATM   25  C   UNL     1      44.756 -22.620   3.589  1.00  0.00     0.042 A 
HETATM   26  C   UNL     1      44.771 -22.527   4.976  1.00  0.00     0.004 A 
HETATM   27  C   UNL     1      44.538 -21.295   5.596  1.00  0.00     0.008 A 
ENDBRANCH  18  21
ENDBRANCH   1  18
TORSDOF 5
ENDMDL
MODEL 8
REMARK VINA RESULT:      -7.9      2.673      3.461
REMARK  5 active torsions:
REMARK  status: ('A' for Active; 'I' for Inactive)
REMARK    1  A    between atoms: C_2  and  C_3 
REMARK    2  A    between atoms: C_2  and  C_19 
REMARK       I    between atoms: C_3  and  N_4 
REMARK    3  A    between atoms: N_4  and  C_5 
REMARK    4  A    between atoms: C_8  and  O_9 
REMARK    5  A    between atoms: O_9  and  C_10 
ROOT
HETATM    1  C   UNL     1      43.090 -17.951   4.674  1.00  0.00     0.234 C 
HETATM    2  N   UNL     1      43.769 -17.073   3.840  1.00  0.00    -0.325 N 
HETATM    3  O   UNL     1      41.869 -17.993   4.797  1.00  0.00    -0.272 OA
HETATM    4  H   UNL     1      44.768 -17.214   3.749  1.00  0.00     0.169 HD
ENDROOT
BRANCH   2   5
HETATM    5  C   UNL     1      43.208 -16.053   3.045  1.00  0.00     0.052 A 
HETATM    6  C   UNL     1      43.373 -14.687   3.253  1.00  0.00     0.149 A 
HETATM    7  N   UNL     1      42.835 -13.725   2.458  1.00  0.00    -0.235 NA
HETATM    8  C   UNL     1      42.103 -14.140   1.405  1.00  0.00     0.169 A 
HETATM    9  C   UNL     1      41.867 -15.475   1.118  1.00  0.00     0.060 A 
HETATM   10  C   UNL     1      42.434 -16.441   1.948  1.00  0.00     0.035 A 
BRANCH   8  11
HETATM   11  O   UNL     1      41.492 -13.213   0.569  1.00  0.00    -0.291 OA
BRANCH  11  12
HETATM   12  C   UNL     1      40.124 -13.138   0.602  1.00  0.00     0.095 A 
HETATM   13  C   UNL     1      39.405 -12.650   1.686  1.00  0.00     0.153 A 
HETATM   14  N   UNL     1      38.057 -12.495   1.690  1.00  0.00    -0.270 NA
HETATM   15  C   UNL     1      37.407 -12.852   0.561  1.00  0.00     0.116 A 
HETATM   16  C   UNL     1      38.039 -13.337  -0.575  1.00  0.00     0.022 A 
HETATM   17  C   UNL     1      39.425 -13.469  -0.554  1.00  0.00     0.040 A 
ENDBRANCH  11  12
ENDBRANCH   8  11
ENDBRANCH   2   5
BRANCH   1  18
HETATM   18  C   UNL     1      44.029 -18.882   5.495  1.00  0.00     0.061 C 
HETATM   19  C   UNL     1      45.307 -18.066   5.795  1.00  0.00     0.030 C 
HETATM   20  C   UNL     1      43.373 -19.212   6.854  1.00  0.00     0.030 C 
BRANCH  18  21
HETATM   21  C   UNL     1      44.283 -20.200   4.740  1.00  0.00    -0.038 A 
HETATM   22  C   UNL     1      44.188 -20.307   3.343  1.00  0.00     0.050 A 
HETATM   23  C   UNL     1      44.420 -21.527   2.710  1.00  0.00     0.117 A 
HETATM   24  F   UNL     1      44.313 -21.603   1.376  1.00  0.00    -0.206 F 
HETATM   25  C   UNL     1      44.755 -22.663   3.433  1.00  0.00     0.042 A 
HETATM   26  C   UNL     1      44.861 -22.580   4.816  1.00  0.00     0.004 A 
HETATM   27  C   UNL     1      44.627 -21.362   5.463  1.00  0.00     0.008 A 
ENDBRANCH  18  21
ENDBRANCH   1  18
TORSDOF 5
ENDMDL
MODEL 9
REMARK VINA RESULT:      -7.6      5.433      9.290
REMARK  5 active torsions:
REMARK  status: ('A' for Active; 'I' for Inactive)
REMARK    1  A    between atoms: C_2  and  C_3 
REMARK    2  A    between atoms: C_2  and  C_19 
REMARK       I    between atoms: C_3  and  N_4 
REMARK    3  A    between atoms: N_4  and  C_5 
REMARK    4  A    between atoms: C_8  and  O_9 
REMARK    5  A    between atoms: O_9  and  C_10 
ROOT
HETATM    1  C   UNL     1      42.344 -15.855   5.258  1.00  0.00     0.234 C 
HETATM    2  N   UNL     1      43.360 -14.910   5.325  1.00  0.00    -0.325 N 
HETATM    3  O   UNL     1      41.397 -15.917   6.038  1.00  0.00    -0.272 OA
HETATM    4  H   UNL     1      44.022 -14.902   4.558  1.00  0.00     0.169 HD
ENDROOT
BRANCH   2   5
HETATM    5  C   UNL     1      43.525 -13.911   6.304  1.00  0.00     0.052 A 
HETATM    6  C   UNL     1      44.478 -13.927   7.319  1.00  0.00     0.149 A 
HETATM    7  N   UNL     1      44.628 -12.938   8.239  1.00  0.00    -0.235 NA
HETATM    8  C   UNL     1      43.795 -11.882   8.144  1.00  0.00     0.169 A 
HETATM    9  C   UNL     1      42.805 -11.776   7.181  1.00  0.00     0.060 A 
HETATM   10  C   UNL     1      42.675 -12.803   6.247  1.00  0.00     0.035 A 
BRANCH   8  11
HETATM   11  O   UNL     1      43.865 -10.851   9.072  1.00  0.00    -0.291 OA
BRANCH  11  12
HETATM   12  C   UNL     1      43.120 -10.977  10.216  1.00  0.00     0.095 A 
HETATM   13  C   UNL     1      41.744 -10.793  10.263  1.00  0.00     0.153 A 
HETATM   14  N   UNL     1      40.991 -10.998  11.373  1.00  0.00    -0.270 NA
HETATM   15  C   UNL     1      41.652 -11.398  12.481  1.00  0.00     0.116 A 
HETATM   16  C   UNL     1      43.021 -11.620  12.528  1.00  0.00     0.022 A 
HETATM   17  C   UNL     1      43.763 -11.417  11.368  1.00  0.00     0.040 A 
ENDBRANCH  11  12
ENDBRANCH   8  11
ENDBRANCH   2   5
BRANCH   1  18
HETATM   18  C   UNL     1      42.525 -16.884   4.106  1.00  0.00     0.061 C 
HETATM   19  C   UNL     1      41.122 -17.125   3.504  1.00  0.00     0.030 C 
HETATM   20  C   UNL     1      43.397 -16.267   2.990  1.00  0.00     0.030 C 
BRANCH  18  21
HETATM   21  C   UNL     1      43.219 -18.160   4.620  1.00  0.00    -0.038 A 
HETATM   22  C   UNL     1      43.105 -18.605   5.948  1.00  0.00     0.050 A 
HETATM   23  C   UNL     1      43.761 -19.762   6.364  1.00  0.00     0.117 A 
HETATM   24  F   UNL     1      43.643 -20.159   7.638  1.00  0.00    -0.206 F 
HETATM   25  C   UNL     1      44.536 -20.508   5.486  1.00  0.00     0.042 A 
HETATM   26  C   UNL     1      44.658 -20.090   4.166  1.00  0.00     0.004 A 
HETATM   27  C   UNL     1      44.007 -18.929   3.738  1.00  0.00     0.008 A 
ENDBRANCH  18  21
ENDBRANCH   1  18
TORSDOF 5
ENDMDL
MODEL 10
REMARK VINA RESULT:      -7.5      4.488      6.841
REMARK  5 active torsions:
REMARK  status: ('A' for Active; 'I' for Inactive)
REMARK    1  A    between atoms: C_2  and  C_3 
REMARK    2  A    between atoms: C_2  and  C_19 
REMARK       I    between atoms: C_3  and  N_4 
REMARK    3  A    between atoms: N_4  and  C_5 
REMARK    4  A    between atoms: C_8  and  O_9 
REMARK    5  A    between atoms: O_9  and  C_10 
ROOT
HETATM    1  C   UNL     1      41.834 -16.953   3.325  1.00  0.00     0.234 C 
HETATM    2  N   UNL     1      41.976 -15.574   3.237  1.00  0.00    -0.325 N 
HETATM    3  O   UNL     1      41.217 -17.536   4.214  1.00  0.00    -0.272 OA
HETATM    4  H   UNL     1      42.416 -15.217   2.398  1.00  0.00     0.169 HD
ENDROOT
BRANCH   2   5
HETATM    5  C   UNL     1      41.506 -14.613   4.154  1.00  0.00     0.052 A 
HETATM    6  C   UNL     1      40.168 -14.298   4.376  1.00  0.00     0.149 A 
HETATM    7  N   UNL     1      39.741 -13.380   5.281  1.00  0.00    -0.235 NA
HETATM    8  C   UNL     1      40.688 -12.747   6.003  1.00  0.00     0.169 A 
HETATM    9  C   UNL     1      42.045 -12.977   5.849  1.00  0.00     0.060 A 
HETATM   10  C   UNL     1      42.456 -13.928   4.916  1.00  0.00     0.035 A 
BRANCH   8  11
HETATM   11  O   UNL     1      40.329 -11.768   6.922  1.00  0.00    -0.291 OA
BRANCH  11  12
HETATM   12  C   UNL     1      40.648 -10.470   6.620  1.00  0.00     0.095 A 
HETATM   13  C   UNL     1      41.462  -9.672   7.415  1.00  0.00     0.153 A 
HETATM   14  N   UNL     1      41.848  -8.416   7.080  1.00  0.00    -0.270 NA
HETATM   15  C   UNL     1      41.390  -7.941   5.901  1.00  0.00     0.116 A 
HETATM   16  C   UNL     1      40.584  -8.665   5.036  1.00  0.00     0.022 A 
HETATM   17  C   UNL     1      40.218  -9.959   5.401  1.00  0.00     0.040 A 
ENDBRANCH  11  12
ENDBRANCH   8  11
ENDBRANCH   2   5
BRANCH   1  18
HETATM   18  C   UNL     1      42.572 -17.729   2.196  1.00  0.00     0.061 C 
HETATM   19  C   UNL     1      41.495 -18.144   1.169  1.00  0.00     0.030 C 
HETATM   20  C   UNL     1      43.550 -16.780   1.468  1.00  0.00     0.030 C 
BRANCH  18  21
HETATM   21  C   UNL     1      43.375 -18.906   2.781  1.00  0.00    -0.038 A 
HETATM   22  C   UNL     1      43.554 -20.119   2.097  1.00  0.00     0.050 A 
HETATM   23  C   UNL     1      44.283 -21.157   2.676  1.00  0.00     0.117 A 
HETATM   24  F   UNL     1      44.430 -22.307   2.004  1.00  0.00    -0.206 F 
HETATM   25  C   UNL     1      44.856 -21.023   3.933  1.00  0.00     0.042 A 
HETATM   26  C   UNL     1      44.698 -19.828   4.626  1.00  0.00     0.004 A 
HETATM   27  C   UNL     1      43.965 -18.782   4.057  1.00  0.00     0.008 A 
ENDBRANCH  18  21
ENDBRANCH   1  18
TORSDOF 5
ENDMDL
