MODEL 1
REMARK VINA RESULT:      -8.1      0.000      0.000
REMARK  6 active torsions:
REMARK  status: ('A' for Active; 'I' for Inactive)
REMARK    1  A    between atoms: C_9  and  C_10 
REMARK       I    between atoms: C_10  and  N_11 
REMARK    2  A    between atoms: N_11  and  C_12 
REMARK    3  A    between atoms: C_12  and  C_13 
REMARK    4  A    between atoms: C_13  and  O_14 
REMARK    5  A    between atoms: C_13  and  C_15 
REMARK    6  A    between atoms: C_18  and  O_19 
ROOT
HETATM    1  C   UNL     1      43.307 -16.976   6.462  1.00  0.00     0.258 C 
HETATM    2  N   UNL     1      44.058 -15.887   6.074  1.00  0.00    -0.350 N 
HETATM    3  O   UNL     1      42.392 -16.894   7.275  1.00  0.00    -0.267 OA
HETATM    4  H   UNL     1      44.710 -16.044   5.306  1.00  0.00     0.163 HD
ENDROOT
BRANCH   2   5
HETATM    5  C   UNL     1      43.704 -14.499   6.413  1.00  0.00     0.114 C 
HETATM    6  C   UNL     1      44.769 -13.896   7.330  1.00  0.00     0.035 C 
BRANCH   5   7
HETATM    7  C   UNL     1      43.394 -13.646   5.146  1.00  0.00     0.173 C 
BRANCH   7   8
HETATM    8  O   UNL     1      44.546 -13.683   4.285  1.00  0.00    -0.389 OA
HETATM    9  H   UNL     1      45.299 -13.462   4.861  1.00  0.00     0.210 HD
ENDBRANCH   7   8
BRANCH   7  10
HETATM   10  C   UNL     1      42.183 -14.101   4.359  1.00  0.00    -0.028 A 
HETATM   11  C   UNL     1      42.328 -14.427   3.002  1.00  0.00     0.012 A 
HETATM   12  C   UNL     1      41.227 -14.834   2.246  1.00  0.00     0.037 A 
HETATM   13  C   UNL     1      39.963 -14.930   2.827  1.00  0.00     0.068 A 
HETATM   14  C   UNL     1      39.806 -14.601   4.174  1.00  0.00     0.037 A 
HETATM   15  C   UNL     1      40.909 -14.187   4.934  1.00  0.00     0.012 A 
BRANCH  13  16
HETATM   16  O   UNL     1      38.976 -15.347   1.977  1.00  0.00    -0.356 OA
HETATM   17  C   UNL     1      38.315 -14.341   1.221  1.00  0.00     0.210 C 
ENDBRANCH  13  16
ENDBRANCH   7  10
ENDBRANCH   5   7
ENDBRANCH   2   5
BRANCH   1  18
HETATM   18  C   UNL     1      43.664 -18.238   5.841  1.00  0.00     0.105 A 
HETATM   19  C   UNL     1      43.816 -18.516   4.493  1.00  0.00     0.169 A 
HETATM   20  N   UNL     1      43.697 -17.718   3.383  1.00  0.00    -0.233 NA
HETATM   21  N   UNL     1      44.117 -19.880   4.402  1.00  0.00    -0.219 N 
HETATM   22  C   UNL     1      43.867 -18.303   2.230  1.00  0.00     0.035 A 
HETATM   23  C   UNL     1      43.744 -17.477   0.975  1.00  0.00     0.070 C 
HETATM   24  C   UNL     1      44.180 -19.754   2.039  1.00  0.00     0.053 A 
HETATM   25  C   UNL     1      44.296 -20.495   3.156  1.00  0.00     0.036 A 
HETATM   26  C   UNL     1      44.600 -21.961   3.132  1.00  0.00     0.070 C 
HETATM   27  N   UNL     1      44.193 -20.457   5.626  1.00  0.00    -0.170 NA
HETATM   28  C   UNL     1      43.912 -19.477   6.490  1.00  0.00     0.071 A 
HETATM   29  C   UNL     1      43.890 -19.763   7.948  1.00  0.00     0.073 C 
ENDBRANCH   1  18
TORSDOF 6
ENDMDL
MODEL 2
REMARK VINA RESULT:      -7.7      4.676      8.578
REMARK  6 active torsions:
REMARK  status: ('A' for Active; 'I' for Inactive)
REMARK    1  A    between atoms: C_9  and  C_10 
REMARK       I    between atoms: C_10  and  N_11 
REMARK    2  A    between atoms: N_11  and  C_12 
REMARK    3  A    between atoms: C_12  and  C_13 
REMARK    4  A    between atoms: C_13  and  O_14 
REMARK    5  A    between atoms: C_13  and  C_15 
REMARK    6  A    between atoms: C_18  and  O_19 
ROOT
HETATM    1  C   UNL     1      41.434 -14.903  -0.191  1.00  0.00     0.258 C 
HETATM    2  N   UNL     1      42.090 -16.115  -0.137  1.00  0.00    -0.350 N 
HETATM    3  O   UNL     1      40.796 -14.452   0.755  1.00  0.00    -0.267 OA
HETATM    4  H   UNL     1      42.687 -16.336  -0.934  1.00  0.00     0.163 HD
ENDROOT
BRANCH   2   5
HETATM    5  C   UNL     1      42.283 -16.875   1.109  1.00  0.00     0.114 C 
HETATM    6  C   UNL     1      41.062 -17.758   1.377  1.00  0.00     0.035 C 
BRANCH   5   7
HETATM    7  C   UNL     1      43.641 -17.639   1.127  1.00  0.00     0.173 C 
BRANCH   7   8
HETATM    8  O   UNL     1      44.702 -16.674   1.018  1.00  0.00    -0.389 OA
HETATM    9  H   UNL     1      45.277 -16.844   1.785  1.00  0.00     0.210 HD
ENDBRANCH   7   8
BRANCH   7  10
HETATM   10  C   UNL     1      43.874 -18.482   2.362  1.00  0.00    -0.028 A 
HETATM   11  C   UNL     1      44.171 -19.846   2.218  1.00  0.00     0.012 A 
HETATM   12  C   UNL     1      44.375 -20.653   3.338  1.00  0.00     0.037 A 
HETATM   13  C   UNL     1      44.293 -20.118   4.624  1.00  0.00     0.068 A 
HETATM   14  C   UNL     1      43.991 -18.765   4.779  1.00  0.00     0.037 A 
HETATM   15  C   UNL     1      43.781 -17.953   3.656  1.00  0.00     0.012 A 
BRANCH  13  16
HETATM   16  O   UNL     1      44.521 -21.016   5.629  1.00  0.00    -0.356 OA
HETATM   17  C   UNL     1      45.014 -22.293   5.247  1.00  0.00     0.210 C 
ENDBRANCH  13  16
ENDBRANCH   7  10
ENDBRANCH   5   7
ENDBRANCH   2   5
BRANCH   1  18
HETATM   18  C   UNL     1      41.548 -14.182  -1.445  1.00  0.00     0.105 A 
HETATM   19  C   UNL     1      42.049 -12.909  -1.658  1.00  0.00     0.169 A 
HETATM   20  N   UNL     1      42.580 -11.986  -0.792  1.00  0.00    -0.233 NA
HETATM   21  N   UNL     1      41.901 -12.649  -3.025  1.00  0.00    -0.219 N 
HETATM   22  C   UNL     1      42.931 -10.842  -1.310  1.00  0.00     0.035 A 
HETATM   23  C   UNL     1      43.516  -9.788  -0.406  1.00  0.00     0.070 C 
HETATM   24  C   UNL     1      42.798 -10.476  -2.755  1.00  0.00     0.053 A 
HETATM   25  C   UNL     1      42.281 -11.414  -3.567  1.00  0.00     0.036 A 
HETATM   26  C   UNL     1      42.079 -11.198  -5.036  1.00  0.00     0.070 C 
HETATM   27  N   UNL     1      41.365 -13.708  -3.680  1.00  0.00    -0.170 NA
HETATM   28  C   UNL     1      41.144 -14.625  -2.733  1.00  0.00     0.071 A 
HETATM   29  C   UNL     1      40.537 -15.931  -3.099  1.00  0.00     0.073 C 
ENDBRANCH   1  18
TORSDOF 6
ENDMDL
MODEL 3
REMARK VINA RESULT:      -7.5      1.698      2.038
REMARK  6 active torsions:
REMARK  status: ('A' for Active; 'I' for Inactive)
REMARK    1  A    between atoms: C_9  and  C_10 
REMARK       I    between atoms: C_10  and  N_11 
REMARK    2  A    between atoms: N_11  and  C_12 
REMARK    3  A    between atoms: C_12  and  C_13 
REMARK    4  A    between atoms: C_13  and  O_14 
REMARK    5  A    between atoms: C_13  and  C_15 
REMARK    6  A    between atoms: C_18  and  O_19 
ROOT
HETATM    1  C   UNL     1      43.285 -17.072   6.459  1.00  0.00     0.258 C 
HETATM    2  N   UNL     1      44.026 -15.981   6.057  1.00  0.00    -0.350 N 
HETATM    3  O   UNL     1      42.365 -16.986   7.268  1.00  0.00    -0.267 OA
HETATM    4  H   UNL     1      44.683 -16.144   5.294  1.00  0.00     0.163 HD
ENDROOT
BRANCH   2   5
HETATM    5  C   UNL     1      43.657 -14.591   6.372  1.00  0.00     0.114 C 
HETATM    6  C   UNL     1      44.667 -13.990   7.351  1.00  0.00     0.035 C 
BRANCH   5   7
HETATM    7  C   UNL     1      43.427 -13.739   5.088  1.00  0.00     0.173 C 
BRANCH   7   8
HETATM    8  O   UNL     1      43.619 -14.588   3.943  1.00  0.00    -0.389 OA
HETATM    9  H   UNL     1      42.919 -15.262   4.008  1.00  0.00     0.210 HD
ENDBRANCH   7   8
BRANCH   7  10
HETATM   10  C   UNL     1      42.059 -13.097   4.994  1.00  0.00    -0.028 A 
HETATM   11  C   UNL     1      41.662 -12.177   5.976  1.00  0.00     0.012 A 
HETATM   12  C   UNL     1      40.401 -11.580   5.926  1.00  0.00     0.037 A 
HETATM   13  C   UNL     1      39.513 -11.883   4.893  1.00  0.00     0.068 A 
HETATM   14  C   UNL     1      39.894 -12.801   3.915  1.00  0.00     0.037 A 
HETATM   15  C   UNL     1      41.158 -13.406   3.966  1.00  0.00     0.012 A 
BRANCH  13  16
HETATM   16  O   UNL     1      38.317 -11.223   4.960  1.00  0.00    -0.356 OA
HETATM   17  C   UNL     1      38.070 -10.242   3.963  1.00  0.00     0.210 C 
ENDBRANCH  13  16
ENDBRANCH   7  10
ENDBRANCH   5   7
ENDBRANCH   2   5
BRANCH   1  18
HETATM   18  C   UNL     1      43.656 -18.340   5.860  1.00  0.00     0.105 A 
HETATM   19  C   UNL     1      43.818 -18.637   4.517  1.00  0.00     0.169 A 
HETATM   20  N   UNL     1      43.697 -17.858   3.394  1.00  0.00    -0.233 NA
HETATM   21  N   UNL     1      44.133 -19.999   4.449  1.00  0.00    -0.219 N 
HETATM   22  C   UNL     1      43.879 -18.459   2.252  1.00  0.00     0.035 A 
HETATM   23  C   UNL     1      43.755 -17.654   0.983  1.00  0.00     0.070 C 
HETATM   24  C   UNL     1      44.206 -19.910   2.085  1.00  0.00     0.053 A 
HETATM   25  C   UNL     1      44.324 -20.632   3.213  1.00  0.00     0.036 A 
HETATM   26  C   UNL     1      44.641 -22.095   3.214  1.00  0.00     0.070 C 
HETATM   27  N   UNL     1      44.207 -20.557   5.682  1.00  0.00    -0.170 NA
HETATM   28  C   UNL     1      43.913 -19.566   6.529  1.00  0.00     0.071 A 
HETATM   29  C   UNL     1      43.886 -19.829   7.991  1.00  0.00     0.073 C 
ENDBRANCH   1  18
TORSDOF 6
ENDMDL
MODEL 4
REMARK VINA RESULT:      -7.3      1.555      2.147
REMARK  6 active torsions:
REMARK  status: ('A' for Active; 'I' for Inactive)
REMARK    1  A    between atoms: C_9  and  C_10 
REMARK       I    between atoms: C_10  and  N_11 
REMARK    2  A    between atoms: N_11  and  C_12 
REMARK    3  A    between atoms: C_12  and  C_13 
REMARK    4  A    between atoms: C_13  and  O_14 
REMARK    5  A    between atoms: C_13  and  C_15 
REMARK    6  A    between atoms: C_18  and  O_19 
ROOT
HETATM    1  C   UNL     1      43.288 -16.229   6.270  1.00  0.00     0.258 C 
HETATM    2  N   UNL     1      42.354 -15.658   5.431  1.00  0.00    -0.350 N 
HETATM    3  O   UNL     1      43.721 -15.658   7.266  1.00  0.00    -0.267 OA
HETATM    4  H   UNL     1      41.976 -16.266   4.705  1.00  0.00     0.163 HD
ENDROOT
BRANCH   2   5
HETATM    5  C   UNL     1      41.623 -14.423   5.757  1.00  0.00     0.114 C 
HETATM    6  C   UNL     1      42.444 -13.203   5.337  1.00  0.00     0.035 C 
BRANCH   5   7
HETATM    7  C   UNL     1      40.168 -14.438   5.199  1.00  0.00     0.173 C 
BRANCH   7   8
HETATM    8  O   UNL     1      39.483 -13.274   5.695  1.00  0.00    -0.389 OA
HETATM    9  H   UNL     1      38.909 -12.988   4.963  1.00  0.00     0.210 HD
ENDBRANCH   7   8
BRANCH   7  10
HETATM   10  C   UNL     1      40.072 -14.452   3.688  1.00  0.00    -0.028 A 
HETATM   11  C   UNL     1      39.607 -13.310   3.017  1.00  0.00     0.012 A 
HETATM   12  C   UNL     1      39.492 -13.298   1.626  1.00  0.00     0.037 A 
HETATM   13  C   UNL     1      39.843 -14.419   0.875  1.00  0.00     0.068 A 
HETATM   14  C   UNL     1      40.300 -15.562   1.531  1.00  0.00     0.037 A 
HETATM   15  C   UNL     1      40.412 -15.579   2.928  1.00  0.00     0.012 A 
BRANCH  13  16
HETATM   16  O   UNL     1      39.689 -14.270  -0.475  1.00  0.00    -0.356 OA
HETATM   17  C   UNL     1      40.705 -14.822  -1.301  1.00  0.00     0.210 C 
ENDBRANCH  13  16
ENDBRANCH   7  10
ENDBRANCH   5   7
ENDBRANCH   2   5
BRANCH   1  18
HETATM   18  C   UNL     1      43.729 -17.562   5.905  1.00  0.00     0.105 A 
HETATM   19  C   UNL     1      43.870 -18.100   4.636  1.00  0.00     0.169 A 
HETATM   20  N   UNL     1      43.658 -17.559   3.393  1.00  0.00    -0.233 NA
HETATM   21  N   UNL     1      44.278 -19.427   4.812  1.00  0.00    -0.219 N 
HETATM   22  C   UNL     1      43.846 -18.354   2.377  1.00  0.00     0.035 A 
HETATM   23  C   UNL     1      43.626 -17.816   0.987  1.00  0.00     0.070 C 
HETATM   24  C   UNL     1      44.271 -19.786   2.473  1.00  0.00     0.053 A 
HETATM   25  C   UNL     1      44.474 -20.270   3.710  1.00  0.00     0.036 A 
HETATM   26  C   UNL     1      44.895 -21.684   3.973  1.00  0.00     0.070 C 
HETATM   27  N   UNL     1      44.430 -19.733   6.123  1.00  0.00    -0.170 NA
HETATM   28  C   UNL     1      44.094 -18.619   6.781  1.00  0.00     0.071 A 
HETATM   29  C   UNL     1      44.131 -18.599   8.266  1.00  0.00     0.073 C 
ENDBRANCH   1  18
TORSDOF 6
ENDMDL
MODEL 5
REMARK VINA RESULT:      -7.3      3.516      6.136
REMARK  6 active torsions:
REMARK  status: ('A' for Active; 'I' for Inactive)
REMARK    1  A    between atoms: C_9  and  C_10 
REMARK       I    between atoms: C_10  and  N_11 
REMARK    2  A    between atoms: N_11  and  C_12 
REMARK    3  A    between atoms: C_12  and  C_13 
REMARK    4  A    between atoms: C_13  and  O_14 
REMARK    5  A    between atoms: C_13  and  C_15 
REMARK    6  A    between atoms: C_18  and  O_19 
ROOT
HETATM    1  C   UNL     1      40.376 -14.148   1.995  1.00  0.00     0.258 C 
HETATM    2  N   UNL     1      41.442 -13.820   1.184  1.00  0.00    -0.350 N 
HETATM    3  O   UNL     1      39.210 -13.935   1.676  1.00  0.00    -0.267 OA
HETATM    4  H   UNL     1      42.356 -14.150   1.492  1.00  0.00     0.163 HD
ENDROOT
BRANCH   2   5
HETATM    5  C   UNL     1      41.290 -13.397  -0.218  1.00  0.00     0.114 C 
HETATM    6  C   UNL     1      42.182 -12.186  -0.498  1.00  0.00     0.035 C 
BRANCH   5   7
HETATM    7  C   UNL     1      41.488 -14.580  -1.212  1.00  0.00     0.173 C 
BRANCH   7   8
HETATM    8  O   UNL     1      41.699 -15.781  -0.448  1.00  0.00    -0.389 OA
HETATM    9  H   UNL     1      41.002 -16.393  -0.741  1.00  0.00     0.210 HD
ENDBRANCH   7   8
BRANCH   7  10
HETATM   10  C   UNL     1      40.331 -14.806  -2.163  1.00  0.00    -0.028 A 
HETATM   11  C   UNL     1      39.185 -14.003  -2.054  1.00  0.00     0.012 A 
HETATM   12  C   UNL     1      38.096 -14.197  -2.905  1.00  0.00     0.037 A 
HETATM   13  C   UNL     1      38.128 -15.190  -3.884  1.00  0.00     0.068 A 
HETATM   14  C   UNL     1      39.259 -15.998  -3.997  1.00  0.00     0.037 A 
HETATM   15  C   UNL     1      40.352 -15.809  -3.140  1.00  0.00     0.012 A 
BRANCH  13  16
HETATM   16  O   UNL     1      36.999 -15.267  -4.652  1.00  0.00    -0.356 OA
HETATM   17  C   UNL     1      36.138 -14.136  -4.642  1.00  0.00     0.210 C 
ENDBRANCH  13  16
ENDBRANCH   7  10
ENDBRANCH   5   7
ENDBRANCH   2   5
BRANCH   1  18
HETATM   18  C   UNL     1      40.717 -14.771   3.260  1.00  0.00     0.105 A 
HETATM   19  C   UNL     1      41.381 -15.968   3.473  1.00  0.00     0.169 A 
HETATM   20  N   UNL     1      41.909 -16.882   2.595  1.00  0.00    -0.233 NA
HETATM   21  N   UNL     1      41.426 -16.154   4.859  1.00  0.00    -0.219 N 
HETATM   22  C   UNL     1      42.445 -17.946   3.122  1.00  0.00     0.035 A 
HETATM   23  C   UNL     1      43.037 -18.987   2.207  1.00  0.00     0.070 C 
HETATM   24  C   UNL     1      42.526 -18.232   4.589  1.00  0.00     0.053 A 
HETATM   25  C   UNL     1      42.004 -17.305   5.411  1.00  0.00     0.036 A 
HETATM   26  C   UNL     1      42.002 -17.447   6.902  1.00  0.00     0.070 C 
HETATM   27  N   UNL     1      40.853 -15.120   5.521  1.00  0.00    -0.170 NA
HETATM   28  C   UNL     1      40.419 -14.294   4.564  1.00  0.00     0.071 A 
HETATM   29  C   UNL     1      39.715 -13.039   4.936  1.00  0.00     0.073 C 
ENDBRANCH   1  18
TORSDOF 6
ENDMDL
MODEL 6
REMARK VINA RESULT:      -7.3      2.053      3.980
REMARK  6 active torsions:
REMARK  status: ('A' for Active; 'I' for Inactive)
REMARK    1  A    between atoms: C_9  and  C_10 
REMARK       I    between atoms: C_10  and  N_11 
REMARK    2  A    between atoms: N_11  and  C_12 
REMARK    3  A    between atoms: C_12  and  C_13 
REMARK    4  A    between atoms: C_13  and  O_14 
REMARK    5  A    between atoms: C_13  and  C_15 
REMARK    6  A    between atoms: C_18  and  O_19 
ROOT
HETATM    1  C   UNL     1      43.284 -16.723   2.826  1.00  0.00     0.258 C 
HETATM    2  N   UNL     1      42.095 -16.905   2.154  1.00  0.00    -0.350 N 
HETATM    3  O   UNL     1      43.997 -15.738   2.657  1.00  0.00    -0.267 OA
HETATM    4  H   UNL     1      41.526 -17.694   2.459  1.00  0.00     0.163 HD
ENDROOT
BRANCH   2   5
HETATM    5  C   UNL     1      41.453 -15.855   1.347  1.00  0.00     0.114 C 
HETATM    6  C   UNL     1      41.431 -16.266  -0.126  1.00  0.00     0.035 C 
BRANCH   5   7
HETATM    7  C   UNL     1      40.061 -15.445   1.917  1.00  0.00     0.173 C 
BRANCH   7   8
HETATM    8  O   UNL     1      39.317 -16.645   2.194  1.00  0.00    -0.389 OA
HETATM    9  H   UNL     1      39.528 -17.248   1.460  1.00  0.00     0.210 HD
ENDBRANCH   7   8
BRANCH   7  10
HETATM   10  C   UNL     1      40.116 -14.605   3.175  1.00  0.00    -0.028 A 
HETATM   11  C   UNL     1      39.976 -13.211   3.078  1.00  0.00     0.012 A 
HETATM   12  C   UNL     1      40.039 -12.409   4.218  1.00  0.00     0.037 A 
HETATM   13  C   UNL     1      40.237 -12.976   5.476  1.00  0.00     0.068 A 
HETATM   14  C   UNL     1      40.384 -14.359   5.584  1.00  0.00     0.037 A 
HETATM   15  C   UNL     1      40.327 -15.167   4.440  1.00  0.00     0.012 A 
BRANCH  13  16
HETATM   16  O   UNL     1      40.271 -12.077   6.506  1.00  0.00    -0.356 OA
HETATM   17  C   UNL     1      41.092 -10.931   6.329  1.00  0.00     0.210 C 
ENDBRANCH  13  16
ENDBRANCH   7  10
ENDBRANCH   5   7
ENDBRANCH   2   5
BRANCH   1  18
HETATM   18  C   UNL     1      43.646 -17.772   3.761  1.00  0.00     0.105 A 
HETATM   19  C   UNL     1      43.904 -19.106   3.492  1.00  0.00     0.169 A 
HETATM   20  N   UNL     1      43.911 -19.809   2.314  1.00  0.00    -0.233 NA
HETATM   21  N   UNL     1      44.161 -19.715   4.726  1.00  0.00    -0.219 N 
HETATM   22  C   UNL     1      44.159 -21.086   2.404  1.00  0.00     0.035 A 
HETATM   23  C   UNL     1      44.176 -21.911   1.143  1.00  0.00     0.070 C 
HETATM   24  C   UNL     1      44.433 -21.821   3.679  1.00  0.00     0.053 A 
HETATM   25  C   UNL     1      44.424 -21.089   4.807  1.00  0.00     0.036 A 
HETATM   26  C   UNL     1      44.673 -21.678   6.162  1.00  0.00     0.070 C 
HETATM   27  N   UNL     1      44.108 -18.823   5.744  1.00  0.00    -0.170 NA
HETATM   28  C   UNL     1      43.791 -17.659   5.169  1.00  0.00     0.071 A 
HETATM   29  C   UNL     1      43.632 -16.442   6.006  1.00  0.00     0.073 C 
ENDBRANCH   1  18
TORSDOF 6
ENDMDL
MODEL 7
REMARK VINA RESULT:      -7.2      1.717      2.075
REMARK  6 active torsions:
REMARK  status: ('A' for Active; 'I' for Inactive)
REMARK    1  A    between atoms: C_9  and  C_10 
REMARK       I    between atoms: C_10  and  N_11 
REMARK    2  A    between atoms: N_11  and  C_12 
REMARK    3  A    between atoms: C_12  and  C_13 
REMARK    4  A    between atoms: C_13  and  O_14 
REMARK    5  A    between atoms: C_13  and  C_15 
REMARK    6  A    between atoms: C_18  and  O_19 
ROOT
HETATM    1  C   UNL     1      43.212 -17.573   6.579  1.00  0.00     0.258 C 
HETATM    2  N   UNL     1      43.478 -16.382   5.937  1.00  0.00    -0.350 N 
HETATM    3  O   UNL     1      42.665 -17.627   7.677  1.00  0.00    -0.267 OA
HETATM    4  H   UNL     1      43.822 -16.458   4.980  1.00  0.00     0.163 HD
ENDROOT
BRANCH   2   5
HETATM    5  C   UNL     1      42.944 -15.086   6.384  1.00  0.00     0.114 C 
HETATM    6  C   UNL     1      44.038 -14.018   6.320  1.00  0.00     0.035 C 
BRANCH   5   7
HETATM    7  C   UNL     1      41.632 -14.702   5.637  1.00  0.00     0.173 C 
BRANCH   7   8
HETATM    8  O   UNL     1      40.899 -13.775   6.458  1.00  0.00    -0.389 OA
HETATM    9  H   UNL     1      39.972 -13.870   6.179  1.00  0.00     0.210 HD
ENDBRANCH   7   8
BRANCH   7  10
HETATM   10  C   UNL     1      41.842 -14.081   4.271  1.00  0.00    -0.028 A 
HETATM   11  C   UNL     1      41.618 -12.707   4.099  1.00  0.00     0.012 A 
HETATM   12  C   UNL     1      41.788 -12.109   2.849  1.00  0.00     0.037 A 
HETATM   13  C   UNL     1      42.189 -12.866   1.748  1.00  0.00     0.068 A 
HETATM   14  C   UNL     1      42.407 -14.235   1.907  1.00  0.00     0.037 A 
HETATM   15  C   UNL     1      42.233 -14.839   3.159  1.00  0.00     0.012 A 
BRANCH  13  16
HETATM   16  O   UNL     1      42.323 -12.155   0.588  1.00  0.00    -0.356 OA
HETATM   17  C   UNL     1      41.639 -10.912   0.515  1.00  0.00     0.210 C 
ENDBRANCH  13  16
ENDBRANCH   7  10
ENDBRANCH   5   7
ENDBRANCH   2   5
BRANCH   1  18
HETATM   18  C   UNL     1      43.614 -18.773   5.870  1.00  0.00     0.105 A 
HETATM   19  C   UNL     1      43.812 -18.937   4.509  1.00  0.00     0.169 A 
HETATM   20  N   UNL     1      43.707 -18.054   3.463  1.00  0.00    -0.233 NA
HETATM   21  N   UNL     1      44.146 -20.283   4.317  1.00  0.00    -0.219 N 
HETATM   22  C   UNL     1      43.923 -18.540   2.273  1.00  0.00     0.035 A 
HETATM   23  C   UNL     1      43.818 -17.618   1.086  1.00  0.00     0.070 C 
HETATM   24  C   UNL     1      44.274 -19.964   1.975  1.00  0.00     0.053 A 
HETATM   25  C   UNL     1      44.374 -20.791   3.031  1.00  0.00     0.036 A 
HETATM   26  C   UNL     1      44.711 -22.244   2.898  1.00  0.00     0.070 C 
HETATM   27  N   UNL     1      44.199 -20.956   5.492  1.00  0.00    -0.170 NA
HETATM   28  C   UNL     1      43.872 -20.056   6.423  1.00  0.00     0.071 A 
HETATM   29  C   UNL     1      43.813 -20.459   7.852  1.00  0.00     0.073 C 
ENDBRANCH   1  18
TORSDOF 6
ENDMDL
MODEL 8
REMARK VINA RESULT:      -7.2      2.635      5.044
REMARK  6 active torsions:
REMARK  status: ('A' for Active; 'I' for Inactive)
REMARK    1  A    between atoms: C_9  and  C_10 
REMARK       I    between atoms: C_10  and  N_11 
REMARK    2  A    between atoms: N_11  and  C_12 
REMARK    3  A    between atoms: C_12  and  C_13 
REMARK    4  A    between atoms: C_13  and  O_14 
REMARK    5  A    between atoms: C_13  and  C_15 
REMARK    6  A    between atoms: C_18  and  O_19 
ROOT
HETATM    1  C   UNL     1      42.530 -15.723   3.201  1.00  0.00     0.258 C 
HETATM    2  N   UNL     1      41.230 -15.581   3.637  1.00  0.00    -0.350 N 
HETATM    3  O   UNL     1      43.165 -14.801   2.697  1.00  0.00    -0.267 OA
HETATM    4  H   UNL     1      40.841 -16.373   4.147  1.00  0.00     0.163 HD
ENDROOT
BRANCH   2   5
HETATM    5  C   UNL     1      40.553 -14.279   3.751  1.00  0.00     0.114 C 
HETATM    6  C   UNL     1      39.752 -13.992   2.480  1.00  0.00     0.035 C 
BRANCH   5   7
HETATM    7  C   UNL     1      39.728 -14.159   5.067  1.00  0.00     0.173 C 
BRANCH   7   8
HETATM    8  O   UNL     1      39.846 -15.399   5.787  1.00  0.00    -0.389 OA
HETATM    9  H   UNL     1      40.428 -15.954   5.240  1.00  0.00     0.210 HD
ENDBRANCH   7   8
BRANCH   7  10
HETATM   10  C   UNL     1      40.152 -13.025   5.977  1.00  0.00    -0.028 A 
HETATM   11  C   UNL     1      39.243 -12.526   6.923  1.00  0.00     0.012 A 
HETATM   12  C   UNL     1      39.598 -11.471   7.764  1.00  0.00     0.037 A 
HETATM   13  C   UNL     1      40.867 -10.896   7.685  1.00  0.00     0.068 A 
HETATM   14  C   UNL     1      41.776 -11.380   6.744  1.00  0.00     0.037 A 
HETATM   15  C   UNL     1      41.420 -12.436   5.894  1.00  0.00     0.012 A 
BRANCH  13  16
HETATM   16  O   UNL     1      41.085  -9.877   8.571  1.00  0.00    -0.356 OA
HETATM   17  C   UNL     1      42.034 -10.118   9.602  1.00  0.00     0.210 C 
ENDBRANCH  13  16
ENDBRANCH   7  10
ENDBRANCH   5   7
ENDBRANCH   2   5
BRANCH   1  18
HETATM   18  C   UNL     1      43.113 -17.039   3.380  1.00  0.00     0.105 A 
HETATM   19  C   UNL     1      43.422 -17.684   4.567  1.00  0.00     0.169 A 
HETATM   20  N   UNL     1      43.267 -17.301   5.875  1.00  0.00    -0.233 NA
HETATM   21  N   UNL     1      44.004 -18.907   4.212  1.00  0.00    -0.219 N 
HETATM   22  C   UNL     1      43.703 -18.134   6.777  1.00  0.00     0.035 A 
HETATM   23  C   UNL     1      43.563 -17.765   8.231  1.00  0.00     0.070 C 
HETATM   24  C   UNL     1      44.347 -19.455   6.489  1.00  0.00     0.053 A 
HETATM   25  C   UNL     1      44.470 -19.792   5.193  1.00  0.00     0.036 A 
HETATM   26  C   UNL     1      45.096 -21.075   4.742  1.00  0.00     0.070 C 
HETATM   27  N   UNL     1      44.042 -19.070   2.867  1.00  0.00    -0.170 NA
HETATM   28  C   UNL     1      43.517 -17.948   2.366  1.00  0.00     0.071 A 
HETATM   29  C   UNL     1      43.415 -17.774   0.894  1.00  0.00     0.073 C 
ENDBRANCH   1  18
TORSDOF 6
ENDMDL
MODEL 9
REMARK VINA RESULT:      -7.2      3.158      5.205
REMARK  6 active torsions:
REMARK  status: ('A' for Active; 'I' for Inactive)
REMARK    1  A    between atoms: C_9  and  C_10 
REMARK       I    between atoms: C_10  and  N_11 
REMARK    2  A    between atoms: N_11  and  C_12 
REMARK    3  A    between atoms: C_12  and  C_13 
REMARK    4  A    between atoms: C_13  and  O_14 
REMARK    5  A    between atoms: C_13  and  C_15 
REMARK    6  A    between atoms: C_18  and  O_19 
ROOT
HETATM    1  C   UNL     1      40.578 -14.990   2.446  1.00  0.00     0.258 C 
HETATM    2  N   UNL     1      41.266 -13.805   2.286  1.00  0.00    -0.350 N 
HETATM    3  O   UNL     1      39.359 -15.036   2.579  1.00  0.00    -0.267 OA
HETATM    4  H   UNL     1      42.257 -13.891   2.063  1.00  0.00     0.163 HD
ENDROOT
BRANCH   2   5
HETATM    5  C   UNL     1      40.605 -12.514   2.036  1.00  0.00     0.114 C 
HETATM    6  C   UNL     1      40.659 -11.646   3.295  1.00  0.00     0.035 C 
BRANCH   5   7
HETATM    7  C   UNL     1      41.147 -11.815   0.754  1.00  0.00     0.173 C 
BRANCH   7   8
HETATM    8  O   UNL     1      42.536 -11.504   0.963  1.00  0.00    -0.389 OA
HETATM    9  H   UNL     1      42.806 -12.053   1.720  1.00  0.00     0.210 HD
ENDBRANCH   7   8
BRANCH   7  10
HETATM   10  C   UNL     1      41.018 -12.634  -0.514  1.00  0.00    -0.028 A 
HETATM   11  C   UNL     1      39.782 -13.218  -0.832  1.00  0.00     0.012 A 
HETATM   12  C   UNL     1      39.635 -13.991  -1.985  1.00  0.00     0.037 A 
HETATM   13  C   UNL     1      40.714 -14.193  -2.846  1.00  0.00     0.068 A 
HETATM   14  C   UNL     1      41.949 -13.622  -2.537  1.00  0.00     0.037 A 
HETATM   15  C   UNL     1      42.100 -12.850  -1.377  1.00  0.00     0.012 A 
BRANCH  13  16
HETATM   16  O   UNL     1      40.431 -14.963  -3.940  1.00  0.00    -0.356 OA
HETATM   17  C   UNL     1      39.187 -15.652  -3.934  1.00  0.00     0.210 C 
ENDBRANCH  13  16
ENDBRANCH   7  10
ENDBRANCH   5   7
ENDBRANCH   2   5
BRANCH   1  18
HETATM   18  C   UNL     1      41.389 -16.193   2.441  1.00  0.00     0.105 A 
HETATM   19  C   UNL     1      41.915 -16.875   3.526  1.00  0.00     0.169 A 
HETATM   20  N   UNL     1      41.823 -16.643   4.875  1.00  0.00    -0.233 NA
HETATM   21  N   UNL     1      42.657 -17.940   3.001  1.00  0.00    -0.219 N 
HETATM   22  C   UNL     1      42.478 -17.463   5.649  1.00  0.00     0.035 A 
HETATM   23  C   UNL     1      42.418 -17.255   7.140  1.00  0.00     0.070 C 
HETATM   24  C   UNL     1      43.304 -18.618   5.175  1.00  0.00     0.053 A 
HETATM   25  C   UNL     1      43.358 -18.812   3.845  1.00  0.00     0.036 A 
HETATM   26  C   UNL     1      44.145 -19.919   3.215  1.00  0.00     0.070 C 
HETATM   27  N   UNL     1      42.593 -17.974   1.648  1.00  0.00    -0.170 NA
HETATM   28  C   UNL     1      41.841 -16.923   1.310  1.00  0.00     0.071 A 
HETATM   29  C   UNL     1      41.571 -16.640  -0.124  1.00  0.00     0.073 C 
ENDBRANCH   1  18
TORSDOF 6
ENDMDL
MODEL 10
REMARK VINA RESULT:      -7.1      2.839      6.247
REMARK  6 active torsions:
REMARK  status: ('A' for Active; 'I' for Inactive)
REMARK    1  A    between atoms: C_9  and  C_10 
REMARK       I    between atoms: C_10  and  N_11 
REMARK    2  A    between atoms: N_11  and  C_12 
REMARK    3  A    between atoms: C_12  and  C_13 
REMARK    4  A    between atoms: C_13  and  O_14 
REMARK    5  A    between atoms: C_13  and  C_15 
REMARK    6  A    between atoms: C_18  and  O_19 
ROOT
HETATM    1  C   UNL     1      42.371 -14.417   3.030  1.00  0.00     0.258 C 
HETATM    2  N   UNL     1      41.286 -14.349   3.878  1.00  0.00    -0.350 N 
HETATM    3  O   UNL     1      43.506 -14.107   3.380  1.00  0.00    -0.267 OA
HETATM    4  H   UNL     1      40.416 -14.744   3.523  1.00  0.00     0.163 HD
ENDROOT
BRANCH   2   5
HETATM    5  C   UNL     1      41.406 -14.119   5.328  1.00  0.00     0.114 C 
HETATM    6  C   UNL     1      40.522 -12.942   5.746  1.00  0.00     0.035 C 
BRANCH   5   7
HETATM    7  C   UNL     1      41.168 -15.421   6.150  1.00  0.00     0.173 C 
BRANCH   7   8
HETATM    8  O   UNL     1      39.852 -15.914   5.842  1.00  0.00    -0.389 OA
HETATM    9  H   UNL     1      39.673 -16.594   6.515  1.00  0.00     0.210 HD
ENDBRANCH   7   8
BRANCH   7  10
HETATM   10  C   UNL     1      42.173 -16.523   5.893  1.00  0.00    -0.028 A 
HETATM   11  C   UNL     1      43.480 -16.391   6.388  1.00  0.00     0.012 A 
HETATM   12  C   UNL     1      44.434 -17.383   6.153  1.00  0.00     0.037 A 
HETATM   13  C   UNL     1      44.105 -18.527   5.426  1.00  0.00     0.068 A 
HETATM   14  C   UNL     1      42.811 -18.665   4.923  1.00  0.00     0.037 A 
HETATM   15  C   UNL     1      41.853 -17.669   5.153  1.00  0.00     0.012 A 
BRANCH  13  16
HETATM   16  O   UNL     1      45.130 -19.419   5.276  1.00  0.00    -0.356 OA
HETATM   17  C   UNL     1      44.902 -20.517   4.402  1.00  0.00     0.210 C 
ENDBRANCH  13  16
ENDBRANCH   7  10
ENDBRANCH   5   7
ENDBRANCH   2   5
BRANCH   1  18
HETATM   18  C   UNL     1      42.090 -14.888   1.687  1.00  0.00     0.105 A 
HETATM   19  C   UNL     1      41.332 -14.272   0.706  1.00  0.00     0.169 A 
HETATM   20  N   UNL     1      40.656 -13.077   0.697  1.00  0.00    -0.233 NA
HETATM   21  N   UNL     1      41.324 -15.141  -0.392  1.00  0.00    -0.219 N 
HETATM   22  C   UNL     1      39.991 -12.797  -0.389  1.00  0.00     0.035 A 
HETATM   23  C   UNL     1      39.227 -11.501  -0.456  1.00  0.00     0.070 C 
HETATM   24  C   UNL     1      39.919 -13.671  -1.603  1.00  0.00     0.053 A 
HETATM   25  C   UNL     1      40.604 -14.827  -1.552  1.00  0.00     0.036 A 
HETATM   26  C   UNL     1      40.626 -15.810  -2.681  1.00  0.00     0.070 C 
HETATM   27  N   UNL     1      42.066 -16.250  -0.156  1.00  0.00    -0.170 NA
HETATM   28  C   UNL     1      42.519 -16.105   1.093  1.00  0.00     0.071 A 
HETATM   29  C   UNL     1      43.371 -17.162   1.697  1.00  0.00     0.073 C 
ENDBRANCH   1  18
TORSDOF 6
ENDMDL
