MODEL 1
REMARK VINA RESULT:      -9.8      0.000      0.000
REMARK  7 active torsions:
REMARK  status: ('A' for Active; 'I' for Inactive)
REMARK    1  A    between atoms: C_5  and  N_6 
REMARK    2  A    between atoms: C_7  and  S_8 
REMARK    3  A    between atoms: S_8  and  C_9 
REMARK    4  A    between atoms: C_9  and  C_10 
REMARK       I    between atoms: C_10  and  N_11 
REMARK    5  A    between atoms: C_13  and  C_14 
REMARK    6  A    between atoms: C_14  and  N_15 
REMARK       I    between atoms: N_15  and  C_16 
REMARK       I    between atoms: C_16  and  N_17 
REMARK    7  A    between atoms: N_17  and  C_18 
ROOT
HETATM    1  C   UNL     1      42.450 -13.996   3.293  1.00  0.00     0.229 C 
HETATM    2  N   UNL     1      42.208 -14.857   4.370  1.00  0.00    -0.351 N 
HETATM    3  C   UNL     1      43.374 -15.514   4.958  1.00  0.00     0.132 C 
HETATM    4  C   UNL     1      43.174 -15.854   6.443  1.00  0.00     0.021 C 
HETATM    5  C   UNL     1      41.863 -16.627   6.643  1.00  0.00     0.009 C 
HETATM    6  C   UNL     1      40.688 -15.863   6.035  1.00  0.00     0.020 C 
HETATM    7  C   UNL     1      40.933 -15.549   4.565  1.00  0.00     0.126 C 
HETATM    8  O   UNL     1      43.591 -13.852   2.844  1.00  0.00    -0.273 OA
ENDROOT
BRANCH   1   9
HETATM    9  C   UNL     1      41.277 -13.279   2.635  1.00  0.00     0.185 C 
BRANCH   9  10
HETATM   10  S   UNL     1      40.804 -14.001   1.035  1.00  0.00    -0.082 SA
BRANCH  10  11
HETATM   11  C   UNL     1      41.424 -12.825  -0.083  1.00  0.00     0.173 A 
HETATM   12  N   UNL     1      40.993 -12.695  -1.397  1.00  0.00    -0.299 N 
HETATM   13  C   UNL     1      41.840 -11.762  -1.967  1.00  0.00     0.118 A 
HETATM   14  C   UNL     1      42.719 -11.387  -0.981  1.00  0.00     0.137 A 
HETATM   15  N   UNL     1      42.465 -12.064   0.175  1.00  0.00    -0.235 NA
BRANCH  12  16
HETATM   16  C   UNL     1      39.873 -13.284  -2.053  1.00  0.00     0.047 A 
HETATM   17  C   UNL     1      39.985 -14.499  -2.777  1.00  0.00    -0.029 A 
HETATM   18  C   UNL     1      38.864 -14.950  -3.518  1.00  0.00    -0.054 A 
HETATM   19  C   UNL     1      41.237 -15.343  -2.749  1.00  0.00     0.051 C 
HETATM   20  C   UNL     1      38.904 -16.214  -4.338  1.00  0.00     0.049 C 
HETATM   21  C   UNL     1      37.656 -14.238  -3.461  1.00  0.00     0.007 A 
HETATM   22  C   UNL     1      37.549 -13.070  -2.714  1.00  0.00     0.003 A 
HETATM   23  C   UNL     1      38.655 -12.585  -2.022  1.00  0.00     0.030 A 
ENDBRANCH  12  16
ENDBRANCH  10  11
ENDBRANCH   9  10
ENDBRANCH   1   9
BRANCH   4  24
HETATM   24  C   UNL     1      44.401 -16.621   6.956  1.00  0.00     0.130 C 
BRANCH  24  25
HETATM   25  N   UNL     1      44.103 -18.010   7.265  1.00  0.00    -0.342 N 
HETATM   26  C   UNL     1      44.002 -19.115   6.473  1.00  0.00     0.320 C 
HETATM   27  N   UNL     1      44.352 -18.950   5.163  1.00  0.00    -0.309 N 
HETATM   28  O   UNL     1      43.604 -20.149   6.997  1.00  0.00    -0.247 OA
HETATM   29  H   UNL     1      44.780 -18.074   4.920  1.00  0.00     0.170 HD
HETATM   30  H   UNL     1      43.811 -18.217   8.214  1.00  0.00     0.164 HD
BRANCH  27  31
HETATM   31  C   UNL     1      44.273 -19.901   4.123  1.00  0.00     0.039 A 
HETATM   32  C   UNL     1      44.733 -21.214   4.228  1.00  0.00     0.071 A 
HETATM   33  C   UNL     1      44.604 -22.081   3.146  1.00  0.00     0.118 A 
HETATM   34  F   UNL     1      45.047 -23.341   3.255  1.00  0.00    -0.206 F 
HETATM   35  C   UNL     1      44.021 -21.668   1.954  1.00  0.00     0.042 A 
HETATM   36  C   UNL     1      43.556 -20.363   1.839  1.00  0.00     0.005 A 
HETATM   37  C   UNL     1      43.681 -19.485   2.920  1.00  0.00     0.030 A 
ENDBRANCH  27  31
ENDBRANCH  24  25
ENDBRANCH   4  24
TORSDOF 7
ENDMDL
MODEL 2
REMARK VINA RESULT:      -9.4      5.257     10.010
REMARK  7 active torsions:
REMARK  status: ('A' for Active; 'I' for Inactive)
REMARK    1  A    between atoms: C_5  and  N_6 
REMARK    2  A    between atoms: C_7  and  S_8 
REMARK    3  A    between atoms: S_8  and  C_9 
REMARK    4  A    between atoms: C_9  and  C_10 
REMARK       I    between atoms: C_10  and  N_11 
REMARK    5  A    between atoms: C_13  and  C_14 
REMARK    6  A    between atoms: C_14  and  N_15 
REMARK       I    between atoms: N_15  and  C_16 
REMARK       I    between atoms: C_16  and  N_17 
REMARK    7  A    between atoms: N_17  and  C_18 
ROOT
HETATM    1  C   UNL     1      40.720 -15.654   5.162  1.00  0.00     0.229 C 
HETATM    2  N   UNL     1      40.527 -14.301   4.857  1.00  0.00    -0.351 N 
HETATM    3  C   UNL     1      39.902 -13.479   5.892  1.00  0.00     0.132 C 
HETATM    4  C   UNL     1      40.322 -12.003   5.807  1.00  0.00     0.021 C 
HETATM    5  C   UNL     1      40.112 -11.469   4.384  1.00  0.00     0.009 C 
HETATM    6  C   UNL     1      40.821 -12.358   3.364  1.00  0.00     0.020 C 
HETATM    7  C   UNL     1      40.373 -13.808   3.488  1.00  0.00     0.126 C 
HETATM    8  O   UNL     1      40.330 -16.121   6.237  1.00  0.00    -0.273 OA
ENDROOT
BRANCH   1   9
HETATM    9  C   UNL     1      41.366 -16.565   4.127  1.00  0.00     0.185 C 
BRANCH   9  10
HETATM   10  S   UNL     1      41.814 -18.198   4.790  1.00  0.00    -0.082 SA
BRANCH  10  11
HETATM   11  C   UNL     1      43.400 -17.899   5.430  1.00  0.00     0.173 A 
HETATM   12  N   UNL     1      44.426 -18.836   5.441  1.00  0.00    -0.299 N 
HETATM   13  C   UNL     1      45.447 -18.248   6.166  1.00  0.00     0.118 A 
HETATM   14  C   UNL     1      44.988 -17.012   6.544  1.00  0.00     0.137 A 
HETATM   15  N   UNL     1      43.715 -16.813   6.100  1.00  0.00    -0.235 NA
BRANCH  12  16
HETATM   16  C   UNL     1      44.517 -20.099   4.787  1.00  0.00     0.047 A 
HETATM   17  C   UNL     1      44.396 -20.221   3.379  1.00  0.00    -0.029 A 
HETATM   18  C   UNL     1      44.357 -21.520   2.813  1.00  0.00    -0.054 A 
HETATM   19  C   UNL     1      44.350 -19.019   2.464  1.00  0.00     0.051 C 
HETATM   20  C   UNL     1      44.200 -21.743   1.330  1.00  0.00     0.049 C 
HETATM   21  C   UNL     1      44.515 -22.646   3.637  1.00  0.00     0.007 A 
HETATM   22  C   UNL     1      44.674 -22.509   5.011  1.00  0.00     0.003 A 
HETATM   23  C   UNL     1      44.663 -21.243   5.588  1.00  0.00     0.030 A 
ENDBRANCH  12  16
ENDBRANCH  10  11
ENDBRANCH   9  10
ENDBRANCH   1   9
BRANCH   4  24
HETATM   24  C   UNL     1      39.554 -11.197   6.864  1.00  0.00     0.130 C 
BRANCH  24  25
HETATM   25  N   UNL     1      40.256  -9.988   7.265  1.00  0.00    -0.342 N 
HETATM   26  C   UNL     1      40.953  -9.676   8.394  1.00  0.00     0.320 C 
HETATM   27  N   UNL     1      41.149 -10.694   9.283  1.00  0.00    -0.309 N 
HETATM   28  O   UNL     1      41.335  -8.517   8.517  1.00  0.00    -0.247 OA
HETATM   29  H   UNL     1      40.886 -11.614   8.974  1.00  0.00     0.170 HD
HETATM   30  H   UNL     1      40.145  -9.174   6.671  1.00  0.00     0.164 HD
BRANCH  27  31
HETATM   31  C   UNL     1      41.769 -10.627  10.548  1.00  0.00     0.039 A 
HETATM   32  C   UNL     1      41.093 -10.774  11.759  1.00  0.00     0.071 A 
HETATM   33  C   UNL     1      41.797 -10.698  12.959  1.00  0.00     0.118 A 
HETATM   34  F   UNL     1      41.140 -10.842  14.119  1.00  0.00    -0.206 F 
HETATM   35  C   UNL     1      43.169 -10.479  12.980  1.00  0.00     0.042 A 
HETATM   36  C   UNL     1      43.853 -10.334  11.778  1.00  0.00     0.005 A 
HETATM   37  C   UNL     1      43.156 -10.409  10.569  1.00  0.00     0.030 A 
ENDBRANCH  27  31
ENDBRANCH  24  25
ENDBRANCH   4  24
TORSDOF 7
ENDMDL
MODEL 3
REMARK VINA RESULT:      -9.3      2.234      3.610
REMARK  7 active torsions:
REMARK  status: ('A' for Active; 'I' for Inactive)
REMARK    1  A    between atoms: C_5  and  N_6 
REMARK    2  A    between atoms: C_7  and  S_8 
REMARK    3  A    between atoms: S_8  and  C_9 
REMARK    4  A    between atoms: C_9  and  C_10 
REMARK       I    between atoms: C_10  and  N_11 
REMARK    5  A    between atoms: C_13  and  C_14 
REMARK    6  A    between atoms: C_14  and  N_15 
REMARK       I    between atoms: N_15  and  C_16 
REMARK       I    between atoms: C_16  and  N_17 
REMARK    7  A    between atoms: N_17  and  C_18 
ROOT
HETATM    1  C   UNL     1      41.536 -12.037   1.754  1.00  0.00     0.229 C 
HETATM    2  N   UNL     1      41.259 -12.307   3.099  1.00  0.00    -0.351 N 
HETATM    3  C   UNL     1      42.200 -13.182   3.798  1.00  0.00     0.132 C 
HETATM    4  C   UNL     1      42.256 -12.903   5.308  1.00  0.00     0.021 C 
HETATM    5  C   UNL     1      40.842 -12.912   5.906  1.00  0.00     0.009 C 
HETATM    6  C   UNL     1      39.929 -11.951   5.148  1.00  0.00     0.020 C 
HETATM    7  C   UNL     1      39.907 -12.267   3.658  1.00  0.00     0.126 C 
HETATM    8  O   UNL     1      42.501 -12.561   1.189  1.00  0.00    -0.273 OA
ENDROOT
BRANCH   1   9
HETATM    9  C   UNL     1      40.595 -11.133   0.968  1.00  0.00     0.185 C 
BRANCH   9  10
HETATM   10  S   UNL     1      40.895 -11.172  -0.825  1.00  0.00    -0.082 SA
BRANCH  10  11
HETATM   11  C   UNL     1      39.438 -11.912  -1.413  1.00  0.00     0.173 A 
HETATM   12  N   UNL     1      39.178 -13.276  -1.358  1.00  0.00    -0.299 N 
HETATM   13  C   UNL     1      38.000 -13.450  -2.061  1.00  0.00     0.118 A 
HETATM   14  C   UNL     1      37.621 -12.204  -2.493  1.00  0.00     0.137 A 
HETATM   15  N   UNL     1      38.526 -11.262  -2.103  1.00  0.00    -0.235 NA
BRANCH  12  16
HETATM   16  C   UNL     1      39.871 -14.310  -0.663  1.00  0.00     0.047 A 
HETATM   17  C   UNL     1      39.518 -14.689   0.657  1.00  0.00    -0.029 A 
HETATM   18  C   UNL     1      40.338 -15.626   1.334  1.00  0.00    -0.054 A 
HETATM   19  C   UNL     1      38.281 -14.162   1.346  1.00  0.00     0.051 C 
HETATM   20  C   UNL     1      40.055 -16.062   2.749  1.00  0.00     0.049 C 
HETATM   21  C   UNL     1      41.425 -16.213   0.666  1.00  0.00     0.007 A 
HETATM   22  C   UNL     1      41.734 -15.862  -0.643  1.00  0.00     0.003 A 
HETATM   23  C   UNL     1      40.970 -14.906  -1.304  1.00  0.00     0.030 A 
ENDBRANCH  12  16
ENDBRANCH  10  11
ENDBRANCH   9  10
ENDBRANCH   1   9
BRANCH   4  24
HETATM   24  C   UNL     1      43.191 -13.920   5.976  1.00  0.00     0.130 C 
BRANCH  24  25
HETATM   25  N   UNL     1      42.498 -15.129   6.392  1.00  0.00    -0.342 N 
HETATM   26  C   UNL     1      42.582 -16.418   5.958  1.00  0.00     0.320 C 
HETATM   27  N   UNL     1      43.568 -16.685   5.051  1.00  0.00    -0.309 N 
HETATM   28  O   UNL     1      41.770 -17.218   6.410  1.00  0.00    -0.247 OA
HETATM   29  H   UNL     1      44.231 -15.950   4.881  1.00  0.00     0.170 HD
HETATM   30  H   UNL     1      41.733 -15.017   7.048  1.00  0.00     0.164 HD
BRANCH  27  31
HETATM   31  C   UNL     1      43.827 -17.907   4.394  1.00  0.00     0.039 A 
HETATM   32  C   UNL     1      44.484 -18.987   4.982  1.00  0.00     0.071 A 
HETATM   33  C   UNL     1      44.686 -20.155   4.252  1.00  0.00     0.118 A 
HETATM   34  F   UNL     1      45.318 -21.190   4.824  1.00  0.00    -0.206 F 
HETATM   35  C   UNL     1      44.242 -20.275   2.940  1.00  0.00     0.042 A 
HETATM   36  C   UNL     1      43.583 -19.206   2.346  1.00  0.00     0.005 A 
HETATM   37  C   UNL     1      43.374 -18.028   3.070  1.00  0.00     0.030 A 
ENDBRANCH  27  31
ENDBRANCH  24  25
ENDBRANCH   4  24
TORSDOF 7
ENDMDL
MODEL 4
REMARK VINA RESULT:      -9.1      4.958      7.495
REMARK  7 active torsions:
REMARK  status: ('A' for Active; 'I' for Inactive)
REMARK    1  A    between atoms: C_5  and  N_6 
REMARK    2  A    between atoms: C_7  and  S_8 
REMARK    3  A    between atoms: S_8  and  C_9 
REMARK    4  A    between atoms: C_9  and  C_10 
REMARK       I    between atoms: C_10  and  N_11 
REMARK    5  A    between atoms: C_13  and  C_14 
REMARK    6  A    between atoms: C_14  and  N_15 
REMARK       I    between atoms: N_15  and  C_16 
REMARK       I    between atoms: C_16  and  N_17 
REMARK    7  A    between atoms: N_17  and  C_18 
ROOT
HETATM    1  C   UNL     1      42.394 -16.813   3.855  1.00  0.00     0.229 C 
HETATM    2  N   UNL     1      42.431 -15.644   4.625  1.00  0.00    -0.351 N 
HETATM    3  C   UNL     1      43.275 -15.673   5.819  1.00  0.00     0.132 C 
HETATM    4  C   UNL     1      43.802 -14.282   6.203  1.00  0.00     0.021 C 
HETATM    5  C   UNL     1      42.646 -13.276   6.288  1.00  0.00     0.009 C 
HETATM    6  C   UNL     1      41.833 -13.278   4.995  1.00  0.00     0.020 C 
HETATM    7  C   UNL     1      41.334 -14.676   4.656  1.00  0.00     0.126 C 
HETATM    8  O   UNL     1      43.009 -17.823   4.210  1.00  0.00    -0.273 OA
ENDROOT
BRANCH   1   9
HETATM    9  C   UNL     1      41.534 -16.848   2.598  1.00  0.00     0.185 C 
BRANCH   9  10
HETATM   10  S   UNL     1      41.969 -15.557   1.396  1.00  0.00    -0.082 SA
BRANCH  10  11
HETATM   11  C   UNL     1      40.413 -14.887   1.013  1.00  0.00     0.173 A 
HETATM   12  N   UNL     1      40.204 -13.881   0.078  1.00  0.00    -0.299 N 
HETATM   13  C   UNL     1      38.868 -13.545   0.197  1.00  0.00     0.118 A 
HETATM   14  C   UNL     1      38.353 -14.354   1.179  1.00  0.00     0.137 A 
HETATM   15  N   UNL     1      39.321 -15.167   1.691  1.00  0.00    -0.235 NA
BRANCH  12  16
HETATM   16  C   UNL     1      41.096 -13.337  -0.892  1.00  0.00     0.047 A 
HETATM   17  C   UNL     1      41.874 -12.182  -0.626  1.00  0.00    -0.029 A 
HETATM   18  C   UNL     1      42.631 -11.618  -1.683  1.00  0.00    -0.054 A 
HETATM   19  C   UNL     1      41.954 -11.560   0.749  1.00  0.00     0.051 C 
HETATM   20  C   UNL     1      43.462 -10.374  -1.497  1.00  0.00     0.049 C 
HETATM   21  C   UNL     1      42.660 -12.250  -2.936  1.00  0.00     0.007 A 
HETATM   22  C   UNL     1      41.924 -13.406  -3.171  1.00  0.00     0.003 A 
HETATM   23  C   UNL     1      41.134 -13.943  -2.159  1.00  0.00     0.030 A 
ENDBRANCH  12  16
ENDBRANCH  10  11
ENDBRANCH   9  10
ENDBRANCH   1   9
BRANCH   4  24
HETATM   24  C   UNL     1      44.598 -14.386   7.512  1.00  0.00     0.130 C 
BRANCH  24  25
HETATM   25  N   UNL     1      45.383 -13.193   7.785  1.00  0.00    -0.342 N 
HETATM   26  C   UNL     1      45.148 -12.115   8.586  1.00  0.00     0.320 C 
HETATM   27  N   UNL     1      44.039 -12.185   9.380  1.00  0.00    -0.309 N 
HETATM   28  O   UNL     1      45.940 -11.182   8.520  1.00  0.00    -0.247 OA
HETATM   29  H   UNL     1      43.567 -13.072   9.412  1.00  0.00     0.170 HD
HETATM   30  H   UNL     1      46.214 -13.051   7.221  1.00  0.00     0.164 HD
BRANCH  27  31
HETATM   31  C   UNL     1      43.531 -11.190  10.241  1.00  0.00     0.039 A 
HETATM   32  C   UNL     1      44.066 -10.891  11.493  1.00  0.00     0.071 A 
HETATM   33  C   UNL     1      43.496  -9.883  12.267  1.00  0.00     0.118 A 
HETATM   34  F   UNL     1      44.017  -9.600  13.469  1.00  0.00    -0.206 F 
HETATM   35  C   UNL     1      42.399  -9.158  11.818  1.00  0.00     0.042 A 
HETATM   36  C   UNL     1      41.859  -9.446  10.569  1.00  0.00     0.005 A 
HETATM   37  C   UNL     1      42.424 -10.455   9.784  1.00  0.00     0.030 A 
ENDBRANCH  27  31
ENDBRANCH  24  25
ENDBRANCH   4  24
TORSDOF 7
ENDMDL
MODEL 5
REMARK VINA RESULT:      -9.1      3.817      9.958
REMARK  7 active torsions:
REMARK  status: ('A' for Active; 'I' for Inactive)
REMARK    1  A    between atoms: C_5  and  N_6 
REMARK    2  A    between atoms: C_7  and  S_8 
REMARK    3  A    between atoms: S_8  and  C_9 
REMARK    4  A    between atoms: C_9  and  C_10 
REMARK       I    between atoms: C_10  and  N_11 
REMARK    5  A    between atoms: C_13  and  C_14 
REMARK    6  A    between atoms: C_14  and  N_15 
REMARK       I    between atoms: N_15  and  C_16 
REMARK       I    between atoms: C_16  and  N_17 
REMARK    7  A    between atoms: N_17  and  C_18 
ROOT
HETATM    1  C   UNL     1      40.549 -16.182   2.957  1.00  0.00     0.229 C 
HETATM    2  N   UNL     1      40.003 -14.933   2.636  1.00  0.00    -0.351 N 
HETATM    3  C   UNL     1      39.358 -14.817   1.329  1.00  0.00     0.132 C 
HETATM    4  C   UNL     1      38.252 -13.751   1.310  1.00  0.00     0.021 C 
HETATM    5  C   UNL     1      38.782 -12.418   1.858  1.00  0.00     0.009 C 
HETATM    6  C   UNL     1      39.409 -12.614   3.237  1.00  0.00     0.020 C 
HETATM    7  C   UNL     1      40.497 -13.679   3.206  1.00  0.00     0.126 C 
HETATM    8  O   UNL     1      40.522 -17.111   2.143  1.00  0.00    -0.273 OA
ENDROOT
BRANCH   1   9
HETATM    9  C   UNL     1      41.235 -16.371   4.303  1.00  0.00     0.185 C 
BRANCH   9  10
HETATM   10  S   UNL     1      41.824 -18.069   4.576  1.00  0.00    -0.082 SA
BRANCH  10  11
HETATM   11  C   UNL     1      43.358 -17.795   5.342  1.00  0.00     0.173 A 
HETATM   12  N   UNL     1      44.357 -18.754   5.453  1.00  0.00    -0.299 N 
HETATM   13  C   UNL     1      45.327 -18.178   6.253  1.00  0.00     0.118 A 
HETATM   14  C   UNL     1      44.868 -16.925   6.573  1.00  0.00     0.137 A 
HETATM   15  N   UNL     1      43.641 -16.705   6.020  1.00  0.00    -0.235 NA
BRANCH  12  16
HETATM   16  C   UNL     1      44.471 -20.030   4.827  1.00  0.00     0.047 A 
HETATM   17  C   UNL     1      44.393 -20.181   3.419  1.00  0.00    -0.029 A 
HETATM   18  C   UNL     1      44.375 -21.491   2.879  1.00  0.00    -0.054 A 
HETATM   19  C   UNL     1      44.369 -18.998   2.480  1.00  0.00     0.051 C 
HETATM   20  C   UNL     1      44.263 -21.744   1.397  1.00  0.00     0.049 C 
HETATM   21  C   UNL     1      44.514 -22.599   3.730  1.00  0.00     0.007 A 
HETATM   22  C   UNL     1      44.632 -22.434   5.105  1.00  0.00     0.003 A 
HETATM   23  C   UNL     1      44.599 -21.157   5.656  1.00  0.00     0.030 A 
ENDBRANCH  12  16
ENDBRANCH  10  11
ENDBRANCH   9  10
ENDBRANCH   1   9
BRANCH   4  24
HETATM   24  C   UNL     1      37.693 -13.627  -0.115  1.00  0.00     0.130 C 
BRANCH  24  25
HETATM   25  N   UNL     1      38.465 -14.384  -1.086  1.00  0.00    -0.342 N 
HETATM   26  C   UNL     1      39.295 -13.989  -2.093  1.00  0.00     0.320 C 
HETATM   27  N   UNL     1      39.568 -12.652  -2.159  1.00  0.00    -0.309 N 
HETATM   28  O   UNL     1      39.715 -14.858  -2.849  1.00  0.00    -0.247 OA
HETATM   29  H   UNL     1      39.249 -12.092  -1.388  1.00  0.00     0.170 HD
HETATM   30  H   UNL     1      38.305 -15.385  -1.121  1.00  0.00     0.164 HD
BRANCH  27  31
HETATM   31  C   UNL     1      40.331 -11.976  -3.134  1.00  0.00     0.039 A 
HETATM   32  C   UNL     1      39.785 -11.300  -4.225  1.00  0.00     0.071 A 
HETATM   33  C   UNL     1      40.624 -10.656  -5.131  1.00  0.00     0.118 A 
HETATM   34  F   UNL     1      40.091 -10.008  -6.177  1.00  0.00    -0.206 F 
HETATM   35  C   UNL     1      42.004 -10.665  -4.972  1.00  0.00     0.042 A 
HETATM   36  C   UNL     1      42.559 -11.332  -3.886  1.00  0.00     0.005 A 
HETATM   37  C   UNL     1      41.726 -11.983  -2.971  1.00  0.00     0.030 A 
ENDBRANCH  27  31
ENDBRANCH  24  25
ENDBRANCH   4  24
TORSDOF 7
ENDMDL
MODEL 6
REMARK VINA RESULT:      -9.0      1.544      2.852
REMARK  7 active torsions:
REMARK  status: ('A' for Active; 'I' for Inactive)
REMARK    1  A    between atoms: C_5  and  N_6 
REMARK    2  A    between atoms: C_7  and  S_8 
REMARK    3  A    between atoms: S_8  and  C_9 
REMARK    4  A    between atoms: C_9  and  C_10 
REMARK       I    between atoms: C_10  and  N_11 
REMARK    5  A    between atoms: C_13  and  C_14 
REMARK    6  A    between atoms: C_14  and  N_15 
REMARK       I    between atoms: N_15  and  C_16 
REMARK       I    between atoms: C_16  and  N_17 
REMARK    7  A    between atoms: N_17  and  C_18 
ROOT
HETATM    1  C   UNL     1      42.110 -13.937   3.095  1.00  0.00     0.229 C 
HETATM    2  N   UNL     1      41.987 -14.780   4.206  1.00  0.00    -0.351 N 
HETATM    3  C   UNL     1      43.227 -15.338   4.745  1.00  0.00     0.132 C 
HETATM    4  C   UNL     1      43.131 -15.646   6.247  1.00  0.00     0.021 C 
HETATM    5  C   UNL     1      41.890 -16.501   6.540  1.00  0.00     0.009 C 
HETATM    6  C   UNL     1      40.633 -15.839   5.978  1.00  0.00     0.020 C 
HETATM    7  C   UNL     1      40.777 -15.552   4.489  1.00  0.00     0.126 C 
HETATM    8  O   UNL     1      43.213 -13.728   2.580  1.00  0.00    -0.273 OA
ENDROOT
BRANCH   1   9
HETATM    9  C   UNL     1      40.856 -13.322   2.485  1.00  0.00     0.185 C 
BRANCH   9  10
HETATM   10  S   UNL     1      40.269 -14.210   1.011  1.00  0.00    -0.082 SA
BRANCH  10  11
HETATM   11  C   UNL     1      39.030 -13.143   0.424  1.00  0.00     0.173 A 
HETATM   12  N   UNL     1      39.233 -12.177  -0.553  1.00  0.00    -0.299 N 
HETATM   13  C   UNL     1      38.049 -11.463  -0.609  1.00  0.00     0.118 A 
HETATM   14  C   UNL     1      37.214 -12.029   0.321  1.00  0.00     0.137 A 
HETATM   15  N   UNL     1      37.837 -13.056   0.967  1.00  0.00    -0.235 NA
BRANCH  12  16
HETATM   16  C   UNL     1      40.347 -11.971  -1.418  1.00  0.00     0.047 A 
HETATM   17  C   UNL     1      41.406 -11.092  -1.074  1.00  0.00    -0.029 A 
HETATM   18  C   UNL     1      42.409 -10.831  -2.041  1.00  0.00    -0.054 A 
HETATM   19  C   UNL     1      41.522 -10.462   0.294  1.00  0.00     0.051 C 
HETATM   20  C   UNL     1      43.554  -9.888  -1.772  1.00  0.00     0.049 C 
HETATM   21  C   UNL     1      42.380 -11.499  -3.276  1.00  0.00     0.007 A 
HETATM   22  C   UNL     1      41.357 -12.389  -3.583  1.00  0.00     0.003 A 
HETATM   23  C   UNL     1      40.336 -12.617  -2.665  1.00  0.00     0.030 A 
ENDBRANCH  12  16
ENDBRANCH  10  11
ENDBRANCH   9  10
ENDBRANCH   1   9
BRANCH   4  24
HETATM   24  C   UNL     1      44.434 -16.311   6.711  1.00  0.00     0.130 C 
BRANCH  24  25
HETATM   25  N   UNL     1      44.242 -17.693   7.122  1.00  0.00    -0.342 N 
HETATM   26  C   UNL     1      44.144 -18.848   6.405  1.00  0.00     0.320 C 
HETATM   27  N   UNL     1      44.382 -18.746   5.064  1.00  0.00    -0.309 N 
HETATM   28  O   UNL     1      43.848 -19.868   7.019  1.00  0.00    -0.247 OA
HETATM   29  H   UNL     1      44.739 -17.866   4.738  1.00  0.00     0.170 HD
HETATM   30  H   UNL     1      44.036 -17.856   8.102  1.00  0.00     0.164 HD
BRANCH  27  31
HETATM   31  C   UNL     1      44.279 -19.763   4.091  1.00  0.00     0.039 A 
HETATM   32  C   UNL     1      44.732 -21.069   4.274  1.00  0.00     0.071 A 
HETATM   33  C   UNL     1      44.579 -22.004   3.253  1.00  0.00     0.118 A 
HETATM   34  F   UNL     1      45.015 -23.258   3.436  1.00  0.00    -0.206 F 
HETATM   35  C   UNL     1      43.977 -21.666   2.046  1.00  0.00     0.042 A 
HETATM   36  C   UNL     1      43.519 -20.368   1.855  1.00  0.00     0.005 A 
HETATM   37  C   UNL     1      43.668 -19.422   2.873  1.00  0.00     0.030 A 
ENDBRANCH  27  31
ENDBRANCH  24  25
ENDBRANCH   4  24
TORSDOF 7
ENDMDL
MODEL 7
REMARK VINA RESULT:      -8.9      1.818      3.519
REMARK  7 active torsions:
REMARK  status: ('A' for Active; 'I' for Inactive)
REMARK    1  A    between atoms: C_5  and  N_6 
REMARK    2  A    between atoms: C_7  and  S_8 
REMARK    3  A    between atoms: S_8  and  C_9 
REMARK    4  A    between atoms: C_9  and  C_10 
REMARK       I    between atoms: C_10  and  N_11 
REMARK    5  A    between atoms: C_13  and  C_14 
REMARK    6  A    between atoms: C_14  and  N_15 
REMARK       I    between atoms: N_15  and  C_16 
REMARK       I    between atoms: C_16  and  N_17 
REMARK    7  A    between atoms: N_17  and  C_18 
ROOT
HETATM    1  C   UNL     1      40.532 -15.881   2.069  1.00  0.00     0.229 C 
HETATM    2  N   UNL     1      41.008 -15.214   3.206  1.00  0.00    -0.351 N 
HETATM    3  C   UNL     1      41.395 -16.051   4.341  1.00  0.00     0.132 C 
HETATM    4  C   UNL     1      42.478 -15.398   5.213  1.00  0.00     0.021 C 
HETATM    5  C   UNL     1      42.062 -13.974   5.607  1.00  0.00     0.009 C 
HETATM    6  C   UNL     1      41.707 -13.153   4.369  1.00  0.00     0.020 C 
HETATM    7  C   UNL     1      40.631 -13.840   3.538  1.00  0.00     0.126 C 
HETATM    8  O   UNL     1      40.405 -17.109   2.065  1.00  0.00    -0.273 OA
ENDROOT
BRANCH   1   9
HETATM    9  C   UNL     1      40.113 -15.068   0.851  1.00  0.00     0.185 C 
BRANCH   9  10
HETATM   10  S   UNL     1      41.324 -15.129  -0.503  1.00  0.00    -0.082 SA
BRANCH  10  11
HETATM   11  C   UNL     1      40.419 -14.451  -1.821  1.00  0.00     0.173 A 
HETATM   12  N   UNL     1      40.169 -13.093  -1.978  1.00  0.00    -0.299 N 
HETATM   13  C   UNL     1      39.301 -13.006  -3.051  1.00  0.00     0.118 A 
HETATM   14  C   UNL     1      39.080 -14.292  -3.474  1.00  0.00     0.137 A 
HETATM   15  N   UNL     1      39.762 -15.180  -2.695  1.00  0.00    -0.235 NA
BRANCH  12  16
HETATM   16  C   UNL     1      40.727 -11.976  -1.291  1.00  0.00     0.047 A 
HETATM   17  C   UNL     1      41.969 -11.409  -1.673  1.00  0.00    -0.029 A 
HETATM   18  C   UNL     1      42.527 -10.391  -0.859  1.00  0.00    -0.054 A 
HETATM   19  C   UNL     1      42.693 -11.822  -2.933  1.00  0.00     0.051 C 
HETATM   20  C   UNL     1      43.857  -9.755  -1.173  1.00  0.00     0.049 C 
HETATM   21  C   UNL     1      41.812  -9.915   0.252  1.00  0.00     0.007 A 
HETATM   22  C   UNL     1      40.576 -10.452   0.590  1.00  0.00     0.003 A 
HETATM   23  C   UNL     1      40.038 -11.487  -0.168  1.00  0.00     0.030 A 
ENDBRANCH  12  16
ENDBRANCH  10  11
ENDBRANCH   9  10
ENDBRANCH   1   9
BRANCH   4  24
HETATM   24  C   UNL     1      42.758 -16.294   6.428  1.00  0.00     0.130 C 
BRANCH  24  25
HETATM   25  N   UNL     1      44.121 -16.800   6.447  1.00  0.00    -0.342 N 
HETATM   26  C   UNL     1      44.672 -17.943   5.947  1.00  0.00     0.320 C 
HETATM   27  N   UNL     1      43.852 -18.723   5.183  1.00  0.00    -0.309 N 
HETATM   28  O   UNL     1      45.843 -18.173   6.230  1.00  0.00    -0.247 OA
HETATM   29  H   UNL     1      42.960 -18.329   4.939  1.00  0.00     0.170 HD
HETATM   30  H   UNL     1      44.792 -16.292   7.012  1.00  0.00     0.164 HD
BRANCH  27  31
HETATM   31  C   UNL     1      44.145 -19.978   4.610  1.00  0.00     0.039 A 
HETATM   32  C   UNL     1      44.149 -20.230   3.238  1.00  0.00     0.071 A 
HETATM   33  C   UNL     1      44.458 -21.504   2.769  1.00  0.00     0.118 A 
HETATM   34  F   UNL     1      44.461 -21.739   1.449  1.00  0.00    -0.206 F 
HETATM   35  C   UNL     1      44.769 -22.541   3.642  1.00  0.00     0.042 A 
HETATM   36  C   UNL     1      44.772 -22.300   5.011  1.00  0.00     0.005 A 
HETATM   37  C   UNL     1      44.463 -21.024   5.492  1.00  0.00     0.030 A 
ENDBRANCH  27  31
ENDBRANCH  24  25
ENDBRANCH   4  24
TORSDOF 7
ENDMDL
MODEL 8
REMARK VINA RESULT:      -8.9      5.014      8.791
REMARK  7 active torsions:
REMARK  status: ('A' for Active; 'I' for Inactive)
REMARK    1  A    between atoms: C_5  and  N_6 
REMARK    2  A    between atoms: C_7  and  S_8 
REMARK    3  A    between atoms: S_8  and  C_9 
REMARK    4  A    between atoms: C_9  and  C_10 
REMARK       I    between atoms: C_10  and  N_11 
REMARK    5  A    between atoms: C_13  and  C_14 
REMARK    6  A    between atoms: C_14  and  N_15 
REMARK       I    between atoms: N_15  and  C_16 
REMARK       I    between atoms: C_16  and  N_17 
REMARK    7  A    between atoms: N_17  and  C_18 
ROOT
HETATM    1  C   UNL     1      41.009  -9.392   5.194  1.00  0.00     0.229 C 
HETATM    2  N   UNL     1      40.696 -10.753   5.297  1.00  0.00    -0.351 N 
HETATM    3  C   UNL     1      41.414 -11.658   4.402  1.00  0.00     0.132 C 
HETATM    4  C   UNL     1      41.557 -13.073   4.984  1.00  0.00     0.021 C 
HETATM    5  C   UNL     1      40.190 -13.606   5.436  1.00  0.00     0.009 C 
HETATM    6  C   UNL     1      39.518 -12.624   6.394  1.00  0.00     0.020 C 
HETATM    7  C   UNL     1      39.400 -11.238   5.773  1.00  0.00     0.126 C 
HETATM    8  O   UNL     1      41.815  -8.991   4.349  1.00  0.00    -0.273 OA
ENDROOT
BRANCH   1   9
HETATM    9  C   UNL     1      40.296  -8.394   6.098  1.00  0.00     0.185 C 
BRANCH   9  10
HETATM   10  S   UNL     1      41.115  -8.173   7.706  1.00  0.00    -0.082 SA
BRANCH  10  11
HETATM   11  C   UNL     1      40.184  -9.224   8.727  1.00  0.00     0.173 A 
HETATM   12  N   UNL     1      40.735 -10.108   9.647  1.00  0.00    -0.299 N 
HETATM   13  C   UNL     1      39.668 -10.847  10.126  1.00  0.00     0.118 A 
HETATM   14  C   UNL     1      38.552 -10.375   9.480  1.00  0.00     0.137 A 
HETATM   15  N   UNL     1      38.885  -9.384   8.604  1.00  0.00    -0.235 NA
BRANCH  12  16
HETATM   16  C   UNL     1      42.076 -10.218  10.117  1.00  0.00     0.047 A 
HETATM   17  C   UNL     1      43.073 -10.904   9.378  1.00  0.00    -0.029 A 
HETATM   18  C   UNL     1      44.346 -11.093   9.972  1.00  0.00    -0.054 A 
HETATM   19  C   UNL     1      42.837 -11.402   7.971  1.00  0.00     0.051 C 
HETATM   20  C   UNL     1      45.454 -11.837   9.271  1.00  0.00     0.049 C 
HETATM   21  C   UNL     1      44.618 -10.536  11.232  1.00  0.00     0.007 A 
HETATM   22  C   UNL     1      43.643  -9.830  11.927  1.00  0.00     0.003 A 
HETATM   23  C   UNL     1      42.372  -9.680  11.381  1.00  0.00     0.030 A 
ENDBRANCH  12  16
ENDBRANCH  10  11
ENDBRANCH   9  10
ENDBRANCH   1   9
BRANCH   4  24
HETATM   24  C   UNL     1      42.236 -13.981   3.949  1.00  0.00     0.130 C 
BRANCH  24  25
HETATM   25  N   UNL     1      41.408 -15.116   3.572  1.00  0.00    -0.342 N 
HETATM   26  C   UNL     1      41.698 -16.439   3.421  1.00  0.00     0.320 C 
HETATM   27  N   UNL     1      42.952 -16.828   3.794  1.00  0.00    -0.309 N 
HETATM   28  O   UNL     1      40.817 -17.159   2.960  1.00  0.00    -0.247 OA
HETATM   29  H   UNL     1      43.509 -16.143   4.273  1.00  0.00     0.170 HD
HETATM   30  H   UNL     1      40.466 -14.913   3.257  1.00  0.00     0.164 HD
BRANCH  27  31
HETATM   31  C   UNL     1      43.528 -18.111   3.677  1.00  0.00     0.039 A 
HETATM   32  C   UNL     1      43.438 -18.908   2.536  1.00  0.00     0.071 A 
HETATM   33  C   UNL     1      44.047 -20.160   2.516  1.00  0.00     0.118 A 
HETATM   34  F   UNL     1      43.957 -20.919   1.415  1.00  0.00    -0.206 F 
HETATM   35  C   UNL     1      44.752 -20.640   3.614  1.00  0.00     0.042 A 
HETATM   36  C   UNL     1      44.851 -19.852   4.755  1.00  0.00     0.005 A 
HETATM   37  C   UNL     1      44.243 -18.594   4.786  1.00  0.00     0.030 A 
ENDBRANCH  27  31
ENDBRANCH  24  25
ENDBRANCH   4  24
TORSDOF 7
ENDMDL
MODEL 9
REMARK VINA RESULT:      -8.9      1.884      3.122
REMARK  7 active torsions:
REMARK  status: ('A' for Active; 'I' for Inactive)
REMARK    1  A    between atoms: C_5  and  N_6 
REMARK    2  A    between atoms: C_7  and  S_8 
REMARK    3  A    between atoms: S_8  and  C_9 
REMARK    4  A    between atoms: C_9  and  C_10 
REMARK       I    between atoms: C_10  and  N_11 
REMARK    5  A    between atoms: C_13  and  C_14 
REMARK    6  A    between atoms: C_14  and  N_15 
REMARK       I    between atoms: N_15  and  C_16 
REMARK       I    between atoms: C_16  and  N_17 
REMARK    7  A    between atoms: N_17  and  C_18 
ROOT
HETATM    1  C   UNL     1      39.852 -12.948   4.258  1.00  0.00     0.229 C 
HETATM    2  N   UNL     1      41.147 -13.468   4.380  1.00  0.00    -0.351 N 
HETATM    3  C   UNL     1      41.437 -14.224   5.597  1.00  0.00     0.132 C 
HETATM    4  C   UNL     1      42.531 -15.282   5.387  1.00  0.00     0.021 C 
HETATM    5  C   UNL     1      43.772 -14.648   4.743  1.00  0.00     0.009 C 
HETATM    6  C   UNL     1      43.396 -13.906   3.462  1.00  0.00     0.020 C 
HETATM    7  C   UNL     1      42.309 -12.871   3.720  1.00  0.00     0.126 C 
HETATM    8  O   UNL     1      39.027 -13.089   5.166  1.00  0.00    -0.273 OA
ENDROOT
BRANCH   1   9
HETATM    9  C   UNL     1      39.484 -12.150   3.014  1.00  0.00     0.185 C 
BRANCH   9  10
HETATM   10  S   UNL     1      38.625 -13.140   1.755  1.00  0.00    -0.082 SA
BRANCH  10  11
HETATM   11  C   UNL     1      39.780 -14.399   1.442  1.00  0.00     0.173 A 
HETATM   12  N   UNL     1      40.716 -14.361   0.416  1.00  0.00    -0.299 N 
HETATM   13  C   UNL     1      41.320 -15.606   0.429  1.00  0.00     0.118 A 
HETATM   14  C   UNL     1      40.726 -16.311   1.445  1.00  0.00     0.137 A 
HETATM   15  N   UNL     1      39.762 -15.562   2.054  1.00  0.00    -0.235 NA
BRANCH  12  16
HETATM   16  C   UNL     1      41.095 -13.283  -0.435  1.00  0.00     0.047 A 
HETATM   17  C   UNL     1      40.515 -13.103  -1.717  1.00  0.00    -0.029 A 
HETATM   18  C   UNL     1      41.040 -12.094  -2.562  1.00  0.00    -0.054 A 
HETATM   19  C   UNL     1      39.337 -13.921  -2.192  1.00  0.00     0.051 C 
HETATM   20  C   UNL     1      40.504 -11.854  -3.950  1.00  0.00     0.049 C 
HETATM   21  C   UNL     1      42.058 -11.249  -2.092  1.00  0.00     0.007 A 
HETATM   22  C   UNL     1      42.588 -11.410  -0.817  1.00  0.00     0.003 A 
HETATM   23  C   UNL     1      42.120 -12.429   0.006  1.00  0.00     0.030 A 
ENDBRANCH  12  16
ENDBRANCH  10  11
ENDBRANCH   9  10
ENDBRANCH   1   9
BRANCH   4  24
HETATM   24  C   UNL     1      42.840 -15.964   6.727  1.00  0.00     0.130 C 
BRANCH  24  25
HETATM   25  N   UNL     1      44.167 -16.558   6.761  1.00  0.00    -0.342 N 
HETATM   26  C   UNL     1      44.679 -17.669   6.161  1.00  0.00     0.320 C 
HETATM   27  N   UNL     1      43.863 -18.301   5.266  1.00  0.00    -0.309 N 
HETATM   28  O   UNL     1      45.815 -18.006   6.478  1.00  0.00    -0.247 OA
HETATM   29  H   UNL     1      43.013 -17.824   5.022  1.00  0.00     0.170 HD
HETATM   30  H   UNL     1      44.830 -16.162   7.418  1.00  0.00     0.164 HD
BRANCH  27  31
HETATM   31  C   UNL     1      44.117 -19.499   4.565  1.00  0.00     0.039 A 
HETATM   32  C   UNL     1      44.575 -20.673   5.163  1.00  0.00     0.071 A 
HETATM   33  C   UNL     1      44.789 -21.808   4.385  1.00  0.00     0.118 A 
HETATM   34  F   UNL     1      45.227 -22.933   4.966  1.00  0.00    -0.206 F 
HETATM   35  C   UNL     1      44.553 -21.801   3.015  1.00  0.00     0.042 A 
HETATM   36  C   UNL     1      44.093 -20.637   2.409  1.00  0.00     0.005 A 
HETATM   37  C   UNL     1      43.875 -19.493   3.182  1.00  0.00     0.030 A 
ENDBRANCH  27  31
ENDBRANCH  24  25
ENDBRANCH   4  24
TORSDOF 7
ENDMDL
MODEL 10
REMARK VINA RESULT:      -8.8      5.160      9.091
REMARK  7 active torsions:
REMARK  status: ('A' for Active; 'I' for Inactive)
REMARK    1  A    between atoms: C_5  and  N_6 
REMARK    2  A    between atoms: C_7  and  S_8 
REMARK    3  A    between atoms: S_8  and  C_9 
REMARK    4  A    between atoms: C_9  and  C_10 
REMARK       I    between atoms: C_10  and  N_11 
REMARK    5  A    between atoms: C_13  and  C_14 
REMARK    6  A    between atoms: C_14  and  N_15 
REMARK       I    between atoms: N_15  and  C_16 
REMARK       I    between atoms: C_16  and  N_17 
REMARK    7  A    between atoms: N_17  and  C_18 
ROOT
HETATM    1  C   UNL     1      40.130 -13.186   5.855  1.00  0.00     0.229 C 
HETATM    2  N   UNL     1      40.139 -13.250   4.457  1.00  0.00    -0.351 N 
HETATM    3  C   UNL     1      40.111 -14.586   3.863  1.00  0.00     0.132 C 
HETATM    4  C   UNL     1      39.459 -14.600   2.472  1.00  0.00     0.021 C 
HETATM    5  C   UNL     1      40.099 -13.536   1.569  1.00  0.00     0.009 C 
HETATM    6  C   UNL     1      40.059 -12.165   2.241  1.00  0.00     0.020 C 
HETATM    7  C   UNL     1      40.716 -12.201   3.615  1.00  0.00     0.126 C 
HETATM    8  O   UNL     1      40.150 -14.217   6.535  1.00  0.00    -0.273 OA
ENDROOT
BRANCH   1   9
HETATM    9  C   UNL     1      40.157 -11.824   6.538  1.00  0.00     0.185 C 
BRANCH   9  10
HETATM   10  S   UNL     1      39.325 -11.816   8.154  1.00  0.00    -0.082 SA
BRANCH  10  11
HETATM   11  C   UNL     1      39.275 -10.119   8.520  1.00  0.00     0.173 A 
HETATM   12  N   UNL     1      39.779  -9.558   9.687  1.00  0.00    -0.299 N 
HETATM   13  C   UNL     1      39.401  -8.228   9.643  1.00  0.00     0.118 A 
HETATM   14  C   UNL     1      38.703  -8.065   8.473  1.00  0.00     0.137 A 
HETATM   15  N   UNL     1      38.615  -9.244   7.794  1.00  0.00    -0.235 NA
BRANCH  12  16
HETATM   16  C   UNL     1      40.599 -10.137  10.699  1.00  0.00     0.047 A 
HETATM   17  C   UNL     1      41.934 -10.538  10.439  1.00  0.00    -0.029 A 
HETATM   18  C   UNL     1      42.641 -11.232  11.453  1.00  0.00    -0.054 A 
HETATM   19  C   UNL     1      42.637 -10.217   9.141  1.00  0.00     0.051 C 
HETATM   20  C   UNL     1      44.052 -11.722  11.252  1.00  0.00     0.049 C 
HETATM   21  C   UNL     1      42.043 -11.437  12.706  1.00  0.00     0.007 A 
HETATM   22  C   UNL     1      40.748 -11.001  12.960  1.00  0.00     0.003 A 
HETATM   23  C   UNL     1      40.021 -10.364  11.959  1.00  0.00     0.030 A 
ENDBRANCH  12  16
ENDBRANCH  10  11
ENDBRANCH   9  10
ENDBRANCH   1   9
BRANCH   4  24
HETATM   24  C   UNL     1      39.554 -16.015   1.882  1.00  0.00     0.130 C 
BRANCH  24  25
HETATM   25  N   UNL     1      40.740 -16.200   1.061  1.00  0.00    -0.342 N 
HETATM   26  C   UNL     1      41.823 -17.015   1.202  1.00  0.00     0.320 C 
HETATM   27  N   UNL     1      41.767 -17.921   2.222  1.00  0.00    -0.309 N 
HETATM   28  O   UNL     1      42.749 -16.863   0.411  1.00  0.00    -0.247 OA
HETATM   29  H   UNL     1      40.886 -18.006   2.697  1.00  0.00     0.170 HD
HETATM   30  H   UNL     1      40.872 -15.552   0.292  1.00  0.00     0.164 HD
BRANCH  27  31
HETATM   31  C   UNL     1      42.771 -18.826   2.629  1.00  0.00     0.039 A 
HETATM   32  C   UNL     1      43.161 -19.944   1.892  1.00  0.00     0.071 A 
HETATM   33  C   UNL     1      44.169 -20.774   2.376  1.00  0.00     0.118 A 
HETATM   34  F   UNL     1      44.539 -21.846   1.661  1.00  0.00    -0.206 F 
HETATM   35  C   UNL     1      44.804 -20.513   3.584  1.00  0.00     0.042 A 
HETATM   36  C   UNL     1      44.425 -19.399   4.325  1.00  0.00     0.005 A 
HETATM   37  C   UNL     1      43.415 -18.559   3.848  1.00  0.00     0.030 A 
ENDBRANCH  27  31
ENDBRANCH  24  25
ENDBRANCH   4  24
TORSDOF 7
ENDMDL
