MODEL 1
REMARK VINA RESULT:      -9.9      0.000      0.000
REMARK  8 active torsions:
REMARK  status: ('A' for Active; 'I' for Inactive)
REMARK    1  A    between atoms: C_4  and  C_5 
REMARK    2  A    between atoms: C_9  and  C_10 
REMARK       I    between atoms: C_10  and  N_11 
REMARK    3  A    between atoms: N_11  and  C_12 
REMARK    4  A    between atoms: C_12  and  C_13 
REMARK    5  A    between atoms: C_13  and  C_14 
REMARK    6  A    between atoms: C_14  and  C_15 
REMARK    7  A    between atoms: C_15  and  O_16 
REMARK    8  A    between atoms: O_16  and  C_17 
ROOT
HETATM    1  C   UNL     1      45.109 -11.731   9.352  1.00  0.00     0.270 C 
HETATM    2  N   UNL     1      44.655 -12.843   8.687  1.00  0.00    -0.345 N 
HETATM    3  O   UNL     1      46.028 -11.032   8.939  1.00  0.00    -0.266 OA
HETATM    4  H   UNL     1      43.800 -13.285   8.985  1.00  0.00     0.163 HD
ENDROOT
BRANCH   2   5
HETATM    5  C   UNL     1      45.235 -13.275   7.444  1.00  0.00     0.217 C 
BRANCH   5   6
HETATM    6  C   UNL     1      44.598 -14.578   6.989  1.00  0.00    -0.085 C 
BRANCH   6   7
HETATM    7  C   UNL     1      44.052 -15.695   6.598  1.00  0.00    -0.078 C 
BRANCH   7   8
HETATM    8  C   UNL     1      43.415 -16.998   6.142  1.00  0.00     0.269 C 
BRANCH   8   9
HETATM    9  O   UNL     1      44.425 -17.879   5.668  1.00  0.00    -0.337 OA
BRANCH   9  10
HETATM   10  C   UNL     1      44.195 -18.519   4.467  1.00  0.00     0.099 A 
HETATM   11  C   UNL     1      44.359 -19.893   4.180  1.00  0.00     0.100 A 
HETATM   12  C   UNL     1      44.056 -20.318   2.862  1.00  0.00    -0.005 A 
HETATM   13  N   UNL     1      44.782 -20.802   5.096  1.00  0.00    -0.257 NA
HETATM   14  C   UNL     1      44.206 -21.673   2.533  1.00  0.00     0.015 A 
HETATM   15  C   UNL     1      43.613 -19.409   1.889  1.00  0.00     0.014 A 
HETATM   16  C   UNL     1      44.641 -22.582   3.485  1.00  0.00     0.020 A 
HETATM   17  C   UNL     1      44.914 -22.100   4.745  1.00  0.00     0.117 A 
HETATM   18  C   UNL     1      43.458 -18.064   2.198  1.00  0.00     0.004 A 
HETATM   19  C   UNL     1      43.747 -17.623   3.482  1.00  0.00     0.039 A 
ENDBRANCH   9  10
ENDBRANCH   8   9
ENDBRANCH   7   8
ENDBRANCH   6   7
ENDBRANCH   5   6
ENDBRANCH   2   5
BRANCH   1  20
HETATM   20  C   UNL     1      44.435 -11.448  10.589  1.00  0.00     0.120 A 
HETATM   21  N   UNL     1      43.928 -12.444  11.375  1.00  0.00    -0.272 N 
HETATM   22  N   UNL     1      43.316 -12.012  12.488  1.00  0.00    -0.174 NA
HETATM   23  H   UNL     1      43.974 -13.443  11.194  1.00  0.00     0.189 HD
HETATM   24  C   UNL     1      43.386 -10.674  12.414  1.00  0.00     0.089 A 
HETATM   25  C   UNL     1      44.101 -10.281  11.247  1.00  0.00     0.071 A 
BRANCH  24  26
HETATM   26  C   UNL     1      42.779  -9.810  13.432  1.00  0.00    -0.006 A 
HETATM   27  C   UNL     1      42.773  -8.418  13.268  1.00  0.00     0.014 A 
HETATM   28  C   UNL     1      42.195  -7.588  14.232  1.00  0.00     0.001 A 
HETATM   29  C   UNL     1      41.623  -8.142  15.376  1.00  0.00     0.000 A 
HETATM   30  C   UNL     1      41.628  -9.523  15.556  1.00  0.00     0.001 A 
HETATM   31  C   UNL     1      42.203 -10.353  14.589  1.00  0.00     0.014 A 
ENDBRANCH  24  26
ENDBRANCH   1  20
TORSDOF 8
ENDMDL
MODEL 2
REMARK VINA RESULT:      -9.6      1.507      2.652
REMARK  8 active torsions:
REMARK  status: ('A' for Active; 'I' for Inactive)
REMARK    1  A    between atoms: C_4  and  C_5 
REMARK    2  A    between atoms: C_9  and  C_10 
REMARK       I    between atoms: C_10  and  N_11 
REMARK    3  A    between atoms: N_11  and  C_12 
REMARK    4  A    between atoms: C_12  and  C_13 
REMARK    5  A    between atoms: C_13  and  C_14 
REMARK    6  A    between atoms: C_14  and  C_15 
REMARK    7  A    between atoms: C_15  and  O_16 
REMARK    8  A    between atoms: O_16  and  C_17 
ROOT
HETATM    1  C   UNL     1      44.930 -12.646   8.539  1.00  0.00     0.270 C 
HETATM    2  N   UNL     1      43.985 -13.258   7.753  1.00  0.00    -0.345 N 
HETATM    3  O   UNL     1      46.121 -12.611   8.251  1.00  0.00    -0.266 OA
HETATM    4  H   UNL     1      43.007 -13.119   7.954  1.00  0.00     0.163 HD
ENDROOT
BRANCH   2   5
HETATM    5  C   UNL     1      44.330 -13.913   6.521  1.00  0.00     0.217 C 
BRANCH   5   6
HETATM    6  C   UNL     1      44.378 -15.419   6.718  1.00  0.00    -0.085 C 
BRANCH   6   7
HETATM    7  C   UNL     1      44.419 -16.711   6.888  1.00  0.00    -0.078 C 
BRANCH   7   8
HETATM    8  C   UNL     1      44.467 -18.217   7.088  1.00  0.00     0.269 C 
BRANCH   8   9
HETATM    9  O   UNL     1      43.362 -18.818   6.426  1.00  0.00    -0.337 OA
BRANCH   9  10
HETATM   10  C   UNL     1      43.468 -19.012   5.063  1.00  0.00     0.099 A 
HETATM   11  C   UNL     1      42.709 -18.391   4.045  1.00  0.00     0.100 A 
HETATM   12  C   UNL     1      43.004 -18.754   2.708  1.00  0.00    -0.005 A 
HETATM   13  N   UNL     1      41.733 -17.480   4.292  1.00  0.00    -0.257 NA
HETATM   14  C   UNL     1      42.274 -18.164   1.665  1.00  0.00     0.015 A 
HETATM   15  C   UNL     1      44.008 -19.690   2.413  1.00  0.00     0.014 A 
HETATM   16  C   UNL     1      41.282 -17.236   1.943  1.00  0.00     0.020 A 
HETATM   17  C   UNL     1      41.050 -16.930   3.264  1.00  0.00     0.117 A 
HETATM   18  C   UNL     1      44.742 -20.283   3.432  1.00  0.00     0.004 A 
HETATM   19  C   UNL     1      44.471 -19.943   4.750  1.00  0.00     0.039 A 
ENDBRANCH   9  10
ENDBRANCH   8   9
ENDBRANCH   7   8
ENDBRANCH   6   7
ENDBRANCH   5   6
ENDBRANCH   2   5
BRANCH   1  20
HETATM   20  C   UNL     1      44.423 -12.056   9.748  1.00  0.00     0.120 A 
HETATM   21  N   UNL     1      44.026 -12.820  10.808  1.00  0.00    -0.272 N 
HETATM   22  N   UNL     1      43.564 -12.117  11.853  1.00  0.00    -0.174 NA
HETATM   23  H   UNL     1      44.051 -13.834  10.869  1.00  0.00     0.189 HD
HETATM   24  C   UNL     1      43.620 -10.838  11.450  1.00  0.00     0.089 A 
HETATM   25  C   UNL     1      44.175 -10.757  10.142  1.00  0.00     0.071 A 
BRANCH  24  26
HETATM   26  C   UNL     1      43.150  -9.739  12.300  1.00  0.00    -0.006 A 
HETATM   27  C   UNL     1      43.163  -9.866  13.696  1.00  0.00     0.014 A 
HETATM   28  C   UNL     1      42.718  -8.823  14.513  1.00  0.00     0.001 A 
HETATM   29  C   UNL     1      42.248  -7.643  13.941  1.00  0.00     0.000 A 
HETATM   30  C   UNL     1      42.222  -7.504  12.555  1.00  0.00     0.001 A 
HETATM   31  C   UNL     1      42.670  -8.546  11.739  1.00  0.00     0.014 A 
ENDBRANCH  24  26
ENDBRANCH   1  20
TORSDOF 8
ENDMDL
MODEL 3
REMARK VINA RESULT:      -9.0      1.494      2.185
REMARK  8 active torsions:
REMARK  status: ('A' for Active; 'I' for Inactive)
REMARK    1  A    between atoms: C_4  and  C_5 
REMARK    2  A    between atoms: C_9  and  C_10 
REMARK       I    between atoms: C_10  and  N_11 
REMARK    3  A    between atoms: N_11  and  C_12 
REMARK    4  A    between atoms: C_12  and  C_13 
REMARK    5  A    between atoms: C_13  and  C_14 
REMARK    6  A    between atoms: C_14  and  C_15 
REMARK    7  A    between atoms: C_15  and  O_16 
REMARK    8  A    between atoms: O_16  and  C_17 
ROOT
HETATM    1  C   UNL     1      44.602 -11.465   9.408  1.00  0.00     0.270 C 
HETATM    2  N   UNL     1      44.390 -12.684   8.812  1.00  0.00    -0.345 N 
HETATM    3  O   UNL     1      45.537 -10.729   9.115  1.00  0.00    -0.266 OA
HETATM    4  H   UNL     1      43.524 -13.172   8.975  1.00  0.00     0.163 HD
ENDROOT
BRANCH   2   5
HETATM    5  C   UNL     1      45.264 -13.192   7.789  1.00  0.00     0.217 C 
BRANCH   5   6
HETATM    6  C   UNL     1      44.460 -13.899   6.711  1.00  0.00    -0.085 C 
BRANCH   6   7
HETATM    7  C   UNL     1      43.770 -14.506   5.786  1.00  0.00    -0.078 C 
BRANCH   7   8
HETATM    8  C   UNL     1      42.965 -15.214   4.708  1.00  0.00     0.269 C 
BRANCH   8   9
HETATM    9  O   UNL     1      42.408 -16.409   5.241  1.00  0.00    -0.337 OA
BRANCH   9  10
HETATM   10  C   UNL     1      43.154 -17.564   5.121  1.00  0.00     0.099 A 
HETATM   11  C   UNL     1      43.273 -18.397   3.986  1.00  0.00     0.100 A 
HETATM   12  C   UNL     1      44.105 -19.537   4.106  1.00  0.00    -0.005 A 
HETATM   13  N   UNL     1      42.637 -18.152   2.811  1.00  0.00    -0.257 NA
HETATM   14  C   UNL     1      44.251 -20.393   3.004  1.00  0.00     0.015 A 
HETATM   15  C   UNL     1      44.781 -19.821   5.303  1.00  0.00     0.014 A 
HETATM   16  C   UNL     1      43.590 -20.123   1.816  1.00  0.00     0.020 A 
HETATM   17  C   UNL     1      42.800 -18.997   1.769  1.00  0.00     0.117 A 
HETATM   18  C   UNL     1      44.650 -18.984   6.404  1.00  0.00     0.004 A 
HETATM   19  C   UNL     1      43.840 -17.861   6.310  1.00  0.00     0.039 A 
ENDBRANCH   9  10
ENDBRANCH   8   9
ENDBRANCH   7   8
ENDBRANCH   6   7
ENDBRANCH   5   6
ENDBRANCH   2   5
BRANCH   1  20
HETATM   20  C   UNL     1      43.648 -11.114  10.425  1.00  0.00     0.120 A 
HETATM   21  N   UNL     1      42.340 -11.500  10.345  1.00  0.00    -0.272 N 
HETATM   22  N   UNL     1      41.578 -11.079  11.366  1.00  0.00    -0.174 NA
HETATM   23  H   UNL     1      41.915 -12.057   9.609  1.00  0.00     0.189 HD
HETATM   24  C   UNL     1      42.408 -10.351  12.129  1.00  0.00     0.089 A 
HETATM   25  C   UNL     1      43.721 -10.367  11.583  1.00  0.00     0.071 A 
BRANCH  24  26
HETATM   26  C   UNL     1      41.942  -9.662  13.337  1.00  0.00    -0.006 A 
HETATM   27  C   UNL     1      40.786  -8.869  13.300  1.00  0.00     0.014 A 
HETATM   28  C   UNL     1      40.335  -8.211  14.447  1.00  0.00     0.001 A 
HETATM   29  C   UNL     1      41.039  -8.332  15.643  1.00  0.00     0.000 A 
HETATM   30  C   UNL     1      42.193  -9.110  15.693  1.00  0.00     0.001 A 
HETATM   31  C   UNL     1      42.643  -9.772  14.547  1.00  0.00     0.014 A 
ENDBRANCH  24  26
ENDBRANCH   1  20
TORSDOF 8
ENDMDL
MODEL 4
REMARK VINA RESULT:      -8.7      2.841     11.910
REMARK  8 active torsions:
REMARK  status: ('A' for Active; 'I' for Inactive)
REMARK    1  A    between atoms: C_4  and  C_5 
REMARK    2  A    between atoms: C_9  and  C_10 
REMARK       I    between atoms: C_10  and  N_11 
REMARK    3  A    between atoms: N_11  and  C_12 
REMARK    4  A    between atoms: C_12  and  C_13 
REMARK    5  A    between atoms: C_13  and  C_14 
REMARK    6  A    between atoms: C_14  and  C_15 
REMARK    7  A    between atoms: C_15  and  O_16 
REMARK    8  A    between atoms: O_16  and  C_17 
ROOT
HETATM    1  C   UNL     1      43.161 -14.283   3.837  1.00  0.00     0.270 C 
HETATM    2  N   UNL     1      41.888 -13.800   4.011  1.00  0.00    -0.345 N 
HETATM    3  O   UNL     1      44.120 -13.566   3.575  1.00  0.00    -0.266 OA
HETATM    4  H   UNL     1      41.173 -14.407   4.380  1.00  0.00     0.163 HD
ENDROOT
BRANCH   2   5
HETATM    5  C   UNL     1      41.583 -12.400   3.893  1.00  0.00     0.217 C 
BRANCH   5   6
HETATM    6  C   UNL     1      41.441 -11.773   5.271  1.00  0.00    -0.085 C 
BRANCH   6   7
HETATM    7  C   UNL     1      41.319 -11.235   6.452  1.00  0.00    -0.078 C 
BRANCH   7   8
HETATM    8  C   UNL     1      41.177 -10.608   7.829  1.00  0.00     0.269 C 
BRANCH   8   9
HETATM    9  O   UNL     1      42.407 -10.003   8.205  1.00  0.00    -0.337 OA
BRANCH   9  10
HETATM   10  C   UNL     1      42.987 -10.425   9.384  1.00  0.00     0.099 A 
HETATM   11  C   UNL     1      42.830  -9.859  10.670  1.00  0.00     0.100 A 
HETATM   12  C   UNL     1      43.533 -10.474  11.736  1.00  0.00    -0.005 A 
HETATM   13  N   UNL     1      42.048  -8.777  10.918  1.00  0.00    -0.257 NA
HETATM   14  C   UNL     1      43.407  -9.945  13.028  1.00  0.00     0.015 A 
HETATM   15  C   UNL     1      44.348 -11.596  11.518  1.00  0.00     0.014 A 
HETATM   16  C   UNL     1      42.604  -8.838  13.257  1.00  0.00     0.020 A 
HETATM   17  C   UNL     1      41.949  -8.294  12.176  1.00  0.00     0.117 A 
HETATM   18  C   UNL     1      44.483 -12.134  10.245  1.00  0.00     0.004 A 
HETATM   19  C   UNL     1      43.804 -11.550   9.184  1.00  0.00     0.039 A 
ENDBRANCH   9  10
ENDBRANCH   8   9
ENDBRANCH   7   8
ENDBRANCH   6   7
ENDBRANCH   5   6
ENDBRANCH   2   5
BRANCH   1  20
HETATM   20  C   UNL     1      43.292 -15.708   3.969  1.00  0.00     0.120 A 
HETATM   21  N   UNL     1      43.270 -16.320   5.190  1.00  0.00    -0.272 N 
HETATM   22  N   UNL     1      43.420 -17.653   5.142  1.00  0.00    -0.174 NA
HETATM   23  H   UNL     1      43.154 -15.870   6.093  1.00  0.00     0.189 HD
HETATM   24  C   UNL     1      43.588 -17.927   3.839  1.00  0.00     0.089 A 
HETATM   25  C   UNL     1      43.493 -16.735   3.068  1.00  0.00     0.071 A 
BRANCH  24  26
HETATM   26  C   UNL     1      43.838 -19.291   3.362  1.00  0.00    -0.006 A 
HETATM   27  C   UNL     1      43.313 -19.720   2.135  1.00  0.00     0.014 A 
HETATM   28  C   UNL     1      43.548 -21.017   1.672  1.00  0.00     0.001 A 
HETATM   29  C   UNL     1      44.305 -21.903   2.436  1.00  0.00     0.000 A 
HETATM   30  C   UNL     1      44.827 -21.494   3.660  1.00  0.00     0.001 A 
HETATM   31  C   UNL     1      44.595 -20.194   4.121  1.00  0.00     0.014 A 
ENDBRANCH  24  26
ENDBRANCH   1  20
TORSDOF 8
ENDMDL
MODEL 5
REMARK VINA RESULT:      -8.6      3.360     11.310
REMARK  8 active torsions:
REMARK  status: ('A' for Active; 'I' for Inactive)
REMARK    1  A    between atoms: C_4  and  C_5 
REMARK    2  A    between atoms: C_9  and  C_10 
REMARK       I    between atoms: C_10  and  N_11 
REMARK    3  A    between atoms: N_11  and  C_12 
REMARK    4  A    between atoms: C_12  and  C_13 
REMARK    5  A    between atoms: C_13  and  C_14 
REMARK    6  A    between atoms: C_14  and  C_15 
REMARK    7  A    between atoms: C_15  and  O_16 
REMARK    8  A    between atoms: O_16  and  C_17 
ROOT
HETATM    1  C   UNL     1      40.219 -14.522   4.826  1.00  0.00     0.270 C 
HETATM    2  N   UNL     1      39.908 -13.895   6.006  1.00  0.00    -0.345 N 
HETATM    3  O   UNL     1      39.839 -14.119   3.732  1.00  0.00    -0.266 OA
HETATM    4  H   UNL     1      40.375 -14.173   6.855  1.00  0.00     0.163 HD
ENDROOT
BRANCH   2   5
HETATM    5  C   UNL     1      39.100 -12.706   6.046  1.00  0.00     0.217 C 
BRANCH   5   6
HETATM    6  C   UNL     1      39.330 -11.954   7.346  1.00  0.00    -0.085 C 
BRANCH   6   7
HETATM    7  C   UNL     1      39.528 -11.308   8.461  1.00  0.00    -0.078 C 
BRANCH   7   8
HETATM    8  C   UNL     1      39.759 -10.556   9.762  1.00  0.00     0.269 C 
BRANCH   8   9
HETATM    9  O   UNL     1      40.854  -9.662   9.604  1.00  0.00    -0.337 OA
BRANCH   9  10
HETATM   10  C   UNL     1      41.959  -9.866  10.405  1.00  0.00     0.099 A 
HETATM   11  C   UNL     1      43.133 -10.584  10.083  1.00  0.00     0.100 A 
HETATM   12  C   UNL     1      44.140 -10.656  11.078  1.00  0.00    -0.005 A 
HETATM   13  N   UNL     1      43.331 -11.193   8.885  1.00  0.00    -0.257 NA
HETATM   14  C   UNL     1      45.321 -11.359  10.802  1.00  0.00     0.015 A 
HETATM   15  C   UNL     1      43.973 -10.037  12.327  1.00  0.00     0.014 A 
HETATM   16  C   UNL     1      45.499 -11.973   9.571  1.00  0.00     0.020 A 
HETATM   17  C   UNL     1      44.481 -11.862   8.652  1.00  0.00     0.117 A 
HETATM   18  C   UNL     1      42.811  -9.334  12.617  1.00  0.00     0.004 A 
HETATM   19  C   UNL     1      41.810  -9.250  11.658  1.00  0.00     0.039 A 
ENDBRANCH   9  10
ENDBRANCH   8   9
ENDBRANCH   7   8
ENDBRANCH   6   7
ENDBRANCH   5   6
ENDBRANCH   2   5
BRANCH   1  20
HETATM   20  C   UNL     1      41.019 -15.708   4.962  1.00  0.00     0.120 A 
HETATM   21  N   UNL     1      41.357 -16.209   6.187  1.00  0.00    -0.272 N 
HETATM   22  N   UNL     1      42.119 -17.312   6.141  1.00  0.00    -0.174 NA
HETATM   23  H   UNL     1      41.091 -15.831   7.092  1.00  0.00     0.189 HD
HETATM   24  C   UNL     1      42.327 -17.525   4.833  1.00  0.00     0.089 A 
HETATM   25  C   UNL     1      41.634 -16.552   4.059  1.00  0.00     0.071 A 
BRANCH  24  26
HETATM   26  C   UNL     1      43.168 -18.626   4.352  1.00  0.00    -0.006 A 
HETATM   27  C   UNL     1      43.973 -19.346   5.247  1.00  0.00     0.014 A 
HETATM   28  C   UNL     1      44.776 -20.397   4.798  1.00  0.00     0.001 A 
HETATM   29  C   UNL     1      44.788 -20.737   3.447  1.00  0.00     0.000 A 
HETATM   30  C   UNL     1      44.000 -20.026   2.545  1.00  0.00     0.001 A 
HETATM   31  C   UNL     1      43.194 -18.977   2.995  1.00  0.00     0.014 A 
ENDBRANCH  24  26
ENDBRANCH   1  20
TORSDOF 8
ENDMDL
MODEL 6
REMARK VINA RESULT:      -8.6      5.533      9.143
REMARK  8 active torsions:
REMARK  status: ('A' for Active; 'I' for Inactive)
REMARK    1  A    between atoms: C_4  and  C_5 
REMARK    2  A    between atoms: C_9  and  C_10 
REMARK       I    between atoms: C_10  and  N_11 
REMARK    3  A    between atoms: N_11  and  C_12 
REMARK    4  A    between atoms: C_12  and  C_13 
REMARK    5  A    between atoms: C_13  and  C_14 
REMARK    6  A    between atoms: C_14  and  C_15 
REMARK    7  A    between atoms: C_15  and  O_16 
REMARK    8  A    between atoms: O_16  and  C_17 
ROOT
HETATM    1  C   UNL     1      42.476 -13.329   4.852  1.00  0.00     0.270 C 
HETATM    2  N   UNL     1      43.718 -13.835   5.144  1.00  0.00    -0.345 N 
HETATM    3  O   UNL     1      41.617 -13.126   5.703  1.00  0.00    -0.266 OA
HETATM    4  H   UNL     1      44.435 -13.831   4.436  1.00  0.00     0.163 HD
ENDROOT
BRANCH   2   5
HETATM    5  C   UNL     1      44.104 -14.173   6.487  1.00  0.00     0.217 C 
BRANCH   5   6
HETATM    6  C   UNL     1      44.339 -15.670   6.609  1.00  0.00    -0.085 C 
BRANCH   6   7
HETATM    7  C   UNL     1      44.541 -16.953   6.714  1.00  0.00    -0.078 C 
BRANCH   7   8
HETATM    8  C   UNL     1      44.775 -18.450   6.836  1.00  0.00     0.269 C 
BRANCH   8   9
HETATM    9  O   UNL     1      43.686 -19.150   6.248  1.00  0.00    -0.337 OA
BRANCH   9  10
HETATM   10  C   UNL     1      43.647 -19.219   4.870  1.00  0.00     0.099 A 
HETATM   11  C   UNL     1      42.785 -18.515   3.998  1.00  0.00     0.100 A 
HETATM   12  C   UNL     1      42.937 -18.753   2.610  1.00  0.00    -0.005 A 
HETATM   13  N   UNL     1      41.841 -17.639   4.429  1.00  0.00    -0.257 NA
HETATM   14  C   UNL     1      42.101 -18.078   1.708  1.00  0.00     0.015 A 
HETATM   15  C   UNL     1      43.903 -19.649   2.127  1.00  0.00     0.014 A 
HETATM   16  C   UNL     1      41.144 -17.189   2.172  1.00  0.00     0.020 A 
HETATM   17  C   UNL     1      41.054 -17.005   3.533  1.00  0.00     0.117 A 
HETATM   18  C   UNL     1      44.740 -20.326   3.004  1.00  0.00     0.004 A 
HETATM   19  C   UNL     1      44.612 -20.109   4.369  1.00  0.00     0.039 A 
ENDBRANCH   9  10
ENDBRANCH   8   9
ENDBRANCH   7   8
ENDBRANCH   6   7
ENDBRANCH   5   6
ENDBRANCH   2   5
BRANCH   1  20
HETATM   20  C   UNL     1      42.243 -13.063   3.459  1.00  0.00     0.120 A 
HETATM   21  N   UNL     1      41.735 -11.868   3.032  1.00  0.00    -0.272 N 
HETATM   22  N   UNL     1      41.562 -11.785   1.704  1.00  0.00    -0.174 NA
HETATM   23  H   UNL     1      41.488 -11.071   3.611  1.00  0.00     0.189 HD
HETATM   24  C   UNL     1      41.933 -12.989   1.239  1.00  0.00     0.089 A 
HETATM   25  C   UNL     1      42.387 -13.811   2.308  1.00  0.00     0.071 A 
BRANCH  24  26
HETATM   26  C   UNL     1      41.844 -13.328  -0.184  1.00  0.00    -0.006 A 
HETATM   27  C   UNL     1      41.212 -14.512  -0.593  1.00  0.00     0.014 A 
HETATM   28  C   UNL     1      41.122 -14.842  -1.948  1.00  0.00     0.001 A 
HETATM   29  C   UNL     1      41.670 -13.995  -2.910  1.00  0.00     0.000 A 
HETATM   30  C   UNL     1      42.306 -12.820  -2.519  1.00  0.00     0.001 A 
HETATM   31  C   UNL     1      42.393 -12.487  -1.163  1.00  0.00     0.014 A 
ENDBRANCH  24  26
ENDBRANCH   1  20
TORSDOF 8
ENDMDL
MODEL 7
REMARK VINA RESULT:      -8.6      3.267     11.659
REMARK  8 active torsions:
REMARK  status: ('A' for Active; 'I' for Inactive)
REMARK    1  A    between atoms: C_4  and  C_5 
REMARK    2  A    between atoms: C_9  and  C_10 
REMARK       I    between atoms: C_10  and  N_11 
REMARK    3  A    between atoms: N_11  and  C_12 
REMARK    4  A    between atoms: C_12  and  C_13 
REMARK    5  A    between atoms: C_13  and  C_14 
REMARK    6  A    between atoms: C_14  and  C_15 
REMARK    7  A    between atoms: C_15  and  O_16 
REMARK    8  A    between atoms: O_16  and  C_17 
ROOT
HETATM    1  C   UNL     1      41.397 -13.696   5.448  1.00  0.00     0.270 C 
HETATM    2  N   UNL     1      40.081 -13.706   5.841  1.00  0.00    -0.345 N 
HETATM    3  O   UNL     1      41.986 -12.677   5.104  1.00  0.00    -0.266 OA
HETATM    4  H   UNL     1      39.696 -14.536   6.263  1.00  0.00     0.163 HD
ENDROOT
BRANCH   2   5
HETATM    5  C   UNL     1      39.289 -12.507   5.873  1.00  0.00     0.217 C 
BRANCH   5   6
HETATM    6  C   UNL     1      39.391 -11.842   7.236  1.00  0.00    -0.085 C 
BRANCH   6   7
HETATM    7  C   UNL     1      39.480 -11.273   8.405  1.00  0.00    -0.078 C 
BRANCH   7   8
HETATM    8  C   UNL     1      39.584 -10.608   9.769  1.00  0.00     0.269 C 
BRANCH   8   9
HETATM    9  O   UNL     1      40.340 -11.436  10.643  1.00  0.00    -0.337 OA
BRANCH   9  10
HETATM   10  C   UNL     1      41.547 -10.944  11.097  1.00  0.00     0.099 A 
HETATM   11  C   UNL     1      41.831 -10.409  12.374  1.00  0.00     0.100 A 
HETATM   12  C   UNL     1      43.157  -9.965  12.607  1.00  0.00    -0.005 A 
HETATM   13  N   UNL     1      40.908 -10.309  13.364  1.00  0.00    -0.257 NA
HETATM   14  C   UNL     1      43.484  -9.425  13.859  1.00  0.00     0.015 A 
HETATM   15  C   UNL     1      44.140 -10.055  11.609  1.00  0.00     0.014 A 
HETATM   16  C   UNL     1      42.522  -9.333  14.854  1.00  0.00     0.020 A 
HETATM   17  C   UNL     1      41.257  -9.785  14.559  1.00  0.00     0.117 A 
HETATM   18  C   UNL     1      43.835 -10.587  10.363  1.00  0.00     0.004 A 
HETATM   19  C   UNL     1      42.544 -11.030  10.111  1.00  0.00     0.039 A 
ENDBRANCH   9  10
ENDBRANCH   8   9
ENDBRANCH   7   8
ENDBRANCH   6   7
ENDBRANCH   5   6
ENDBRANCH   2   5
BRANCH   1  20
HETATM   20  C   UNL     1      42.041 -14.980   5.454  1.00  0.00     0.120 A 
HETATM   21  N   UNL     1      42.536 -15.530   6.602  1.00  0.00    -0.272 N 
HETATM   22  N   UNL     1      43.121 -16.726   6.434  1.00  0.00    -0.174 NA
HETATM   23  H   UNL     1      42.500 -15.126   7.534  1.00  0.00     0.189 HD
HETATM   24  C   UNL     1      43.045 -16.957   5.114  1.00  0.00     0.089 A 
HETATM   25  C   UNL     1      42.354 -15.894   4.467  1.00  0.00     0.071 A 
BRANCH  24  26
HETATM   26  C   UNL     1      43.624 -18.158   4.505  1.00  0.00    -0.006 A 
HETATM   27  C   UNL     1      43.358 -18.471   3.164  1.00  0.00     0.014 A 
HETATM   28  C   UNL     1      43.908 -19.613   2.575  1.00  0.00     0.001 A 
HETATM   29  C   UNL     1      44.724 -20.459   3.324  1.00  0.00     0.000 A 
HETATM   30  C   UNL     1      44.990 -20.165   4.658  1.00  0.00     0.001 A 
HETATM   31  C   UNL     1      44.444 -19.021   5.247  1.00  0.00     0.014 A 
ENDBRANCH  24  26
ENDBRANCH   1  20
TORSDOF 8
ENDMDL
MODEL 8
REMARK VINA RESULT:      -8.4      3.080      3.642
REMARK  8 active torsions:
REMARK  status: ('A' for Active; 'I' for Inactive)
REMARK    1  A    between atoms: C_4  and  C_5 
REMARK    2  A    between atoms: C_9  and  C_10 
REMARK       I    between atoms: C_10  and  N_11 
REMARK    3  A    between atoms: N_11  and  C_12 
REMARK    4  A    between atoms: C_12  and  C_13 
REMARK    5  A    between atoms: C_13  and  C_14 
REMARK    6  A    between atoms: C_14  and  C_15 
REMARK    7  A    between atoms: C_15  and  O_16 
REMARK    8  A    between atoms: O_16  and  C_17 
ROOT
HETATM    1  C   UNL     1      40.108 -11.170   7.294  1.00  0.00     0.270 C 
HETATM    2  N   UNL     1      39.890 -12.501   7.035  1.00  0.00    -0.345 N 
HETATM    3  O   UNL     1      39.674 -10.269   6.584  1.00  0.00    -0.266 OA
HETATM    4  H   UNL     1      40.130 -13.188   7.732  1.00  0.00     0.163 HD
ENDROOT
BRANCH   2   5
HETATM    5  C   UNL     1      39.129 -12.939   5.897  1.00  0.00     0.217 C 
BRANCH   5   6
HETATM    6  C   UNL     1      39.857 -14.062   5.175  1.00  0.00    -0.085 C 
BRANCH   6   7
HETATM    7  C   UNL     1      40.481 -15.025   4.557  1.00  0.00    -0.078 C 
BRANCH   7   8
HETATM    8  C   UNL     1      41.208 -16.148   3.836  1.00  0.00     0.269 C 
BRANCH   8   9
HETATM    9  O   UNL     1      42.612 -15.945   3.937  1.00  0.00    -0.337 OA
BRANCH   9  10
HETATM   10  C   UNL     1      43.353 -16.933   4.554  1.00  0.00     0.099 A 
HETATM   11  C   UNL     1      43.735 -18.183   4.017  1.00  0.00     0.100 A 
HETATM   12  C   UNL     1      44.502 -19.036   4.849  1.00  0.00    -0.005 A 
HETATM   13  N   UNL     1      43.407 -18.589   2.764  1.00  0.00    -0.257 NA
HETATM   14  C   UNL     1      44.903 -20.287   4.358  1.00  0.00     0.015 A 
HETATM   15  C   UNL     1      44.864 -18.649   6.150  1.00  0.00     0.014 A 
HETATM   16  C   UNL     1      44.554 -20.679   3.075  1.00  0.00     0.020 A 
HETATM   17  C   UNL     1      43.810 -19.800   2.322  1.00  0.00     0.117 A 
HETATM   18  C   UNL     1      44.478 -17.414   6.653  1.00  0.00     0.004 A 
HETATM   19  C   UNL     1      43.727 -16.560   5.856  1.00  0.00     0.039 A 
ENDBRANCH   9  10
ENDBRANCH   8   9
ENDBRANCH   7   8
ENDBRANCH   6   7
ENDBRANCH   5   6
ENDBRANCH   2   5
BRANCH   1  20
HETATM   20  C   UNL     1      40.905 -10.902   8.460  1.00  0.00     0.120 A 
HETATM   21  N   UNL     1      42.270 -10.929   8.417  1.00  0.00    -0.272 N 
HETATM   22  N   UNL     1      42.864 -10.672   9.593  1.00  0.00    -0.174 NA
HETATM   23  H   UNL     1      42.849 -11.119   7.605  1.00  0.00     0.189 HD
HETATM   24  C   UNL     1      41.848 -10.509  10.455  1.00  0.00     0.089 A 
HETATM   25  C   UNL     1      40.602 -10.624   9.777  1.00  0.00     0.071 A 
BRANCH  24  26
HETATM   26  C   UNL     1      42.078 -10.257  11.881  1.00  0.00    -0.006 A 
HETATM   27  C   UNL     1      43.245  -9.606  12.307  1.00  0.00     0.014 A 
HETATM   28  C   UNL     1      43.470  -9.360  13.664  1.00  0.00     0.001 A 
HETATM   29  C   UNL     1      42.534  -9.769  14.612  1.00  0.00     0.000 A 
HETATM   30  C   UNL     1      41.375 -10.424  14.205  1.00  0.00     0.001 A 
HETATM   31  C   UNL     1      41.147 -10.666  12.847  1.00  0.00     0.014 A 
ENDBRANCH  24  26
ENDBRANCH   1  20
TORSDOF 8
ENDMDL
MODEL 9
REMARK VINA RESULT:      -8.4      5.577      9.770
REMARK  8 active torsions:
REMARK  status: ('A' for Active; 'I' for Inactive)
REMARK    1  A    between atoms: C_4  and  C_5 
REMARK    2  A    between atoms: C_9  and  C_10 
REMARK       I    between atoms: C_10  and  N_11 
REMARK    3  A    between atoms: N_11  and  C_12 
REMARK    4  A    between atoms: C_12  and  C_13 
REMARK    5  A    between atoms: C_13  and  C_14 
REMARK    6  A    between atoms: C_14  and  C_15 
REMARK    7  A    between atoms: C_15  and  O_16 
REMARK    8  A    between atoms: O_16  and  C_17 
ROOT
HETATM    1  C   UNL     1      42.940 -14.569   5.514  1.00  0.00     0.270 C 
HETATM    2  N   UNL     1      41.606 -14.387   5.781  1.00  0.00    -0.345 N 
HETATM    3  O   UNL     1      43.740 -13.643   5.431  1.00  0.00    -0.266 OA
HETATM    4  H   UNL     1      41.029 -15.185   5.995  1.00  0.00     0.163 HD
ENDROOT
BRANCH   2   5
HETATM    5  C   UNL     1      41.043 -13.079   5.981  1.00  0.00     0.217 C 
BRANCH   5   6
HETATM    6  C   UNL     1      40.208 -12.673   4.777  1.00  0.00    -0.085 C 
BRANCH   6   7
HETATM    7  C   UNL     1      39.492 -12.326   3.745  1.00  0.00    -0.078 C 
BRANCH   7   8
HETATM    8  C   UNL     1      38.657 -11.920   2.541  1.00  0.00     0.269 C 
BRANCH   8   9
HETATM    9  O   UNL     1      38.345 -13.073   1.771  1.00  0.00    -0.337 OA
BRANCH   9  10
HETATM   10  C   UNL     1      39.339 -13.583   0.960  1.00  0.00     0.099 A 
HETATM   11  C   UNL     1      39.946 -14.856   1.042  1.00  0.00     0.100 A 
HETATM   12  C   UNL     1      40.952 -15.154   0.090  1.00  0.00    -0.005 A 
HETATM   13  N   UNL     1      39.609 -15.785   1.973  1.00  0.00    -0.257 NA
HETATM   14  C   UNL     1      41.583 -16.406   0.134  1.00  0.00     0.015 A 
HETATM   15  C   UNL     1      41.325 -14.220  -0.890  1.00  0.00     0.014 A 
HETATM   16  C   UNL     1      41.222 -17.338   1.095  1.00  0.00     0.020 A 
HETATM   17  C   UNL     1      40.236 -16.982   1.987  1.00  0.00     0.117 A 
HETATM   18  C   UNL     1      40.711 -12.976  -0.951  1.00  0.00     0.004 A 
HETATM   19  C   UNL     1      39.722 -12.662  -0.029  1.00  0.00     0.039 A 
ENDBRANCH   9  10
ENDBRANCH   8   9
ENDBRANCH   7   8
ENDBRANCH   6   7
ENDBRANCH   5   6
ENDBRANCH   2   5
BRANCH   1  20
HETATM   20  C   UNL     1      43.338 -15.936   5.320  1.00  0.00     0.120 A 
HETATM   21  N   UNL     1      44.075 -16.608   6.254  1.00  0.00    -0.272 N 
HETATM   22  N   UNL     1      44.377 -17.871   5.915  1.00  0.00    -0.174 NA
HETATM   23  H   UNL     1      44.400 -16.247   7.146  1.00  0.00     0.189 HD
HETATM   24  C   UNL     1      43.852 -18.026   4.689  1.00  0.00     0.089 A 
HETATM   25  C   UNL     1      43.173 -16.840   4.290  1.00  0.00     0.071 A 
BRANCH  24  26
HETATM   26  C   UNL     1      44.009 -19.272   3.933  1.00  0.00    -0.006 A 
HETATM   27  C   UNL     1      43.533 -19.368   2.617  1.00  0.00     0.014 A 
HETATM   28  C   UNL     1      43.680 -20.552   1.889  1.00  0.00     0.001 A 
HETATM   29  C   UNL     1      44.299 -21.656   2.472  1.00  0.00     0.000 A 
HETATM   30  C   UNL     1      44.770 -21.578   3.780  1.00  0.00     0.001 A 
HETATM   31  C   UNL     1      44.626 -20.393   4.507  1.00  0.00     0.014 A 
ENDBRANCH  24  26
ENDBRANCH   1  20
TORSDOF 8
ENDMDL
MODEL 10
REMARK VINA RESULT:      -8.3      5.893     10.360
REMARK  8 active torsions:
REMARK  status: ('A' for Active; 'I' for Inactive)
REMARK    1  A    between atoms: C_4  and  C_5 
REMARK    2  A    between atoms: C_9  and  C_10 
REMARK       I    between atoms: C_10  and  N_11 
REMARK    3  A    between atoms: N_11  and  C_12 
REMARK    4  A    between atoms: C_12  and  C_13 
REMARK    5  A    between atoms: C_13  and  C_14 
REMARK    6  A    between atoms: C_14  and  C_15 
REMARK    7  A    between atoms: C_15  and  O_16 
REMARK    8  A    between atoms: O_16  and  C_17 
ROOT
HETATM    1  C   UNL     1      43.172 -15.220   5.799  1.00  0.00     0.270 C 
HETATM    2  N   UNL     1      41.853 -15.032   5.467  1.00  0.00    -0.345 N 
HETATM    3  O   UNL     1      43.905 -14.312   6.176  1.00  0.00    -0.266 OA
HETATM    4  H   UNL     1      41.260 -15.832   5.320  1.00  0.00     0.163 HD
ENDROOT
BRANCH   2   5
HETATM    5  C   UNL     1      41.230 -13.738   5.536  1.00  0.00     0.217 C 
BRANCH   5   6
HETATM    6  C   UNL     1      41.279 -13.056   4.178  1.00  0.00    -0.085 C 
BRANCH   6   7
HETATM    7  C   UNL     1      41.320 -12.470   3.014  1.00  0.00    -0.078 C 
BRANCH   7   8
HETATM    8  C   UNL     1      41.369 -11.787   1.657  1.00  0.00     0.269 C 
BRANCH   8   9
HETATM    9  O   UNL     1      42.491 -12.265   0.926  1.00  0.00    -0.337 OA
BRANCH   9  10
HETATM   10  C   UNL     1      42.362 -12.354  -0.445  1.00  0.00     0.099 A 
HETATM   11  C   UNL     1      41.880 -13.452  -1.194  1.00  0.00     0.100 A 
HETATM   12  C   UNL     1      41.840 -13.305  -2.603  1.00  0.00    -0.005 A 
HETATM   13  N   UNL     1      41.460 -14.613  -0.629  1.00  0.00    -0.257 NA
HETATM   14  C   UNL     1      41.370 -14.369  -3.385  1.00  0.00     0.015 A 
HETATM   15  C   UNL     1      42.263 -12.118  -3.222  1.00  0.00     0.014 A 
HETATM   16  C   UNL     1      40.948 -15.546  -2.786  1.00  0.00     0.020 A 
HETATM   17  C   UNL     1      41.012 -15.619  -1.413  1.00  0.00     0.117 A 
HETATM   18  C   UNL     1      42.730 -11.053  -2.463  1.00  0.00     0.004 A 
HETATM   19  C   UNL     1      42.777 -11.172  -1.081  1.00  0.00     0.039 A 
ENDBRANCH   9  10
ENDBRANCH   8   9
ENDBRANCH   7   8
ENDBRANCH   6   7
ENDBRANCH   5   6
ENDBRANCH   2   5
BRANCH   1  20
HETATM   20  C   UNL     1      43.646 -16.569   5.658  1.00  0.00     0.120 A 
HETATM   21  N   UNL     1      44.579 -17.094   6.507  1.00  0.00    -0.272 N 
HETATM   22  N   UNL     1      44.926 -18.361   6.230  1.00  0.00    -0.174 NA
HETATM   23  H   UNL     1      45.014 -16.626   7.297  1.00  0.00     0.189 HD
HETATM   24  C   UNL     1      44.224 -18.670   5.129  1.00  0.00     0.089 A 
HETATM   25  C   UNL     1      43.392 -17.579   4.752  1.00  0.00     0.071 A 
BRANCH  24  26
HETATM   26  C   UNL     1      44.359 -19.971   4.466  1.00  0.00    -0.006 A 
HETATM   27  C   UNL     1      44.670 -21.118   5.212  1.00  0.00     0.014 A 
HETATM   28  C   UNL     1      44.799 -22.362   4.588  1.00  0.00     0.001 A 
HETATM   29  C   UNL     1      44.625 -22.471   3.210  1.00  0.00     0.000 A 
HETATM   30  C   UNL     1      44.324 -21.341   2.455  1.00  0.00     0.001 A 
HETATM   31  C   UNL     1      44.191 -20.097   3.079  1.00  0.00     0.014 A 
ENDBRANCH  24  26
ENDBRANCH   1  20
TORSDOF 8
ENDMDL
