MODEL 1
REMARK VINA RESULT:      -8.7      0.000      0.000
REMARK  3 active torsions:
REMARK  status: ('A' for Active; 'I' for Inactive)
REMARK    1  A    between atoms: C_10  and  C_11 
REMARK       I    between atoms: C_11  and  N_12 
REMARK    2  A    between atoms: N_12  and  C_13 
REMARK    3  A    between atoms: C_16  and  N_17 
ROOT
HETATM    1  C   UNL     1      43.340 -17.311   3.003  1.00  0.00     0.258 C 
HETATM    2  N   UNL     1      42.139 -17.574   2.381  1.00  0.00    -0.322 N 
HETATM    3  O   UNL     1      43.942 -16.244   2.912  1.00  0.00    -0.267 OA
HETATM    4  H   UNL     1      41.775 -18.514   2.465  1.00  0.00     0.169 HD
ENDROOT
BRANCH   2   5
HETATM    5  C   UNL     1      41.297 -16.652   1.726  1.00  0.00     0.052 A 
HETATM    6  C   UNL     1      41.519 -16.101   0.474  1.00  0.00     0.148 A 
HETATM    7  N   UNL     1      40.740 -15.134  -0.083  1.00  0.00    -0.247 NA
HETATM    8  C   UNL     1      39.676 -14.671   0.606  1.00  0.00     0.105 A 
HETATM    9  C   UNL     1      39.371 -15.204   1.858  1.00  0.00     0.047 A 
HETATM   10  C   UNL     1      40.179 -16.199   2.417  1.00  0.00     0.034 A 
BRANCH   8  11
HETATM   11  N   UNL     1      38.942 -13.591   0.094  1.00  0.00    -0.258 NA
HETATM   12  C   UNL     1      37.745 -13.219   0.882  1.00  0.00     0.199 C 
HETATM   13  C   UNL     1      36.916 -12.082   0.251  1.00  0.00     0.231 C 
HETATM   14  O   UNL     1      36.089 -11.440   0.899  1.00  0.00    -0.272 OA
HETATM   15  N   UNL     1      37.047 -11.844  -1.095  1.00  0.00    -0.359 N 
HETATM   16  C   UNL     1      38.198 -12.311  -1.840  1.00  0.00     0.137 C 
HETATM   17  H   UNL     1      36.532 -11.039  -1.427  1.00  0.00     0.162 HD
HETATM   18  C   UNL     1      38.699 -13.675  -1.356  1.00  0.00     0.117 C 
ENDBRANCH   8  11
ENDBRANCH   2   5
BRANCH   1  19
HETATM   19  C   UNL     1      43.879 -18.402   3.830  1.00  0.00     0.063 A 
HETATM   20  C   UNL     1      44.129 -19.799   3.563  1.00  0.00     0.046 A 
HETATM   21  C   UNL     1      44.006 -20.659   2.448  1.00  0.00     0.130 A 
HETATM   22  C   UNL     1      44.586 -20.379   4.754  1.00  0.00     0.046 A 
HETATM   23  C   UNL     1      44.318 -22.017   2.540  1.00  0.00     0.043 A 
HETATM   24  F   UNL     1      43.587 -20.187   1.265  1.00  0.00    -0.205 F 
HETATM   25  C   UNL     1      44.758 -22.552   3.744  1.00  0.00     0.005 A 
HETATM   26  C   UNL     1      44.902 -21.741   4.873  1.00  0.00     0.030 A 
HETATM   27  N   UNL     1      44.639 -19.387   5.700  1.00  0.00    -0.364 N 
HETATM   28  H   UNL     1      44.931 -19.517   6.660  1.00  0.00     0.165 HD
HETATM   29  C   UNL     1      44.222 -18.205   5.161  1.00  0.00     0.106 A 
ENDBRANCH   1  19
TORSDOF 3
ENDMDL
MODEL 2
REMARK VINA RESULT:      -8.4      2.529      2.844
REMARK  3 active torsions:
REMARK  status: ('A' for Active; 'I' for Inactive)
REMARK    1  A    between atoms: C_10  and  C_11 
REMARK       I    between atoms: C_11  and  N_12 
REMARK    2  A    between atoms: N_12  and  C_13 
REMARK    3  A    between atoms: C_16  and  N_17 
ROOT
HETATM    1  C   UNL     1      43.709 -17.767   2.251  1.00  0.00     0.258 C 
HETATM    2  N   UNL     1      42.492 -17.123   2.288  1.00  0.00    -0.322 N 
HETATM    3  O   UNL     1      44.511 -17.670   1.326  1.00  0.00    -0.267 OA
HETATM    4  H   UNL     1      41.882 -17.340   3.065  1.00  0.00     0.169 HD
ENDROOT
BRANCH   2   5
HETATM    5  C   UNL     1      42.036 -16.110   1.421  1.00  0.00     0.052 A 
HETATM    6  C   UNL     1      41.517 -16.304   0.150  1.00  0.00     0.148 A 
HETATM    7  N   UNL     1      41.185 -15.296  -0.701  1.00  0.00    -0.247 NA
HETATM    8  C   UNL     1      41.357 -14.018  -0.303  1.00  0.00     0.105 A 
HETATM    9  C   UNL     1      41.843 -13.746   0.975  1.00  0.00     0.047 A 
HETATM   10  C   UNL     1      42.177 -14.792   1.840  1.00  0.00     0.034 A 
BRANCH   8  11
HETATM   11  N   UNL     1      41.134 -12.977  -1.216  1.00  0.00    -0.258 NA
HETATM   12  C   UNL     1      42.120 -12.890  -2.319  1.00  0.00     0.199 C 
HETATM   13  C   UNL     1      41.895 -11.690  -3.259  1.00  0.00     0.231 C 
HETATM   14  O   UNL     1      42.403 -11.634  -4.380  1.00  0.00    -0.272 OA
HETATM   15  N   UNL     1      41.176 -10.617  -2.793  1.00  0.00    -0.359 N 
HETATM   16  C   UNL     1      40.293 -10.733  -1.650  1.00  0.00     0.137 C 
HETATM   17  H   UNL     1      41.005  -9.899  -3.484  1.00  0.00     0.162 HD
HETATM   18  C   UNL     1      40.837 -11.683  -0.580  1.00  0.00     0.117 C 
ENDBRANCH   8  11
ENDBRANCH   2   5
BRANCH   1  19
HETATM   19  C   UNL     1      44.027 -18.593   3.428  1.00  0.00     0.063 A 
HETATM   20  C   UNL     1      44.260 -20.008   3.594  1.00  0.00     0.046 A 
HETATM   21  C   UNL     1      44.316 -21.135   2.744  1.00  0.00     0.130 A 
HETATM   22  C   UNL     1      44.449 -20.244   4.963  1.00  0.00     0.046 A 
HETATM   23  C   UNL     1      44.543 -22.416   3.252  1.00  0.00     0.043 A 
HETATM   24  F   UNL     1      44.158 -21.001   1.420  1.00  0.00    -0.205 F 
HETATM   25  C   UNL     1      44.715 -22.606   4.617  1.00  0.00     0.005 A 
HETATM   26  C   UNL     1      44.673 -21.522   5.497  1.00  0.00     0.030 A 
HETATM   27  N   UNL     1      44.363 -19.034   5.603  1.00  0.00    -0.364 N 
HETATM   28  H   UNL     1      44.456 -18.900   6.602  1.00  0.00     0.165 HD
HETATM   29  C   UNL     1      44.113 -18.043   4.700  1.00  0.00     0.106 A 
ENDBRANCH   1  19
TORSDOF 3
ENDMDL
MODEL 3
REMARK VINA RESULT:      -8.4      1.999      2.576
REMARK  3 active torsions:
REMARK  status: ('A' for Active; 'I' for Inactive)
REMARK    1  A    between atoms: C_10  and  C_11 
REMARK       I    between atoms: C_11  and  N_12 
REMARK    2  A    between atoms: N_12  and  C_13 
REMARK    3  A    between atoms: C_16  and  N_17 
ROOT
HETATM    1  C   UNL     1      42.862 -15.877   2.641  1.00  0.00     0.258 C 
HETATM    2  N   UNL     1      41.907 -16.347   1.767  1.00  0.00    -0.322 N 
HETATM    3  O   UNL     1      43.293 -14.727   2.638  1.00  0.00    -0.267 OA
HETATM    4  H   UNL     1      41.686 -17.332   1.813  1.00  0.00     0.169 HD
ENDROOT
BRANCH   2   5
HETATM    5  C   UNL     1      41.115 -15.587   0.881  1.00  0.00     0.052 A 
HETATM    6  C   UNL     1      39.954 -14.906   1.212  1.00  0.00     0.148 A 
HETATM    7  N   UNL     1      39.158 -14.271   0.310  1.00  0.00    -0.247 NA
HETATM    8  C   UNL     1      39.504 -14.286  -0.995  1.00  0.00     0.105 A 
HETATM    9  C   UNL     1      40.677 -14.923  -1.398  1.00  0.00     0.047 A 
HETATM   10  C   UNL     1      41.487 -15.569  -0.459  1.00  0.00     0.034 A 
BRANCH   8  11
HETATM   11  N   UNL     1      38.628 -13.741  -1.944  1.00  0.00    -0.258 NA
HETATM   12  C   UNL     1      38.060 -14.716  -2.904  1.00  0.00     0.199 C 
HETATM   13  C   UNL     1      37.165 -14.074  -3.983  1.00  0.00     0.231 C 
HETATM   14  O   UNL     1      36.374 -14.738  -4.654  1.00  0.00    -0.272 OA
HETATM   15  N   UNL     1      37.323 -12.738  -4.258  1.00  0.00    -0.359 N 
HETATM   16  C   UNL     1      37.970 -11.842  -3.321  1.00  0.00     0.137 C 
HETATM   17  H   UNL     1      36.655 -12.369  -4.922  1.00  0.00     0.162 HD
HETATM   18  C   UNL     1      39.129 -12.508  -2.574  1.00  0.00     0.117 C 
ENDBRANCH   8  11
ENDBRANCH   2   5
BRANCH   1  19
HETATM   19  C   UNL     1      43.349 -16.852   3.632  1.00  0.00     0.063 A 
HETATM   20  C   UNL     1      43.831 -18.208   3.514  1.00  0.00     0.046 A 
HETATM   21  C   UNL     1      44.063 -19.115   2.457  1.00  0.00     0.130 A 
HETATM   22  C   UNL     1      44.092 -18.674   4.810  1.00  0.00     0.046 A 
HETATM   23  C   UNL     1      44.523 -20.411   2.700  1.00  0.00     0.043 A 
HETATM   24  F   UNL     1      43.851 -18.750   1.184  1.00  0.00    -0.205 F 
HETATM   25  C   UNL     1      44.760 -20.835   4.001  1.00  0.00     0.005 A 
HETATM   26  C   UNL     1      44.550 -19.973   5.080  1.00  0.00     0.030 A 
HETATM   27  N   UNL     1      43.811 -17.651   5.679  1.00  0.00    -0.364 N 
HETATM   28  H   UNL     1      43.904 -17.704   6.685  1.00  0.00     0.165 HD
HETATM   29  C   UNL     1      43.368 -16.560   4.989  1.00  0.00     0.106 A 
ENDBRANCH   1  19
TORSDOF 3
ENDMDL
MODEL 4
REMARK VINA RESULT:      -8.2      3.074      3.532
REMARK  3 active torsions:
REMARK  status: ('A' for Active; 'I' for Inactive)
REMARK    1  A    between atoms: C_10  and  C_11 
REMARK       I    between atoms: C_11  and  N_12 
REMARK    2  A    between atoms: N_12  and  C_13 
REMARK    3  A    between atoms: C_16  and  N_17 
ROOT
HETATM    1  C   UNL     1      43.025 -17.092   3.957  1.00  0.00     0.258 C 
HETATM    2  N   UNL     1      41.769 -16.921   4.497  1.00  0.00    -0.322 N 
HETATM    3  O   UNL     1      43.602 -16.248   3.277  1.00  0.00    -0.267 OA
HETATM    4  H   UNL     1      41.363 -17.715   4.974  1.00  0.00     0.169 HD
ENDROOT
BRANCH   2   5
HETATM    5  C   UNL     1      41.022 -15.727   4.556  1.00  0.00     0.052 A 
HETATM    6  C   UNL     1      40.439 -15.082   3.477  1.00  0.00     0.148 A 
HETATM    7  N   UNL     1      39.814 -13.876   3.554  1.00  0.00    -0.247 NA
HETATM    8  C   UNL     1      39.739 -13.252   4.748  1.00  0.00     0.105 A 
HETATM    9  C   UNL     1      40.273 -13.857   5.886  1.00  0.00     0.047 A 
HETATM   10  C   UNL     1      40.910 -15.098   5.791  1.00  0.00     0.034 A 
BRANCH   8  11
HETATM   11  N   UNL     1      39.207 -11.956   4.815  1.00  0.00    -0.258 NA
HETATM   12  C   UNL     1      38.553 -11.484   3.572  1.00  0.00     0.199 C 
HETATM   13  C   UNL     1      38.050 -10.029   3.650  1.00  0.00     0.231 C 
HETATM   14  O   UNL     1      37.224  -9.581   2.855  1.00  0.00    -0.272 OA
HETATM   15  N   UNL     1      38.609  -9.191   4.583  1.00  0.00    -0.359 N 
HETATM   16  C   UNL     1      39.320  -9.704   5.736  1.00  0.00     0.137 C 
HETATM   17  H   UNL     1      38.181  -8.275   4.628  1.00  0.00     0.162 HD
HETATM   18  C   UNL     1      40.120 -10.971   5.418  1.00  0.00     0.117 C 
ENDBRANCH   8  11
ENDBRANCH   2   5
BRANCH   1  19
HETATM   19  C   UNL     1      43.678 -18.376   4.263  1.00  0.00     0.063 A 
HETATM   20  C   UNL     1      43.863 -19.584   3.495  1.00  0.00     0.046 A 
HETATM   21  C   UNL     1      43.549 -20.016   2.187  1.00  0.00     0.130 A 
HETATM   22  C   UNL     1      44.500 -20.516   4.327  1.00  0.00     0.046 A 
HETATM   23  C   UNL     1      43.855 -21.309   1.756  1.00  0.00     0.043 A 
HETATM   24  F   UNL     1      42.950 -19.188   1.320  1.00  0.00    -0.205 F 
HETATM   25  C   UNL     1      44.478 -22.203   2.617  1.00  0.00     0.005 A 
HETATM   26  C   UNL     1      44.814 -21.821   3.919  1.00  0.00     0.030 A 
HETATM   27  N   UNL     1      44.719 -19.905   5.535  1.00  0.00    -0.364 N 
HETATM   28  H   UNL     1      45.161 -20.342   6.334  1.00  0.00     0.165 HD
HETATM   29  C   UNL     1      44.234 -18.630   5.509  1.00  0.00     0.106 A 
ENDBRANCH   1  19
TORSDOF 3
ENDMDL
MODEL 5
REMARK VINA RESULT:      -8.1      3.891      4.255
REMARK  3 active torsions:
REMARK  status: ('A' for Active; 'I' for Inactive)
REMARK    1  A    between atoms: C_10  and  C_11 
REMARK       I    between atoms: C_11  and  N_12 
REMARK    2  A    between atoms: N_12  and  C_13 
REMARK    3  A    between atoms: C_16  and  N_17 
ROOT
HETATM    1  C   UNL     1      43.231 -17.119   4.119  1.00  0.00     0.258 C 
HETATM    2  N   UNL     1      42.433 -16.625   5.127  1.00  0.00    -0.322 N 
HETATM    3  O   UNL     1      43.487 -16.511   3.083  1.00  0.00    -0.267 OA
HETATM    4  H   UNL     1      42.229 -17.246   5.899  1.00  0.00     0.169 HD
ENDROOT
BRANCH   2   5
HETATM    5  C   UNL     1      41.948 -15.308   5.263  1.00  0.00     0.052 A 
HETATM    6  C   UNL     1      40.725 -14.843   4.806  1.00  0.00     0.148 A 
HETATM    7  N   UNL     1      40.333 -13.541   4.860  1.00  0.00    -0.247 NA
HETATM    8  C   UNL     1      41.171 -12.627   5.394  1.00  0.00     0.105 A 
HETATM    9  C   UNL     1      42.405 -13.027   5.905  1.00  0.00     0.047 A 
HETATM   10  C   UNL     1      42.792 -14.369   5.845  1.00  0.00     0.034 A 
BRANCH   8  11
HETATM   11  N   UNL     1      40.828 -11.268   5.342  1.00  0.00    -0.258 NA
HETATM   12  C   UNL     1      39.562 -10.916   6.027  1.00  0.00     0.199 C 
HETATM   13  C   UNL     1      39.172  -9.431   5.884  1.00  0.00     0.231 C 
HETATM   14  O   UNL     1      38.347  -8.899   6.627  1.00  0.00    -0.272 OA
HETATM   15  N   UNL     1      39.700  -8.712   4.840  1.00  0.00    -0.359 N 
HETATM   16  C   UNL     1      40.891  -9.150   4.141  1.00  0.00     0.137 C 
HETATM   17  H   UNL     1      39.460  -7.729   4.849  1.00  0.00     0.162 HD
HETATM   18  C   UNL     1      40.965 -10.673   4.002  1.00  0.00     0.117 C 
ENDBRANCH   8  11
ENDBRANCH   2   5
BRANCH   1  19
HETATM   19  C   UNL     1      43.803 -18.454   4.360  1.00  0.00     0.063 A 
HETATM   20  C   UNL     1      43.913 -19.633   3.534  1.00  0.00     0.046 A 
HETATM   21  C   UNL     1      43.573 -19.981   2.208  1.00  0.00     0.130 A 
HETATM   22  C   UNL     1      44.492 -20.642   4.318  1.00  0.00     0.046 A 
HETATM   23  C   UNL     1      43.798 -21.267   1.713  1.00  0.00     0.043 A 
HETATM   24  F   UNL     1      43.025 -19.076   1.384  1.00  0.00    -0.205 F 
HETATM   25  C   UNL     1      44.365 -22.239   2.528  1.00  0.00     0.005 A 
HETATM   26  C   UNL     1      44.724 -21.943   3.846  1.00  0.00     0.030 A 
HETATM   27  N   UNL     1      44.749 -20.105   5.554  1.00  0.00    -0.364 N 
HETATM   28  H   UNL     1      45.163 -20.607   6.328  1.00  0.00     0.165 HD
HETATM   29  C   UNL     1      44.344 -18.802   5.591  1.00  0.00     0.106 A 
ENDBRANCH   1  19
TORSDOF 3
ENDMDL
MODEL 6
REMARK VINA RESULT:      -8.1      2.260      2.680
REMARK  3 active torsions:
REMARK  status: ('A' for Active; 'I' for Inactive)
REMARK    1  A    between atoms: C_10  and  C_11 
REMARK       I    between atoms: C_11  and  N_12 
REMARK    2  A    between atoms: N_12  and  C_13 
REMARK    3  A    between atoms: C_16  and  N_17 
ROOT
HETATM    1  C   UNL     1      41.829 -16.828   2.966  1.00  0.00     0.258 C 
HETATM    2  N   UNL     1      42.516 -16.068   2.045  1.00  0.00    -0.322 N 
HETATM    3  O   UNL     1      40.604 -16.893   3.029  1.00  0.00    -0.267 OA
HETATM    4  H   UNL     1      43.522 -16.032   2.138  1.00  0.00     0.169 HD
ENDROOT
BRANCH   2   5
HETATM    5  C   UNL     1      41.985 -15.416   0.913  1.00  0.00     0.052 A 
HETATM    6  C   UNL     1      41.712 -14.060   0.813  1.00  0.00     0.148 A 
HETATM    7  N   UNL     1      41.102 -13.481  -0.257  1.00  0.00    -0.247 NA
HETATM    8  C   UNL     1      40.736 -14.254  -1.300  1.00  0.00     0.105 A 
HETATM    9  C   UNL     1      41.009 -15.622  -1.285  1.00  0.00     0.047 A 
HETATM   10  C   UNL     1      41.640 -16.202  -0.180  1.00  0.00     0.034 A 
BRANCH   8  11
HETATM   11  N   UNL     1      39.998 -13.687  -2.350  1.00  0.00    -0.258 NA
HETATM   12  C   UNL     1      40.487 -12.369  -2.817  1.00  0.00     0.199 C 
HETATM   13  C   UNL     1      39.610 -11.736  -3.915  1.00  0.00     0.231 C 
HETATM   14  O   UNL     1      40.018 -10.821  -4.630  1.00  0.00    -0.272 OA
HETATM   15  N   UNL     1      38.306 -12.152  -4.035  1.00  0.00    -0.359 N 
HETATM   16  C   UNL     1      37.857 -13.412  -3.478  1.00  0.00     0.137 C 
HETATM   17  H   UNL     1      37.812 -11.750  -4.820  1.00  0.00     0.162 HD
HETATM   18  C   UNL     1      38.541 -13.745  -2.149  1.00  0.00     0.117 C 
ENDBRANCH   8  11
ENDBRANCH   2   5
BRANCH   1  19
HETATM   19  C   UNL     1      42.665 -17.606   3.895  1.00  0.00     0.063 A 
HETATM   20  C   UNL     1      43.406 -18.836   3.746  1.00  0.00     0.046 A 
HETATM   21  C   UNL     1      43.662 -19.748   2.698  1.00  0.00     0.130 A 
HETATM   22  C   UNL     1      43.962 -19.145   4.996  1.00  0.00     0.046 A 
HETATM   23  C   UNL     1      44.426 -20.899   2.906  1.00  0.00     0.043 A 
HETATM   24  F   UNL     1      43.179 -19.527   1.467  1.00  0.00    -0.205 F 
HETATM   25  C   UNL     1      44.950 -21.171   4.163  1.00  0.00     0.005 A 
HETATM   26  C   UNL     1      44.728 -20.297   5.231  1.00  0.00     0.030 A 
HETATM   27  N   UNL     1      43.604 -18.144   5.863  1.00  0.00    -0.364 N 
HETATM   28  H   UNL     1      43.862 -18.106   6.841  1.00  0.00     0.165 HD
HETATM   29  C   UNL     1      42.832 -17.222   5.219  1.00  0.00     0.106 A 
ENDBRANCH   1  19
TORSDOF 3
ENDMDL
MODEL 7
REMARK VINA RESULT:      -8.1      2.654      3.610
REMARK  3 active torsions:
REMARK  status: ('A' for Active; 'I' for Inactive)
REMARK    1  A    between atoms: C_10  and  C_11 
REMARK       I    between atoms: C_11  and  N_12 
REMARK    2  A    between atoms: N_12  and  C_13 
REMARK    3  A    between atoms: C_16  and  N_17 
ROOT
HETATM    1  C   UNL     1      41.415 -17.117   1.687  1.00  0.00     0.258 C 
HETATM    2  N   UNL     1      41.805 -16.152   0.785  1.00  0.00    -0.322 N 
HETATM    3  O   UNL     1      40.248 -17.334   2.003  1.00  0.00    -0.267 OA
HETATM    4  H   UNL     1      42.799 -16.013   0.662  1.00  0.00     0.169 HD
ENDROOT
BRANCH   2   5
HETATM    5  C   UNL     1      40.975 -15.401  -0.072  1.00  0.00     0.052 A 
HETATM    6  C   UNL     1      40.001 -14.500   0.328  1.00  0.00     0.148 A 
HETATM    7  N   UNL     1      39.146 -13.871  -0.524  1.00  0.00    -0.247 NA
HETATM    8  C   UNL     1      39.237 -14.121  -1.847  1.00  0.00     0.105 A 
HETATM    9  C   UNL     1      40.216 -14.991  -2.326  1.00  0.00     0.047 A 
HETATM   10  C   UNL     1      41.089 -15.627  -1.439  1.00  0.00     0.034 A 
BRANCH   8  11
HETATM   11  N   UNL     1      38.283 -13.574  -2.717  1.00  0.00    -0.258 NA
HETATM   12  C   UNL     1      37.536 -14.563  -3.528  1.00  0.00     0.199 C 
HETATM   13  C   UNL     1      36.553 -13.926  -4.531  1.00  0.00     0.231 C 
HETATM   14  O   UNL     1      35.642 -14.572  -5.051  1.00  0.00    -0.272 OA
HETATM   15  N   UNL     1      36.759 -12.625  -4.916  1.00  0.00    -0.359 N 
HETATM   16  C   UNL     1      37.577 -11.721  -4.132  1.00  0.00     0.137 C 
HETATM   17  H   UNL     1      36.037 -12.249  -5.517  1.00  0.00     0.162 HD
HETATM   18  C   UNL     1      38.777 -12.421  -3.489  1.00  0.00     0.117 C 
ENDBRANCH   8  11
ENDBRANCH   2   5
BRANCH   1  19
HETATM   19  C   UNL     1      42.503 -17.925   2.262  1.00  0.00     0.063 A 
HETATM   20  C   UNL     1      42.834 -18.295   3.618  1.00  0.00     0.046 A 
HETATM   21  C   UNL     1      42.269 -18.085   4.895  1.00  0.00     0.130 A 
HETATM   22  C   UNL     1      44.032 -19.023   3.574  1.00  0.00     0.046 A 
HETATM   23  C   UNL     1      42.883 -18.575   6.050  1.00  0.00     0.043 A 
HETATM   24  F   UNL     1      41.119 -17.409   5.030  1.00  0.00    -0.205 F 
HETATM   25  C   UNL     1      44.074 -19.283   5.961  1.00  0.00     0.005 A 
HETATM   26  C   UNL     1      44.670 -19.521   4.720  1.00  0.00     0.030 A 
HETATM   27  N   UNL     1      44.405 -19.119   2.257  1.00  0.00    -0.364 N 
HETATM   28  H   UNL     1      45.238 -19.589   1.925  1.00  0.00     0.165 HD
HETATM   29  C   UNL     1      43.503 -18.470   1.466  1.00  0.00     0.106 A 
ENDBRANCH   1  19
TORSDOF 3
ENDMDL
MODEL 8
REMARK VINA RESULT:      -8.0      4.580      5.166
REMARK  3 active torsions:
REMARK  status: ('A' for Active; 'I' for Inactive)
REMARK    1  A    between atoms: C_10  and  C_11 
REMARK       I    between atoms: C_11  and  N_12 
REMARK    2  A    between atoms: N_12  and  C_13 
REMARK    3  A    between atoms: C_16  and  N_17 
ROOT
HETATM    1  C   UNL     1      43.567 -17.301   4.434  1.00  0.00     0.258 C 
HETATM    2  N   UNL     1      43.040 -16.228   3.750  1.00  0.00    -0.322 N 
HETATM    3  O   UNL     1      43.881 -17.274   5.621  1.00  0.00    -0.267 OA
HETATM    4  H   UNL     1      42.893 -16.344   2.756  1.00  0.00     0.169 HD
ENDROOT
BRANCH   2   5
HETATM    5  C   UNL     1      42.579 -15.012   4.295  1.00  0.00     0.052 A 
HETATM    6  C   UNL     1      43.269 -13.810   4.295  1.00  0.00     0.148 A 
HETATM    7  N   UNL     1      42.840 -12.682   4.923  1.00  0.00    -0.247 NA
HETATM    8  C   UNL     1      41.667 -12.710   5.590  1.00  0.00     0.105 A 
HETATM    9  C   UNL     1      40.901 -13.875   5.605  1.00  0.00     0.047 A 
HETATM   10  C   UNL     1      41.354 -15.025   4.952  1.00  0.00     0.034 A 
BRANCH   8  11
HETATM   11  N   UNL     1      41.277 -11.592   6.341  1.00  0.00    -0.258 NA
HETATM   12  C   UNL     1      39.951 -11.706   6.991  1.00  0.00     0.199 C 
HETATM   13  C   UNL     1      39.516 -10.432   7.742  1.00  0.00     0.231 C 
HETATM   14  O   UNL     1      38.617 -10.445   8.583  1.00  0.00    -0.272 OA
HETATM   15  N   UNL     1      40.093  -9.236   7.393  1.00  0.00    -0.359 N 
HETATM   16  C   UNL     1      41.350  -9.180   6.674  1.00  0.00     0.137 C 
HETATM   17  H   UNL     1      39.816  -8.456   7.974  1.00  0.00     0.162 HD
HETATM   18  C   UNL     1      41.493 -10.309   5.651  1.00  0.00     0.117 C 
ENDBRANCH   8  11
ENDBRANCH   2   5
BRANCH   1  19
HETATM   19  C   UNL     1      43.723 -18.538   3.651  1.00  0.00     0.063 A 
HETATM   20  C   UNL     1      44.108 -19.882   4.014  1.00  0.00     0.046 A 
HETATM   21  C   UNL     1      44.445 -20.555   5.209  1.00  0.00     0.130 A 
HETATM   22  C   UNL     1      44.156 -20.637   2.834  1.00  0.00     0.046 A 
HETATM   23  C   UNL     1      44.811 -21.903   5.205  1.00  0.00     0.043 A 
HETATM   24  F   UNL     1      44.415 -19.913   6.386  1.00  0.00    -0.205 F 
HETATM   25  C   UNL     1      44.854 -22.611   4.011  1.00  0.00     0.005 A 
HETATM   26  C   UNL     1      44.526 -21.990   2.803  1.00  0.00     0.030 A 
HETATM   27  N   UNL     1      43.795 -19.809   1.801  1.00  0.00    -0.364 N 
HETATM   28  H   UNL     1      43.745 -20.085   0.829  1.00  0.00     0.165 HD
HETATM   29  C   UNL     1      43.534 -18.557   2.276  1.00  0.00     0.106 A 
ENDBRANCH   1  19
TORSDOF 3
ENDMDL
MODEL 9
REMARK VINA RESULT:      -7.9      1.628      2.106
REMARK  3 active torsions:
REMARK  status: ('A' for Active; 'I' for Inactive)
REMARK    1  A    between atoms: C_10  and  C_11 
REMARK       I    between atoms: C_11  and  N_12 
REMARK    2  A    between atoms: N_12  and  C_13 
REMARK    3  A    between atoms: C_16  and  N_17 
ROOT
HETATM    1  C   UNL     1      43.353 -18.518   1.741  1.00  0.00     0.258 C 
HETATM    2  N   UNL     1      42.002 -18.387   1.505  1.00  0.00    -0.322 N 
HETATM    3  O   UNL     1      44.178 -17.632   1.534  1.00  0.00    -0.267 OA
HETATM    4  H   UNL     1      41.430 -19.209   1.641  1.00  0.00     0.169 HD
ENDROOT
BRANCH   2   5
HETATM    5  C   UNL     1      41.302 -17.203   1.197  1.00  0.00     0.052 A 
HETATM    6  C   UNL     1      41.533 -16.386   0.101  1.00  0.00     0.148 A 
HETATM    7  N   UNL     1      40.910 -15.195  -0.109  1.00  0.00    -0.247 NA
HETATM    8  C   UNL     1      40.001 -14.763   0.790  1.00  0.00     0.105 A 
HETATM    9  C   UNL     1      39.692 -15.548   1.900  1.00  0.00     0.047 A 
HETATM   10  C   UNL     1      40.338 -16.771   2.101  1.00  0.00     0.034 A 
BRANCH   8  11
HETATM   11  N   UNL     1      39.446 -13.484   0.646  1.00  0.00    -0.258 NA
HETATM   12  C   UNL     1      37.966 -13.436   0.687  1.00  0.00     0.199 C 
HETATM   13  C   UNL     1      37.384 -12.028   0.446  1.00  0.00     0.231 C 
HETATM   14  O   UNL     1      36.226 -11.740   0.750  1.00  0.00    -0.272 OA
HETATM   15  N   UNL     1      38.159 -11.101  -0.206  1.00  0.00    -0.359 N 
HETATM   16  C   UNL     1      39.597 -11.243  -0.299  1.00  0.00     0.137 C 
HETATM   17  H   UNL     1      37.744 -10.181  -0.265  1.00  0.00     0.162 HD
HETATM   18  C   UNL     1      40.036 -12.702  -0.454  1.00  0.00     0.117 C 
ENDBRANCH   8  11
ENDBRANCH   2   5
BRANCH   1  19
HETATM   19  C   UNL     1      43.777 -19.815   2.296  1.00  0.00     0.063 A 
HETATM   20  C   UNL     1      44.009 -20.270   3.647  1.00  0.00     0.046 A 
HETATM   21  C   UNL     1      43.900 -19.713   4.940  1.00  0.00     0.130 A 
HETATM   22  C   UNL     1      44.471 -21.591   3.570  1.00  0.00     0.046 A 
HETATM   23  C   UNL     1      44.245 -20.446   6.078  1.00  0.00     0.043 A 
HETATM   24  F   UNL     1      43.455 -18.459   5.108  1.00  0.00    -0.205 F 
HETATM   25  C   UNL     1      44.708 -21.749   5.955  1.00  0.00     0.005 A 
HETATM   26  C   UNL     1      44.828 -22.346   4.698  1.00  0.00     0.030 A 
HETATM   27  N   UNL     1      44.498 -21.940   2.244  1.00  0.00    -0.364 N 
HETATM   28  H   UNL     1      44.796 -22.840   1.888  1.00  0.00     0.165 HD
HETATM   29  C   UNL     1      44.086 -20.891   1.476  1.00  0.00     0.106 A 
ENDBRANCH   1  19
TORSDOF 3
ENDMDL
MODEL 10
REMARK VINA RESULT:      -7.7      2.326      3.368
REMARK  3 active torsions:
REMARK  status: ('A' for Active; 'I' for Inactive)
REMARK    1  A    between atoms: C_10  and  C_11 
REMARK       I    between atoms: C_11  and  N_12 
REMARK    2  A    between atoms: N_12  and  C_13 
REMARK    3  A    between atoms: C_16  and  N_17 
ROOT
HETATM    1  C   UNL     1      43.407 -17.648   2.668  1.00  0.00     0.258 C 
HETATM    2  N   UNL     1      42.088 -17.303   2.472  1.00  0.00    -0.322 N 
HETATM    3  O   UNL     1      44.299 -17.454   1.846  1.00  0.00    -0.267 OA
HETATM    4  H   UNL     1      41.429 -17.582   3.187  1.00  0.00     0.169 HD
ENDROOT
BRANCH   2   5
HETATM    5  C   UNL     1      41.560 -16.508   1.434  1.00  0.00     0.052 A 
HETATM    6  C   UNL     1      41.605 -16.807   0.081  1.00  0.00     0.148 A 
HETATM    7  N   UNL     1      41.179 -15.967  -0.901  1.00  0.00    -0.247 NA
HETATM    8  C   UNL     1      40.671 -14.764  -0.559  1.00  0.00     0.105 A 
HETATM    9  C   UNL     1      40.563 -14.409   0.785  1.00  0.00     0.047 A 
HETATM   10  C   UNL     1      41.002 -15.284   1.783  1.00  0.00     0.034 A 
BRANCH   8  11
HETATM   11  N   UNL     1      40.345 -13.845  -1.567  1.00  0.00    -0.258 NA
HETATM   12  C   UNL     1      38.898 -13.733  -1.867  1.00  0.00     0.199 C 
HETATM   13  C   UNL     1      38.579 -12.775  -3.032  1.00  0.00     0.231 C 
HETATM   14  O   UNL     1      37.448 -12.322  -3.213  1.00  0.00    -0.272 OA
HETATM   15  N   UNL     1      39.569 -12.494  -3.941  1.00  0.00    -0.359 N 
HETATM   16  C   UNL     1      40.968 -12.710  -3.631  1.00  0.00     0.137 C 
HETATM   17  H   UNL     1      39.313 -11.804  -4.634  1.00  0.00     0.162 HD
HETATM   18  C   UNL     1      41.194 -13.953  -2.765  1.00  0.00     0.117 C 
ENDBRANCH   8  11
ENDBRANCH   2   5
BRANCH   1  19
HETATM   19  C   UNL     1      43.715 -18.264   3.969  1.00  0.00     0.063 A 
HETATM   20  C   UNL     1      43.548 -17.810   5.329  1.00  0.00     0.046 A 
HETATM   21  C   UNL     1      43.017 -16.663   5.960  1.00  0.00     0.130 A 
HETATM   22  C   UNL     1      44.089 -18.794   6.170  1.00  0.00     0.046 A 
HETATM   23  C   UNL     1      43.038 -16.522   7.349  1.00  0.00     0.043 A 
HETATM   24  F   UNL     1      42.470 -15.677   5.235  1.00  0.00    -0.205 F 
HETATM   25  C   UNL     1      43.592 -17.518   8.143  1.00  0.00     0.005 A 
HETATM   26  C   UNL     1      44.126 -18.673   7.567  1.00  0.00     0.030 A 
HETATM   27  N   UNL     1      44.541 -19.813   5.370  1.00  0.00    -0.364 N 
HETATM   28  H   UNL     1      44.985 -20.658   5.706  1.00  0.00     0.165 HD
HETATM   29  C   UNL     1      44.323 -19.509   4.058  1.00  0.00     0.106 A 
ENDBRANCH   1  19
TORSDOF 3
ENDMDL
