MODEL 1
REMARK VINA RESULT:      -8.4      0.000      0.000
REMARK  4 active torsions:
REMARK  status: ('A' for Active; 'I' for Inactive)
REMARK    1  A    between atoms: C_3  and  O_4 
REMARK    2  A    between atoms: O_4  and  C_5 
REMARK    3  A    between atoms: C_11  and  C_12 
REMARK    4  A    between atoms: C_23  and  N_24 
ROOT
HETATM    1  C   UNL     1      41.253 -16.735   4.608  1.00  0.00     0.244 A 
HETATM    2  N   UNL     1      41.937 -15.486   4.848  1.00  0.00    -0.151 N 
HETATM    3  C   UNL     1      41.660 -14.378   4.088  1.00  0.00     0.734 A 
HETATM    4  N   UNL     1      42.395 -13.368   4.499  1.00  0.00    -0.060 NA
HETATM    5  C   UNL     1      43.116 -13.825   5.573  1.00  0.00     0.103 A 
HETATM    6  C   UNL     1      42.837 -15.165   5.826  1.00  0.00     0.083 A 
HETATM    7  C   UNL     1      44.028 -13.144   6.391  1.00  0.00     0.034 A 
HETATM    8  C   UNL     1      44.629 -13.835   7.448  1.00  0.00     0.002 A 
HETATM    9  C   UNL     1      44.331 -15.179   7.684  1.00  0.00     0.002 A 
HETATM   10  C   UNL     1      43.427 -15.879   6.876  1.00  0.00     0.033 A 
HETATM   11  N   UNL     1      40.757 -14.387   3.082  1.00  0.00    -0.033 NA
HETATM   12  C   UNL     1      40.081 -15.456   2.860  1.00  0.00     0.193 A 
HETATM   13  N   UNL     1      40.219 -16.647   3.581  1.00  0.00    -0.339 N 
HETATM   14  H   UNL     1      39.618 -17.434   3.398  1.00  0.00     0.164 HD
ENDROOT
BRANCH   1  15
HETATM   15  C   UNL     1      42.189 -17.851   4.170  1.00  0.00    -0.014 A 
HETATM   16  C   UNL     1      42.547 -17.968   2.816  1.00  0.00     0.020 A 
HETATM   17  C   UNL     1      43.472 -18.933   2.384  1.00  0.00    -0.027 A 
HETATM   18  C   UNL     1      44.036 -19.798   3.332  1.00  0.00     0.086 A 
HETATM   19  C   UNL     1      43.858 -18.959   0.930  1.00  0.00     0.051 C 
HETATM   20  C   UNL     1      43.732 -19.676   4.698  1.00  0.00    -0.027 A 
HETATM   21  C   UNL     1      44.369 -20.570   5.728  1.00  0.00     0.051 C 
HETATM   22  C   UNL     1      42.798 -18.712   5.101  1.00  0.00     0.020 A 
BRANCH  18  23
HETATM   23  O   UNL     1      44.971 -20.717   2.935  1.00  0.00    -0.289 OA
BRANCH  23  24
HETATM   24  C   UNL     1      44.345 -21.935   2.547  1.00  0.00     0.505 C 
HETATM   25  F   UNL     1      44.693 -22.190   1.262  1.00  0.00    -0.184 F 
HETATM   26  F   UNL     1      44.883 -22.924   3.304  1.00  0.00    -0.184 F 
ENDBRANCH  23  24
ENDBRANCH  18  23
ENDBRANCH   1  15
BRANCH  12  27
HETATM   27  N   UNL     1      39.145 -15.546   1.894  1.00  0.00    -0.272 NA
HETATM   28  H   UNL     1      39.406 -14.988   1.083  1.00  0.00     0.127 HD
HETATM   29  H   UNL     1      38.872 -16.478   1.616  1.00  0.00     0.127 HD
ENDBRANCH  12  27
TORSDOF 4
ENDMDL
MODEL 2
REMARK VINA RESULT:      -8.3      1.819      2.672
REMARK  4 active torsions:
REMARK  status: ('A' for Active; 'I' for Inactive)
REMARK    1  A    between atoms: C_3  and  O_4 
REMARK    2  A    between atoms: O_4  and  C_5 
REMARK    3  A    between atoms: C_11  and  C_12 
REMARK    4  A    between atoms: C_23  and  N_24 
ROOT
HETATM    1  C   UNL     1      41.471 -17.016   2.303  1.00  0.00     0.244 A 
HETATM    2  N   UNL     1      41.863 -15.666   2.634  1.00  0.00    -0.151 N 
HETATM    3  C   UNL     1      42.019 -14.720   1.653  1.00  0.00     0.734 A 
HETATM    4  N   UNL     1      42.367 -13.576   2.196  1.00  0.00    -0.060 NA
HETATM    5  C   UNL     1      42.384 -13.780   3.553  1.00  0.00     0.103 A 
HETATM    6  C   UNL     1      42.056 -15.096   3.863  1.00  0.00     0.083 A 
HETATM    7  C   UNL     1      42.663 -12.877   4.588  1.00  0.00     0.034 A 
HETATM    8  C   UNL     1      42.598 -13.330   5.911  1.00  0.00     0.002 A 
HETATM    9  C   UNL     1      42.264 -14.655   6.196  1.00  0.00     0.002 A 
HETATM   10  C   UNL     1      41.986 -15.574   5.177  1.00  0.00     0.033 A 
HETATM   11  N   UNL     1      41.828 -14.989   0.341  1.00  0.00    -0.033 NA
HETATM   12  C   UNL     1      41.426 -16.158  -0.005  1.00  0.00     0.193 A 
HETATM   13  N   UNL     1      41.180 -17.208   0.886  1.00  0.00    -0.339 N 
HETATM   14  H   UNL     1      40.809 -18.086   0.559  1.00  0.00     0.164 HD
ENDROOT
BRANCH   1  15
HETATM   15  C   UNL     1      42.529 -18.048   2.662  1.00  0.00    -0.014 A 
HETATM   16  C   UNL     1      43.260 -17.910   3.854  1.00  0.00     0.020 A 
HETATM   17  C   UNL     1      44.187 -18.884   4.261  1.00  0.00    -0.027 A 
HETATM   18  C   UNL     1      44.386 -20.007   3.447  1.00  0.00     0.086 A 
HETATM   19  C   UNL     1      44.887 -18.702   5.581  1.00  0.00     0.051 C 
HETATM   20  C   UNL     1      43.638 -20.195   2.274  1.00  0.00    -0.027 A 
HETATM   21  C   UNL     1      43.811 -21.422   1.419  1.00  0.00     0.051 C 
HETATM   22  C   UNL     1      42.727 -19.204   1.884  1.00  0.00     0.020 A 
BRANCH  18  23
HETATM   23  O   UNL     1      45.254 -20.987   3.850  1.00  0.00    -0.289 OA
BRANCH  23  24
HETATM   24  C   UNL     1      44.567 -21.998   4.579  1.00  0.00     0.505 C 
HETATM   25  F   UNL     1      44.769 -23.179   3.945  1.00  0.00    -0.184 F 
HETATM   26  F   UNL     1      45.165 -22.096   5.793  1.00  0.00    -0.184 F 
ENDBRANCH  23  24
ENDBRANCH  18  23
ENDBRANCH   1  15
BRANCH  12  27
HETATM   27  N   UNL     1      41.189 -16.504  -1.286  1.00  0.00    -0.272 NA
HETATM   28  H   UNL     1      40.246 -16.240  -1.564  1.00  0.00     0.127 HD
HETATM   29  H   UNL     1      41.865 -16.191  -1.970  1.00  0.00     0.127 HD
ENDBRANCH  12  27
TORSDOF 4
ENDMDL
MODEL 3
REMARK VINA RESULT:      -8.1      4.258      6.475
REMARK  4 active torsions:
REMARK  status: ('A' for Active; 'I' for Inactive)
REMARK    1  A    between atoms: C_3  and  O_4 
REMARK    2  A    between atoms: O_4  and  C_5 
REMARK    3  A    between atoms: C_11  and  C_12 
REMARK    4  A    between atoms: C_23  and  N_24 
ROOT
HETATM    1  C   UNL     1      40.604 -16.031   3.288  1.00  0.00     0.244 A 
HETATM    2  N   UNL     1      41.750 -16.738   3.811  1.00  0.00    -0.151 N 
HETATM    3  C   UNL     1      42.208 -16.491   5.080  1.00  0.00     0.734 A 
HETATM    4  N   UNL     1      43.246 -17.257   5.330  1.00  0.00    -0.060 NA
HETATM    5  C   UNL     1      43.424 -18.045   4.220  1.00  0.00     0.103 A 
HETATM    6  C   UNL     1      42.480 -17.746   3.242  1.00  0.00     0.083 A 
HETATM    7  C   UNL     1      44.371 -19.049   3.980  1.00  0.00     0.034 A 
HETATM    8  C   UNL     1      44.335 -19.729   2.757  1.00  0.00     0.002 A 
HETATM    9  C   UNL     1      43.376 -19.413   1.793  1.00  0.00     0.002 A 
HETATM   10  C   UNL     1      42.424 -18.410   2.010  1.00  0.00     0.033 A 
HETATM   11  N   UNL     1      41.634 -15.583   5.901  1.00  0.00    -0.033 NA
HETATM   12  C   UNL     1      40.579 -14.965   5.508  1.00  0.00     0.193 A 
HETATM   13  N   UNL     1      39.971 -15.146   4.262  1.00  0.00    -0.339 N 
HETATM   14  H   UNL     1      39.111 -14.675   4.033  1.00  0.00     0.164 HD
ENDROOT
BRANCH   1  15
HETATM   15  C   UNL     1      40.937 -15.166   2.084  1.00  0.00    -0.014 A 
HETATM   16  C   UNL     1      40.879 -15.718   0.792  1.00  0.00     0.020 A 
HETATM   17  C   UNL     1      41.099 -14.931  -0.351  1.00  0.00    -0.027 A 
HETATM   18  C   UNL     1      41.393 -13.571  -0.187  1.00  0.00     0.086 A 
HETATM   19  C   UNL     1      40.957 -15.574  -1.704  1.00  0.00     0.051 C 
HETATM   20  C   UNL     1      41.414 -12.981   1.088  1.00  0.00    -0.027 A 
HETATM   21  C   UNL     1      41.681 -11.511   1.270  1.00  0.00     0.051 C 
HETATM   22  C   UNL     1      41.201 -13.789   2.212  1.00  0.00     0.020 A 
BRANCH  18  23
HETATM   23  O   UNL     1      41.568 -12.780  -1.291  1.00  0.00    -0.289 OA
BRANCH  23  24
HETATM   24  C   UNL     1      42.944 -12.719  -1.651  1.00  0.00     0.505 C 
HETATM   25  F   UNL     1      43.067 -13.203  -2.911  1.00  0.00    -0.184 F 
HETATM   26  F   UNL     1      43.290 -11.408  -1.697  1.00  0.00    -0.184 F 
ENDBRANCH  23  24
ENDBRANCH  18  23
ENDBRANCH   1  15
BRANCH  12  27
HETATM   27  N   UNL     1      39.931 -14.062   6.271  1.00  0.00    -0.272 NA
HETATM   28  H   UNL     1      40.518 -13.250   6.451  1.00  0.00     0.127 HD
HETATM   29  H   UNL     1      39.014 -13.778   5.952  1.00  0.00     0.127 HD
ENDBRANCH  12  27
TORSDOF 4
ENDMDL
MODEL 4
REMARK VINA RESULT:      -8.1      2.109      2.835
REMARK  4 active torsions:
REMARK  status: ('A' for Active; 'I' for Inactive)
REMARK    1  A    between atoms: C_3  and  O_4 
REMARK    2  A    between atoms: O_4  and  C_5 
REMARK    3  A    between atoms: C_11  and  C_12 
REMARK    4  A    between atoms: C_23  and  N_24 
ROOT
HETATM    1  C   UNL     1      40.873 -16.724   2.179  1.00  0.00     0.244 A 
HETATM    2  N   UNL     1      41.009 -15.335   2.553  1.00  0.00    -0.151 N 
HETATM    3  C   UNL     1      41.274 -14.377   1.608  1.00  0.00     0.734 A 
HETATM    4  N   UNL     1      41.342 -13.198   2.185  1.00  0.00    -0.060 NA
HETATM    5  C   UNL     1      41.065 -13.399   3.514  1.00  0.00     0.103 A 
HETATM    6  C   UNL     1      40.838 -14.747   3.776  1.00  0.00     0.083 A 
HETATM    7  C   UNL     1      40.982 -12.469   4.559  1.00  0.00     0.034 A 
HETATM    8  C   UNL     1      40.664 -12.928   5.843  1.00  0.00     0.002 A 
HETATM    9  C   UNL     1      40.437 -14.285   6.080  1.00  0.00     0.002 A 
HETATM   10  C   UNL     1      40.520 -15.230   5.051  1.00  0.00     0.033 A 
HETATM   11  N   UNL     1      41.430 -14.666   0.297  1.00  0.00    -0.033 NA
HETATM   12  C   UNL     1      41.266 -15.877  -0.099  1.00  0.00     0.193 A 
HETATM   13  N   UNL     1      40.949 -16.950   0.739  1.00  0.00    -0.339 N 
HETATM   14  H   UNL     1      40.775 -17.867   0.360  1.00  0.00     0.164 HD
ENDROOT
BRANCH   1  15
HETATM   15  C   UNL     1      41.935 -17.615   2.803  1.00  0.00    -0.014 A 
HETATM   16  C   UNL     1      42.371 -18.763   2.119  1.00  0.00     0.020 A 
HETATM   17  C   UNL     1      43.407 -19.567   2.623  1.00  0.00    -0.027 A 
HETATM   18  C   UNL     1      44.005 -19.211   3.840  1.00  0.00     0.086 A 
HETATM   19  C   UNL     1      43.865 -20.744   1.806  1.00  0.00     0.051 C 
HETATM   20  C   UNL     1      43.622 -18.046   4.524  1.00  0.00    -0.027 A 
HETATM   21  C   UNL     1      44.292 -17.631   5.806  1.00  0.00     0.051 C 
HETATM   22  C   UNL     1      42.579 -17.267   4.005  1.00  0.00     0.020 A 
BRANCH  18  23
HETATM   23  O   UNL     1      45.045 -19.959   4.324  1.00  0.00    -0.289 OA
BRANCH  23  24
HETATM   24  C   UNL     1      44.562 -21.134   4.966  1.00  0.00     0.505 C 
HETATM   25  F   UNL     1      45.582 -22.025   5.026  1.00  0.00    -0.184 F 
HETATM   26  F   UNL     1      44.256 -20.798   6.245  1.00  0.00    -0.184 F 
ENDBRANCH  23  24
ENDBRANCH  18  23
ENDBRANCH   1  15
BRANCH  12  27
HETATM   27  N   UNL     1      41.380 -16.248  -1.390  1.00  0.00    -0.272 NA
HETATM   28  H   UNL     1      42.212 -15.840  -1.813  1.00  0.00     0.127 HD
HETATM   29  H   UNL     1      41.332 -17.240  -1.580  1.00  0.00     0.127 HD
ENDBRANCH  12  27
TORSDOF 4
ENDMDL
MODEL 5
REMARK VINA RESULT:      -8.0      4.723      6.366
REMARK  4 active torsions:
REMARK  status: ('A' for Active; 'I' for Inactive)
REMARK    1  A    between atoms: C_3  and  O_4 
REMARK    2  A    between atoms: O_4  and  C_5 
REMARK    3  A    between atoms: C_11  and  C_12 
REMARK    4  A    between atoms: C_23  and  N_24 
ROOT
HETATM    1  C   UNL     1      40.252 -14.345  -0.969  1.00  0.00     0.244 A 
HETATM    2  N   UNL     1      41.201 -13.434  -1.565  1.00  0.00    -0.151 N 
HETATM    3  C   UNL     1      41.666 -13.639  -2.839  1.00  0.00     0.734 A 
HETATM    4  N   UNL     1      42.504 -12.680  -3.161  1.00  0.00    -0.060 NA
HETATM    5  C   UNL     1      42.536 -11.817  -2.094  1.00  0.00     0.103 A 
HETATM    6  C   UNL     1      41.708 -12.264  -1.069  1.00  0.00     0.083 A 
HETATM    7  C   UNL     1      43.247 -10.620  -1.935  1.00  0.00     0.034 A 
HETATM    8  C   UNL     1      43.096  -9.903  -0.743  1.00  0.00     0.002 A 
HETATM    9  C   UNL     1      42.257 -10.370   0.271  1.00  0.00     0.002 A 
HETATM   10  C   UNL     1      41.542 -11.566   0.133  1.00  0.00     0.033 A 
HETATM   11  N   UNL     1      41.282 -14.691  -3.597  1.00  0.00    -0.033 NA
HETATM   12  C   UNL     1      40.400 -15.503  -3.137  1.00  0.00     0.193 A 
HETATM   13  N   UNL     1      39.802 -15.395  -1.877  1.00  0.00    -0.339 N 
HETATM   14  H   UNL     1      39.072 -16.030  -1.596  1.00  0.00     0.164 HD
ENDROOT
BRANCH   1  15
HETATM   15  C   UNL     1      40.800 -15.055   0.259  1.00  0.00    -0.014 A 
HETATM   16  C   UNL     1      41.859 -15.968   0.120  1.00  0.00     0.020 A 
HETATM   17  C   UNL     1      42.447 -16.583   1.238  1.00  0.00    -0.027 A 
HETATM   18  C   UNL     1      41.952 -16.278   2.514  1.00  0.00     0.086 A 
HETATM   19  C   UNL     1      43.619 -17.501   1.020  1.00  0.00     0.051 C 
HETATM   20  C   UNL     1      40.925 -15.335   2.687  1.00  0.00    -0.027 A 
HETATM   21  C   UNL     1      40.420 -14.966   4.057  1.00  0.00     0.051 C 
HETATM   22  C   UNL     1      40.348 -14.744   1.555  1.00  0.00     0.020 A 
BRANCH  18  23
HETATM   23  O   UNL     1      42.541 -16.835   3.617  1.00  0.00    -0.289 OA
BRANCH  23  24
HETATM   24  C   UNL     1      42.027 -18.140   3.856  1.00  0.00     0.505 C 
HETATM   25  F   UNL     1      43.068 -18.943   4.189  1.00  0.00    -0.184 F 
HETATM   26  F   UNL     1      41.223 -18.064   4.946  1.00  0.00    -0.184 F 
ENDBRANCH  23  24
ENDBRANCH  18  23
ENDBRANCH   1  15
BRANCH  12  27
HETATM   27  N   UNL     1      39.943 -16.563  -3.834  1.00  0.00    -0.272 NA
HETATM   28  H   UNL     1      38.978 -16.418  -4.124  1.00  0.00     0.127 HD
HETATM   29  H   UNL     1      40.510 -16.868  -4.614  1.00  0.00     0.127 HD
ENDBRANCH  12  27
TORSDOF 4
ENDMDL
MODEL 6
REMARK VINA RESULT:      -7.9      4.261      6.557
REMARK  4 active torsions:
REMARK  status: ('A' for Active; 'I' for Inactive)
REMARK    1  A    between atoms: C_3  and  O_4 
REMARK    2  A    between atoms: O_4  and  C_5 
REMARK    3  A    between atoms: C_11  and  C_12 
REMARK    4  A    between atoms: C_23  and  N_24 
ROOT
HETATM    1  C   UNL     1      40.734 -16.537   3.452  1.00  0.00     0.244 A 
HETATM    2  N   UNL     1      41.930 -17.195   3.925  1.00  0.00    -0.151 N 
HETATM    3  C   UNL     1      42.449 -16.904   5.161  1.00  0.00     0.734 A 
HETATM    4  N   UNL     1      43.524 -17.631   5.369  1.00  0.00    -0.060 NA
HETATM    5  C   UNL     1      43.665 -18.439   4.268  1.00  0.00     0.103 A 
HETATM    6  C   UNL     1      42.659 -18.193   3.338  1.00  0.00     0.083 A 
HETATM    7  C   UNL     1      44.630 -19.418   3.998  1.00  0.00     0.034 A 
HETATM    8  C   UNL     1      44.548 -20.128   2.795  1.00  0.00     0.002 A 
HETATM    9  C   UNL     1      43.527 -19.865   1.878  1.00  0.00     0.002 A 
HETATM   10  C   UNL     1      42.556 -18.888   2.127  1.00  0.00     0.033 A 
HETATM   11  N   UNL     1      41.892 -15.995   5.993  1.00  0.00    -0.033 NA
HETATM   12  C   UNL     1      40.798 -15.419   5.646  1.00  0.00     0.193 A 
HETATM   13  N   UNL     1      40.128 -15.649   4.440  1.00  0.00    -0.339 N 
HETATM   14  H   UNL     1      39.241 -15.210   4.250  1.00  0.00     0.164 HD
ENDROOT
BRANCH   1  15
HETATM   15  C   UNL     1      40.971 -15.690   2.212  1.00  0.00    -0.014 A 
HETATM   16  C   UNL     1      41.378 -14.352   2.350  1.00  0.00     0.020 A 
HETATM   17  C   UNL     1      41.686 -13.561   1.230  1.00  0.00    -0.027 A 
HETATM   18  C   UNL     1      41.573 -14.128  -0.047  1.00  0.00     0.086 A 
HETATM   19  C   UNL     1      42.177 -12.157   1.456  1.00  0.00     0.051 C 
HETATM   20  C   UNL     1      41.213 -15.475  -0.214  1.00  0.00    -0.027 A 
HETATM   21  C   UNL     1      41.135 -16.104  -1.579  1.00  0.00     0.051 C 
HETATM   22  C   UNL     1      40.900 -16.239   0.918  1.00  0.00     0.020 A 
BRANCH  18  23
HETATM   23  O   UNL     1      41.911 -13.385  -1.146  1.00  0.00    -0.289 OA
BRANCH  23  24
HETATM   24  C   UNL     1      40.774 -12.695  -1.655  1.00  0.00     0.505 C 
HETATM   25  F   UNL     1      41.051 -11.368  -1.641  1.00  0.00    -0.184 F 
HETATM   26  F   UNL     1      40.633 -13.055  -2.956  1.00  0.00    -0.184 F 
ENDBRANCH  23  24
ENDBRANCH  18  23
ENDBRANCH   1  15
BRANCH  12  27
HETATM   27  N   UNL     1      40.163 -14.519   6.423  1.00  0.00    -0.272 NA
HETATM   28  H   UNL     1      39.650 -14.983   7.171  1.00  0.00     0.127 HD
HETATM   29  H   UNL     1      40.726 -13.764   6.791  1.00  0.00     0.127 HD
ENDBRANCH  12  27
TORSDOF 4
ENDMDL
MODEL 7
REMARK VINA RESULT:      -7.8      4.564      7.112
REMARK  4 active torsions:
REMARK  status: ('A' for Active; 'I' for Inactive)
REMARK    1  A    between atoms: C_3  and  O_4 
REMARK    2  A    between atoms: O_4  and  C_5 
REMARK    3  A    between atoms: C_11  and  C_12 
REMARK    4  A    between atoms: C_23  and  N_24 
ROOT
HETATM    1  C   UNL     1      42.038 -17.486   6.082  1.00  0.00     0.244 A 
HETATM    2  N   UNL     1      43.080 -18.233   5.417  1.00  0.00    -0.151 N 
HETATM    3  C   UNL     1      44.205 -18.626   6.097  1.00  0.00     0.734 A 
HETATM    4  N   UNL     1      44.997 -19.294   5.288  1.00  0.00    -0.060 NA
HETATM    5  C   UNL     1      44.343 -19.375   4.084  1.00  0.00     0.103 A 
HETATM    6  C   UNL     1      43.117 -18.720   4.139  1.00  0.00     0.083 A 
HETATM    7  C   UNL     1      44.736 -20.005   2.895  1.00  0.00     0.034 A 
HETATM    8  C   UNL     1      43.874 -19.960   1.794  1.00  0.00     0.002 A 
HETATM    9  C   UNL     1      42.647 -19.298   1.875  1.00  0.00     0.002 A 
HETATM   10  C   UNL     1      42.237 -18.659   3.051  1.00  0.00     0.033 A 
HETATM   11  N   UNL     1      44.410 -18.336   7.401  1.00  0.00    -0.033 NA
HETATM   12  C   UNL     1      43.492 -17.722   8.056  1.00  0.00     0.193 A 
HETATM   13  N   UNL     1      42.275 -17.301   7.511  1.00  0.00    -0.339 N 
HETATM   14  H   UNL     1      41.569 -16.875   8.090  1.00  0.00     0.164 HD
ENDROOT
BRANCH   1  15
HETATM   15  C   UNL     1      41.840 -16.095   5.502  1.00  0.00    -0.014 A 
HETATM   16  C   UNL     1      40.748 -15.315   5.921  1.00  0.00     0.020 A 
HETATM   17  C   UNL     1      40.576 -13.995   5.471  1.00  0.00    -0.027 A 
HETATM   18  C   UNL     1      41.514 -13.459   4.579  1.00  0.00     0.086 A 
HETATM   19  C   UNL     1      39.420 -13.198   6.011  1.00  0.00     0.051 C 
HETATM   20  C   UNL     1      42.639 -14.198   4.178  1.00  0.00    -0.027 A 
HETATM   21  C   UNL     1      43.677 -13.613   3.257  1.00  0.00     0.051 C 
HETATM   22  C   UNL     1      42.783 -15.516   4.632  1.00  0.00     0.020 A 
BRANCH  18  23
HETATM   23  O   UNL     1      41.385 -12.160   4.164  1.00  0.00    -0.289 OA
BRANCH  23  24
HETATM   24  C   UNL     1      40.674 -12.095   2.933  1.00  0.00     0.505 C 
HETATM   25  F   UNL     1      39.481 -11.498   3.172  1.00  0.00    -0.184 F 
HETATM   26  F   UNL     1      41.369 -11.271   2.109  1.00  0.00    -0.184 F 
ENDBRANCH  23  24
ENDBRANCH  18  23
ENDBRANCH   1  15
BRANCH  12  27
HETATM   27  N   UNL     1      43.603 -17.415   9.364  1.00  0.00    -0.272 NA
HETATM   28  H   UNL     1      43.671 -18.258   9.930  1.00  0.00     0.127 HD
HETATM   29  H   UNL     1      44.330 -16.757   9.613  1.00  0.00     0.127 HD
ENDBRANCH  12  27
TORSDOF 4
ENDMDL
MODEL 8
REMARK VINA RESULT:      -7.8      4.817      7.433
REMARK  4 active torsions:
REMARK  status: ('A' for Active; 'I' for Inactive)
REMARK    1  A    between atoms: C_3  and  O_4 
REMARK    2  A    between atoms: O_4  and  C_5 
REMARK    3  A    between atoms: C_11  and  C_12 
REMARK    4  A    between atoms: C_23  and  N_24 
ROOT
HETATM    1  C   UNL     1      42.458 -17.650   6.490  1.00  0.00     0.244 A 
HETATM    2  N   UNL     1      43.273 -18.371   5.541  1.00  0.00    -0.151 N 
HETATM    3  C   UNL     1      44.346 -19.116   5.961  1.00  0.00     0.734 A 
HETATM    4  N   UNL     1      44.920 -19.683   4.923  1.00  0.00    -0.060 NA
HETATM    5  C   UNL     1      44.171 -19.337   3.827  1.00  0.00     0.103 A 
HETATM    6  C   UNL     1      43.110 -18.513   4.190  1.00  0.00     0.083 A 
HETATM    7  C   UNL     1      44.334 -19.700   2.483  1.00  0.00     0.034 A 
HETATM    8  C   UNL     1      43.415 -19.224   1.542  1.00  0.00     0.002 A 
HETATM    9  C   UNL     1      42.356 -18.401   1.931  1.00  0.00     0.002 A 
HETATM   10  C   UNL     1      42.178 -18.022   3.267  1.00  0.00     0.033 A 
HETATM   11  N   UNL     1      44.707 -19.211   7.260  1.00  0.00    -0.033 NA
HETATM   12  C   UNL     1      43.986 -18.634   8.152  1.00  0.00     0.193 A 
HETATM   13  N   UNL     1      42.839 -17.881   7.880  1.00  0.00    -0.339 N 
HETATM   14  H   UNL     1      42.281 -17.501   8.628  1.00  0.00     0.164 HD
ENDROOT
BRANCH   1  15
HETATM   15  C   UNL     1      42.500 -16.143   6.285  1.00  0.00    -0.014 A 
HETATM   16  C   UNL     1      41.379 -15.482   5.756  1.00  0.00     0.020 A 
HETATM   17  C   UNL     1      41.346 -14.083   5.628  1.00  0.00    -0.027 A 
HETATM   18  C   UNL     1      42.467 -13.344   6.030  1.00  0.00     0.086 A 
HETATM   19  C   UNL     1      40.088 -13.437   5.114  1.00  0.00     0.051 C 
HETATM   20  C   UNL     1      43.584 -13.972   6.604  1.00  0.00    -0.027 A 
HETATM   21  C   UNL     1      44.772 -13.181   7.083  1.00  0.00     0.051 C 
HETATM   22  C   UNL     1      43.595 -15.369   6.711  1.00  0.00     0.020 A 
BRANCH  18  23
HETATM   23  O   UNL     1      42.437 -11.976   5.952  1.00  0.00    -0.289 OA
BRANCH  23  24
HETATM   24  C   UNL     1      41.708 -11.428   7.045  1.00  0.00     0.505 C 
HETATM   25  F   UNL     1      42.580 -10.742   7.824  1.00  0.00    -0.184 F 
HETATM   26  F   UNL     1      40.839 -10.520   6.534  1.00  0.00    -0.184 F 
ENDBRANCH  23  24
ENDBRANCH  18  23
ENDBRANCH   1  15
BRANCH  12  27
HETATM   27  N   UNL     1      44.259 -18.697   9.470  1.00  0.00    -0.272 NA
HETATM   28  H   UNL     1      44.513 -19.644   9.744  1.00  0.00     0.127 HD
HETATM   29  H   UNL     1      44.932 -18.029   9.824  1.00  0.00     0.127 HD
ENDBRANCH  12  27
TORSDOF 4
ENDMDL
MODEL 9
REMARK VINA RESULT:      -7.5      2.501      3.804
REMARK  4 active torsions:
REMARK  status: ('A' for Active; 'I' for Inactive)
REMARK    1  A    between atoms: C_3  and  O_4 
REMARK    2  A    between atoms: O_4  and  C_5 
REMARK    3  A    between atoms: C_11  and  C_12 
REMARK    4  A    between atoms: C_23  and  N_24 
ROOT
HETATM    1  C   UNL     1      40.420 -15.853   1.901  1.00  0.00     0.244 A 
HETATM    2  N   UNL     1      40.630 -14.456   2.199  1.00  0.00    -0.151 N 
HETATM    3  C   UNL     1      41.084 -13.593   1.234  1.00  0.00     0.734 A 
HETATM    4  N   UNL     1      41.185 -12.384   1.738  1.00  0.00    -0.060 NA
HETATM    5  C   UNL     1      40.739 -12.464   3.033  1.00  0.00     0.103 A 
HETATM    6  C   UNL     1      40.367 -13.767   3.352  1.00  0.00     0.083 A 
HETATM    7  C   UNL     1      40.613 -11.456   3.999  1.00  0.00     0.034 A 
HETATM    8  C   UNL     1      40.110 -11.792   5.260  1.00  0.00     0.002 A 
HETATM    9  C   UNL     1      39.741 -13.107   5.555  1.00  0.00     0.002 A 
HETATM   10  C   UNL     1      39.862 -14.129   4.606  1.00  0.00     0.033 A 
HETATM   11  N   UNL     1      41.368 -13.989  -0.027  1.00  0.00    -0.033 NA
HETATM   12  C   UNL     1      41.149 -15.210  -0.362  1.00  0.00     0.193 A 
HETATM   13  N   UNL     1      40.644 -16.190   0.498  1.00  0.00    -0.339 N 
HETATM   14  H   UNL     1      40.438 -17.117   0.161  1.00  0.00     0.164 HD
ENDROOT
BRANCH   1  15
HETATM   15  C   UNL     1      41.321 -16.775   2.707  1.00  0.00    -0.014 A 
HETATM   16  C   UNL     1      41.337 -16.683   4.109  1.00  0.00     0.020 A 
HETATM   17  C   UNL     1      42.093 -17.570   4.893  1.00  0.00    -0.027 A 
HETATM   18  C   UNL     1      42.852 -18.558   4.251  1.00  0.00     0.086 A 
HETATM   19  C   UNL     1      42.012 -17.453   6.391  1.00  0.00     0.051 C 
HETATM   20  C   UNL     1      42.822 -18.704   2.854  1.00  0.00    -0.027 A 
HETATM   21  C   UNL     1      43.596 -19.792   2.160  1.00  0.00     0.051 C 
HETATM   22  C   UNL     1      42.067 -17.800   2.095  1.00  0.00     0.020 A 
BRANCH  18  23
HETATM   23  O   UNL     1      43.561 -19.458   5.001  1.00  0.00    -0.289 OA
BRANCH  23  24
HETATM   24  C   UNL     1      44.908 -19.027   5.161  1.00  0.00     0.505 C 
HETATM   25  F   UNL     1      45.129 -18.834   6.485  1.00  0.00    -0.184 F 
HETATM   26  F   UNL     1      45.708 -20.052   4.773  1.00  0.00    -0.184 F 
ENDBRANCH  23  24
ENDBRANCH  18  23
ENDBRANCH   1  15
BRANCH  12  27
HETATM   27  N   UNL     1      41.381 -15.683  -1.602  1.00  0.00    -0.272 NA
HETATM   28  H   UNL     1      42.366 -15.596  -1.846  1.00  0.00     0.127 HD
HETATM   29  H   UNL     1      41.044 -16.616  -1.799  1.00  0.00     0.127 HD
ENDBRANCH  12  27
TORSDOF 4
ENDMDL
MODEL 10
REMARK VINA RESULT:      -7.5      1.964      4.564
REMARK  4 active torsions:
REMARK  status: ('A' for Active; 'I' for Inactive)
REMARK    1  A    between atoms: C_3  and  O_4 
REMARK    2  A    between atoms: O_4  and  C_5 
REMARK    3  A    between atoms: C_11  and  C_12 
REMARK    4  A    between atoms: C_23  and  N_24 
ROOT
HETATM    1  C   UNL     1      43.091 -14.035   3.788  1.00  0.00     0.244 A 
HETATM    2  N   UNL     1      41.728 -13.588   3.614  1.00  0.00    -0.151 N 
HETATM    3  C   UNL     1      41.038 -13.020   4.655  1.00  0.00     0.734 A 
HETATM    4  N   UNL     1      39.832 -12.688   4.253  1.00  0.00    -0.060 NA
HETATM    5  C   UNL     1      39.767 -13.002   2.919  1.00  0.00     0.103 A 
HETATM    6  C   UNL     1      40.962 -13.565   2.482  1.00  0.00     0.083 A 
HETATM    7  C   UNL     1      38.715 -12.825   2.010  1.00  0.00     0.034 A 
HETATM    8  C   UNL     1      38.902 -13.217   0.680  1.00  0.00     0.002 A 
HETATM    9  C   UNL     1      40.112 -13.777   0.264  1.00  0.00     0.002 A 
HETATM   10  C   UNL     1      41.174 -13.967   1.157  1.00  0.00     0.033 A 
HETATM   11  N   UNL     1      41.574 -12.854   5.885  1.00  0.00    -0.033 NA
HETATM   12  C   UNL     1      42.800 -13.184   6.081  1.00  0.00     0.193 A 
HETATM   13  N   UNL     1      43.641 -13.731   5.106  1.00  0.00    -0.339 N 
HETATM   14  H   UNL     1      44.611 -13.915   5.305  1.00  0.00     0.164 HD
ENDROOT
BRANCH   1  15
HETATM   15  C   UNL     1      43.254 -15.535   3.598  1.00  0.00    -0.014 A 
HETATM   16  C   UNL     1      43.075 -16.399   4.692  1.00  0.00     0.020 A 
HETATM   17  C   UNL     1      43.136 -17.794   4.541  1.00  0.00    -0.027 A 
HETATM   18  C   UNL     1      43.391 -18.324   3.268  1.00  0.00     0.086 A 
HETATM   19  C   UNL     1      42.871 -18.660   5.743  1.00  0.00     0.051 C 
HETATM   20  C   UNL     1      43.529 -17.488   2.148  1.00  0.00    -0.027 A 
HETATM   21  C   UNL     1      43.755 -18.050   0.770  1.00  0.00     0.051 C 
HETATM   22  C   UNL     1      43.474 -16.099   2.328  1.00  0.00     0.020 A 
BRANCH  18  23
HETATM   23  O   UNL     1      43.412 -19.682   3.095  1.00  0.00    -0.289 OA
BRANCH  23  24
HETATM   24  C   UNL     1      44.744 -20.177   3.164  1.00  0.00     0.505 C 
HETATM   25  F   UNL     1      44.876 -20.855   4.331  1.00  0.00    -0.184 F 
HETATM   26  F   UNL     1      44.891 -21.082   2.164  1.00  0.00    -0.184 F 
ENDBRANCH  23  24
ENDBRANCH  18  23
ENDBRANCH   1  15
BRANCH  12  27
HETATM   27  N   UNL     1      43.420 -13.032   7.268  1.00  0.00    -0.272 NA
HETATM   28  H   UNL     1      43.160 -12.149   7.703  1.00  0.00     0.127 HD
HETATM   29  H   UNL     1      43.330 -13.795   7.925  1.00  0.00     0.127 HD
ENDBRANCH  12  27
TORSDOF 4
ENDMDL
