MODEL 1
REMARK VINA RESULT:      -9.3      0.000      0.000
REMARK  5 active torsions:
REMARK  status: ('A' for Active; 'I' for Inactive)
REMARK    1  A    between atoms: C_3  and  N_4 
REMARK       I    between atoms: N_4  and  C_5 
REMARK    2  A    between atoms: C_9  and  N_10 
REMARK       I    between atoms: N_10  and  C_11 
REMARK    3  A    between atoms: C_11  and  C_12 
REMARK    4  A    between atoms: C_17  and  C_18 
REMARK    5  A    between atoms: C_24  and  C_25 
ROOT
HETATM    1  C   UNL     1      43.071 -15.003   4.213  1.00  0.00     0.148 C 
HETATM    2  N   UNL     1      43.267 -15.023   2.872  1.00  0.00    -0.165 NA
HETATM    3  N   UNL     1      42.902 -16.271   2.531  1.00  0.00    -0.240 N 
HETATM    4  C   UNL     1      42.629 -17.084   3.593  1.00  0.00     0.123 C 
HETATM    5  N   UNL     1      42.420 -18.404   3.422  1.00  0.00    -0.364 N 
HETATM    6  C   UNL     1      42.746 -19.106   2.173  1.00  0.00     0.143 C 
HETATM    7  C   UNL     1      43.499 -18.188   1.182  1.00  0.00     0.068 C 
HETATM    8  C   UNL     1      42.953 -16.756   1.167  1.00  0.00     0.221 C 
HETATM    9  C   UNL     1      42.637 -16.272   4.693  1.00  0.00     0.089 C 
HETATM   10  H   UNL     1      42.187 -19.009   4.207  1.00  0.00     0.162 HD
ENDROOT
BRANCH   1  11
HETATM   11  C   UNL     1      43.349 -13.806   5.028  1.00  0.00     0.276 C 
HETATM   12  N   UNL     1      44.025 -14.123   6.191  1.00  0.00    -0.322 N 
HETATM   13  H   UNL     1      44.224 -15.117   6.283  1.00  0.00     0.169 HD
HETATM   14  O   UNL     1      42.964 -12.695   4.682  1.00  0.00    -0.266 OA
BRANCH  12  15
HETATM   15  C   UNL     1      44.385 -13.273   7.250  1.00  0.00     0.037 A 
HETATM   16  C   UNL     1      43.466 -12.585   8.044  1.00  0.00     0.059 A 
HETATM   17  C   UNL     1      43.872 -11.767   9.120  1.00  0.00     0.042 A 
HETATM   18  C   UNL     1      45.245 -11.587   9.357  1.00  0.00    -0.035 A 
HETATM   19  C   UNL     1      45.828 -10.650  10.376  1.00  0.00     0.050 C 
HETATM   20  C   UNL     1      46.164 -12.301   8.563  1.00  0.00     0.011 A 
HETATM   21  C   UNL     1      45.742 -13.128   7.521  1.00  0.00     0.030 A 
BRANCH  17  22
HETATM   22  N   UNL     1      42.807 -11.158   9.825  1.00  0.00    -0.327 N 
HETATM   23  C   UNL     1      42.017 -10.094   9.440  1.00  0.00     0.218 C 
HETATM   24  C   UNL     1      40.913  -9.807  10.430  1.00  0.00     0.117 C 
HETATM   25  O   UNL     1      42.138  -9.404   8.434  1.00  0.00    -0.274 OA
HETATM   26  H   UNL     1      42.775 -11.375  10.814  1.00  0.00     0.169 HD
ENDBRANCH  17  22
ENDBRANCH  12  15
ENDBRANCH   1  11
BRANCH   8  27
HETATM   27  C   UNL     1      41.587 -16.654   0.528  1.00  0.00     0.409 C 
HETATM   28  F   UNL     1      40.843 -15.662   1.066  1.00  0.00    -0.169 F 
HETATM   29  F   UNL     1      41.721 -16.361  -0.792  1.00  0.00    -0.169 F 
HETATM   30  F   UNL     1      40.867 -17.792   0.599  1.00  0.00    -0.169 F 
ENDBRANCH   8  27
BRANCH   6  31
HETATM   31  C   UNL     1      43.567 -20.338   2.407  1.00  0.00     0.075 A 
HETATM   32  O   UNL     1      44.252 -20.409   3.585  1.00  0.00    -0.325 OA
HETATM   33  C   UNL     1      44.900 -21.603   3.593  1.00  0.00     0.142 A 
HETATM   34  C   UNL     1      44.638 -22.304   2.439  1.00  0.00     0.027 A 
HETATM   35  C   UNL     1      43.776 -21.488   1.670  1.00  0.00     0.037 A 
ENDBRANCH   6  31
TORSDOF 5
ENDMDL
MODEL 2
REMARK VINA RESULT:      -9.2      4.895      8.391
REMARK  5 active torsions:
REMARK  status: ('A' for Active; 'I' for Inactive)
REMARK    1  A    between atoms: C_3  and  N_4 
REMARK       I    between atoms: N_4  and  C_5 
REMARK    2  A    between atoms: C_9  and  N_10 
REMARK       I    between atoms: N_10  and  C_11 
REMARK    3  A    between atoms: C_11  and  C_12 
REMARK    4  A    between atoms: C_17  and  C_18 
REMARK    5  A    between atoms: C_24  and  C_25 
ROOT
HETATM    1  C   UNL     1      40.873 -15.402   0.651  1.00  0.00     0.148 C 
HETATM    2  N   UNL     1      41.597 -15.395  -0.496  1.00  0.00    -0.165 NA
HETATM    3  N   UNL     1      40.931 -14.520  -1.268  1.00  0.00    -0.240 N 
HETATM    4  C   UNL     1      39.751 -14.087  -0.735  1.00  0.00     0.123 C 
HETATM    5  N   UNL     1      38.890 -13.347  -1.460  1.00  0.00    -0.364 N 
HETATM    6  C   UNL     1      39.002 -13.196  -2.917  1.00  0.00     0.143 C 
HETATM    7  C   UNL     1      40.099 -14.115  -3.504  1.00  0.00     0.068 C 
HETATM    8  C   UNL     1      41.347 -14.191  -2.617  1.00  0.00     0.221 C 
HETATM    9  C   UNL     1      39.726 -14.566   0.546  1.00  0.00     0.089 C 
HETATM   10  H   UNL     1      38.022 -12.998  -1.057  1.00  0.00     0.162 HD
ENDROOT
BRANCH   1  11
HETATM   11  C   UNL     1      41.244 -16.242   1.805  1.00  0.00     0.276 C 
HETATM   12  N   UNL     1      42.381 -16.986   1.553  1.00  0.00    -0.322 N 
HETATM   13  H   UNL     1      42.772 -16.823   0.628  1.00  0.00     0.169 HD
HETATM   14  O   UNL     1      40.562 -16.265   2.823  1.00  0.00    -0.266 OA
BRANCH  12  15
HETATM   15  C   UNL     1      42.986 -17.956   2.369  1.00  0.00     0.037 A 
HETATM   16  C   UNL     1      42.995 -17.906   3.764  1.00  0.00     0.059 A 
HETATM   17  C   UNL     1      43.587 -18.921   4.546  1.00  0.00     0.042 A 
HETATM   18  C   UNL     1      44.246 -19.981   3.898  1.00  0.00    -0.035 A 
HETATM   19  C   UNL     1      45.030 -21.059   4.591  1.00  0.00     0.050 C 
HETATM   20  C   UNL     1      44.214 -20.033   2.491  1.00  0.00     0.011 A 
HETATM   21  C   UNL     1      43.599 -19.034   1.736  1.00  0.00     0.030 A 
BRANCH  17  22
HETATM   22  N   UNL     1      43.491 -18.715   5.942  1.00  0.00    -0.327 N 
HETATM   23  C   UNL     1      44.434 -18.189   6.802  1.00  0.00     0.218 C 
HETATM   24  C   UNL     1      43.909 -18.034   8.209  1.00  0.00     0.117 C 
HETATM   25  O   UNL     1      45.586 -17.871   6.534  1.00  0.00    -0.274 OA
HETATM   26  H   UNL     1      42.739 -19.222   6.394  1.00  0.00     0.169 HD
ENDBRANCH  17  22
ENDBRANCH  12  15
ENDBRANCH   1  11
BRANCH   8  27
HETATM   27  C   UNL     1      42.146 -12.908  -2.615  1.00  0.00     0.409 C 
HETATM   28  F   UNL     1      41.963 -12.192  -1.484  1.00  0.00    -0.169 F 
HETATM   29  F   UNL     1      43.473 -13.197  -2.677  1.00  0.00    -0.169 F 
HETATM   30  F   UNL     1      41.880 -12.099  -3.661  1.00  0.00    -0.169 F 
ENDBRANCH   8  27
BRANCH   6  31
HETATM   31  C   UNL     1      37.709 -13.479  -3.623  1.00  0.00     0.075 A 
HETATM   32  O   UNL     1      36.976 -12.401  -4.022  1.00  0.00    -0.325 OA
HETATM   33  C   UNL     1      35.872 -12.885  -4.649  1.00  0.00     0.142 A 
HETATM   34  C   UNL     1      35.888 -14.260  -4.663  1.00  0.00     0.027 A 
HETATM   35  C   UNL     1      37.075 -14.647  -3.999  1.00  0.00     0.037 A 
ENDBRANCH   6  31
TORSDOF 5
ENDMDL
MODEL 3
REMARK VINA RESULT:      -9.0      4.622      6.629
REMARK  5 active torsions:
REMARK  status: ('A' for Active; 'I' for Inactive)
REMARK    1  A    between atoms: C_3  and  N_4 
REMARK       I    between atoms: N_4  and  C_5 
REMARK    2  A    between atoms: C_9  and  N_10 
REMARK       I    between atoms: N_10  and  C_11 
REMARK    3  A    between atoms: C_11  and  C_12 
REMARK    4  A    between atoms: C_17  and  C_18 
REMARK    5  A    between atoms: C_24  and  C_25 
ROOT
HETATM    1  C   UNL     1      41.316 -15.784   4.420  1.00  0.00     0.148 C 
HETATM    2  N   UNL     1      41.450 -16.434   5.601  1.00  0.00    -0.165 NA
HETATM    3  N   UNL     1      42.546 -17.188   5.409  1.00  0.00    -0.240 N 
HETATM    4  C   UNL     1      43.024 -17.164   4.130  1.00  0.00     0.123 C 
HETATM    5  N   UNL     1      44.006 -17.999   3.740  1.00  0.00    -0.364 N 
HETATM    6  C   UNL     1      44.428 -19.160   4.536  1.00  0.00     0.143 C 
HETATM    7  C   UNL     1      43.499 -19.385   5.753  1.00  0.00     0.068 C 
HETATM    8  C   UNL     1      43.075 -18.075   6.425  1.00  0.00     0.221 C 
HETATM    9  C   UNL     1      42.308 -16.193   3.485  1.00  0.00     0.089 C 
HETATM   10  H   UNL     1      44.387 -17.965   2.796  1.00  0.00     0.162 HD
ENDROOT
BRANCH   1  11
HETATM   11  C   UNL     1      40.220 -14.828   4.172  1.00  0.00     0.276 C 
HETATM   12  N   UNL     1      39.971 -14.671   2.822  1.00  0.00    -0.322 N 
HETATM   13  H   UNL     1      40.572 -15.244   2.233  1.00  0.00     0.169 HD
HETATM   14  O   UNL     1      39.662 -14.243   5.094  1.00  0.00    -0.266 OA
BRANCH  12  15
HETATM   15  C   UNL     1      39.072 -13.792   2.197  1.00  0.00     0.037 A 
HETATM   16  C   UNL     1      39.062 -12.412   2.402  1.00  0.00     0.059 A 
HETATM   17  C   UNL     1      38.161 -11.561   1.726  1.00  0.00     0.042 A 
HETATM   18  C   UNL     1      37.201 -12.129   0.872  1.00  0.00    -0.035 A 
HETATM   19  C   UNL     1      36.099 -11.370   0.189  1.00  0.00     0.050 C 
HETATM   20  C   UNL     1      37.231 -13.521   0.656  1.00  0.00     0.011 A 
HETATM   21  C   UNL     1      38.149 -14.342   1.312  1.00  0.00     0.030 A 
BRANCH  17  22
HETATM   22  N   UNL     1      38.302 -10.189   2.044  1.00  0.00    -0.327 N 
HETATM   23  C   UNL     1      38.076  -9.558   3.250  1.00  0.00     0.218 C 
HETATM   24  C   UNL     1      38.443  -8.094   3.213  1.00  0.00     0.117 C 
HETATM   25  O   UNL     1      37.622 -10.054   4.275  1.00  0.00    -0.274 OA
HETATM   26  H   UNL     1      38.348  -9.571   1.243  1.00  0.00     0.169 HD
ENDBRANCH  17  22
ENDBRANCH  12  15
ENDBRANCH   1  11
BRANCH   8  27
HETATM   27  C   UNL     1      44.207 -17.399   7.165  1.00  0.00     0.409 C 
HETATM   28  F   UNL     1      43.895 -17.147   8.456  1.00  0.00    -0.169 F 
HETATM   29  F   UNL     1      45.292 -18.217   7.184  1.00  0.00    -0.169 F 
HETATM   30  F   UNL     1      44.608 -16.240   6.605  1.00  0.00    -0.169 F 
ENDBRANCH   8  27
BRANCH   6  31
HETATM   31  C   UNL     1      44.475 -20.421   3.726  1.00  0.00     0.075 A 
HETATM   32  O   UNL     1      44.721 -21.580   4.402  1.00  0.00    -0.325 OA
HETATM   33  C   UNL     1      44.698 -22.583   3.487  1.00  0.00     0.142 A 
HETATM   34  C   UNL     1      44.435 -22.087   2.232  1.00  0.00     0.027 A 
HETATM   35  C   UNL     1      44.291 -20.689   2.384  1.00  0.00     0.037 A 
ENDBRANCH   6  31
TORSDOF 5
ENDMDL
MODEL 4
REMARK VINA RESULT:      -8.9      4.631      7.934
REMARK  5 active torsions:
REMARK  status: ('A' for Active; 'I' for Inactive)
REMARK    1  A    between atoms: C_3  and  N_4 
REMARK       I    between atoms: N_4  and  C_5 
REMARK    2  A    between atoms: C_9  and  N_10 
REMARK       I    between atoms: N_10  and  C_11 
REMARK    3  A    between atoms: C_11  and  C_12 
REMARK    4  A    between atoms: C_17  and  C_18 
REMARK    5  A    between atoms: C_24  and  C_25 
ROOT
HETATM    1  C   UNL     1      41.889 -15.878   3.770  1.00  0.00     0.148 C 
HETATM    2  N   UNL     1      41.708 -16.301   5.045  1.00  0.00    -0.165 NA
HETATM    3  N   UNL     1      42.728 -17.157   5.227  1.00  0.00    -0.240 N 
HETATM    4  C   UNL     1      43.454 -17.411   4.100  1.00  0.00     0.123 C 
HETATM    5  N   UNL     1      44.395 -18.375   4.081  1.00  0.00    -0.364 N 
HETATM    6  C   UNL     1      44.513 -19.392   5.135  1.00  0.00     0.143 C 
HETATM    7  C   UNL     1      43.339 -19.313   6.139  1.00  0.00     0.068 C 
HETATM    8  C   UNL     1      42.938 -17.872   6.470  1.00  0.00     0.221 C 
HETATM    9  C   UNL     1      42.997 -16.529   3.159  1.00  0.00     0.089 C 
HETATM   10  H   UNL     1      44.959 -18.548   3.251  1.00  0.00     0.162 HD
ENDROOT
BRANCH   1  11
HETATM   11  C   UNL     1      40.981 -14.908   3.131  1.00  0.00     0.276 C 
HETATM   12  N   UNL     1      40.759 -15.213   1.801  1.00  0.00    -0.322 N 
HETATM   13  H   UNL     1      41.246 -16.052   1.494  1.00  0.00     0.169 HD
HETATM   14  O   UNL     1      40.540 -13.944   3.745  1.00  0.00    -0.266 OA
BRANCH  12  15
HETATM   15  C   UNL     1      40.028 -14.483   0.849  1.00  0.00     0.037 A 
HETATM   16  C   UNL     1      40.610 -13.772  -0.202  1.00  0.00     0.059 A 
HETATM   17  C   UNL     1      39.835 -13.079  -1.157  1.00  0.00     0.042 A 
HETATM   18  C   UNL     1      38.438 -13.050  -1.006  1.00  0.00    -0.035 A 
HETATM   19  C   UNL     1      37.496 -12.251  -1.862  1.00  0.00     0.050 C 
HETATM   20  C   UNL     1      37.859 -13.786   0.046  1.00  0.00     0.011 A 
HETATM   21  C   UNL     1      38.641 -14.489   0.963  1.00  0.00     0.030 A 
BRANCH  17  22
HETATM   22  N   UNL     1      40.590 -12.427  -2.160  1.00  0.00    -0.327 N 
HETATM   23  C   UNL     1      41.054 -12.937  -3.356  1.00  0.00     0.218 C 
HETATM   24  C   UNL     1      41.733 -11.889  -4.205  1.00  0.00     0.117 C 
HETATM   25  O   UNL     1      40.974 -14.094  -3.750  1.00  0.00    -0.274 OA
HETATM   26  H   UNL     1      41.035 -11.566  -1.864  1.00  0.00     0.169 HD
ENDBRANCH  17  22
ENDBRANCH  12  15
ENDBRANCH   1  11
BRANCH   8  27
HETATM   27  C   UNL     1      43.966 -17.154   7.315  1.00  0.00     0.409 C 
HETATM   28  F   UNL     1      43.400 -16.445   8.316  1.00  0.00    -0.169 F 
HETATM   29  F   UNL     1      44.788 -18.062   7.903  1.00  0.00    -0.169 F 
HETATM   30  F   UNL     1      44.756 -16.316   6.614  1.00  0.00    -0.169 F 
ENDBRANCH   8  27
BRANCH   6  31
HETATM   31  C   UNL     1      44.580 -20.784   4.581  1.00  0.00     0.075 A 
HETATM   32  O   UNL     1      44.383 -20.924   3.239  1.00  0.00    -0.325 OA
HETATM   33  C   UNL     1      44.507 -22.248   2.958  1.00  0.00     0.142 A 
HETATM   34  C   UNL     1      44.788 -22.960   4.100  1.00  0.00     0.027 A 
HETATM   35  C   UNL     1      44.835 -22.016   5.151  1.00  0.00     0.037 A 
ENDBRANCH   6  31
TORSDOF 5
ENDMDL
MODEL 5
REMARK VINA RESULT:      -8.9      4.634      7.877
REMARK  5 active torsions:
REMARK  status: ('A' for Active; 'I' for Inactive)
REMARK    1  A    between atoms: C_3  and  N_4 
REMARK       I    between atoms: N_4  and  C_5 
REMARK    2  A    between atoms: C_9  and  N_10 
REMARK       I    between atoms: N_10  and  C_11 
REMARK    3  A    between atoms: C_11  and  C_12 
REMARK    4  A    between atoms: C_17  and  C_18 
REMARK    5  A    between atoms: C_24  and  C_25 
ROOT
HETATM    1  C   UNL     1      41.424 -16.018   1.355  1.00  0.00     0.148 C 
HETATM    2  N   UNL     1      42.616 -16.648   1.212  1.00  0.00    -0.165 NA
HETATM    3  N   UNL     1      42.653 -17.469   2.276  1.00  0.00    -0.240 N 
HETATM    4  C   UNL     1      41.627 -17.289   3.159  1.00  0.00     0.123 C 
HETATM    5  N   UNL     1      41.621 -17.911   4.353  1.00  0.00    -0.364 N 
HETATM    6  C   UNL     1      42.806 -18.576   4.911  1.00  0.00     0.143 C 
HETATM    7  C   UNL     1      44.065 -18.318   4.048  1.00  0.00     0.068 C 
HETATM    8  C   UNL     1      43.770 -18.352   2.545  1.00  0.00     0.221 C 
HETATM    9  C   UNL     1      40.762 -16.422   2.549  1.00  0.00     0.089 C 
HETATM   10  H   UNL     1      40.844 -17.802   5.003  1.00  0.00     0.162 HD
ENDROOT
BRANCH   1  11
HETATM   11  C   UNL     1      40.955 -15.004   0.393  1.00  0.00     0.276 C 
HETATM   12  N   UNL     1      41.943 -14.655  -0.508  1.00  0.00    -0.322 N 
HETATM   13  H   UNL     1      42.815 -15.160  -0.364  1.00  0.00     0.169 HD
HETATM   14  O   UNL     1      39.825 -14.532   0.461  1.00  0.00    -0.266 OA
BRANCH  12  15
HETATM   15  C   UNL     1      41.903 -13.671  -1.509  1.00  0.00     0.037 A 
HETATM   16  C   UNL     1      42.547 -12.436  -1.413  1.00  0.00     0.059 A 
HETATM   17  C   UNL     1      42.508 -11.488  -2.459  1.00  0.00     0.042 A 
HETATM   18  C   UNL     1      41.743 -11.771  -3.603  1.00  0.00    -0.035 A 
HETATM   19  C   UNL     1      41.502 -10.812  -4.735  1.00  0.00     0.050 C 
HETATM   20  C   UNL     1      41.114 -13.027  -3.699  1.00  0.00     0.011 A 
HETATM   21  C   UNL     1      41.188 -13.963  -2.666  1.00  0.00     0.030 A 
BRANCH  17  22
HETATM   22  N   UNL     1      43.228 -10.299  -2.196  1.00  0.00    -0.327 N 
HETATM   23  C   UNL     1      42.779  -9.132  -1.611  1.00  0.00     0.218 C 
HETATM   24  C   UNL     1      43.884  -8.124  -1.410  1.00  0.00     0.117 C 
HETATM   25  O   UNL     1      41.631  -8.865  -1.275  1.00  0.00    -0.274 OA
HETATM   26  H   UNL     1      44.101 -10.211  -2.703  1.00  0.00     0.169 HD
ENDBRANCH  17  22
ENDBRANCH  12  15
ENDBRANCH   1  11
BRANCH   8  27
HETATM   27  C   UNL     1      43.466 -19.743   2.036  1.00  0.00     0.409 C 
HETATM   28  F   UNL     1      44.131 -20.026   0.894  1.00  0.00    -0.169 F 
HETATM   29  F   UNL     1      43.866 -20.662   2.952  1.00  0.00    -0.169 F 
HETATM   30  F   UNL     1      42.155 -19.966   1.813  1.00  0.00    -0.169 F 
ENDBRANCH   8  27
BRANCH   6  31
HETATM   31  C   UNL     1      43.092 -18.149   6.319  1.00  0.00     0.075 A 
HETATM   32  O   UNL     1      43.941 -18.935   7.042  1.00  0.00    -0.325 OA
HETATM   33  C   UNL     1      44.070 -18.355   8.264  1.00  0.00     0.142 A 
HETATM   34  C   UNL     1      43.321 -17.205   8.336  1.00  0.00     0.027 A 
HETATM   35  C   UNL     1      42.687 -17.069   7.079  1.00  0.00     0.037 A 
ENDBRANCH   6  31
TORSDOF 5
ENDMDL
MODEL 6
REMARK VINA RESULT:      -8.9      4.585      8.337
REMARK  5 active torsions:
REMARK  status: ('A' for Active; 'I' for Inactive)
REMARK    1  A    between atoms: C_3  and  N_4 
REMARK       I    between atoms: N_4  and  C_5 
REMARK    2  A    between atoms: C_9  and  N_10 
REMARK       I    between atoms: N_10  and  C_11 
REMARK    3  A    between atoms: C_11  and  C_12 
REMARK    4  A    between atoms: C_17  and  C_18 
REMARK    5  A    between atoms: C_24  and  C_25 
ROOT
HETATM    1  C   UNL     1      41.920 -15.939   1.948  1.00  0.00     0.148 C 
HETATM    2  N   UNL     1      41.585 -16.084   3.253  1.00  0.00    -0.165 NA
HETATM    3  N   UNL     1      42.583 -16.843   3.739  1.00  0.00    -0.240 N 
HETATM    4  C   UNL     1      43.446 -17.308   2.789  1.00  0.00     0.123 C 
HETATM    5  N   UNL     1      44.390 -18.219   3.093  1.00  0.00    -0.364 N 
HETATM    6  C   UNL     1      44.385 -18.981   4.349  1.00  0.00     0.143 C 
HETATM    7  C   UNL     1      43.094 -18.730   5.165  1.00  0.00     0.068 C 
HETATM    8  C   UNL     1      42.642 -17.266   5.123  1.00  0.00     0.221 C 
HETATM    9  C   UNL     1      43.102 -16.667   1.630  1.00  0.00     0.089 C 
HETATM   10  H   UNL     1      45.055 -18.547   2.395  1.00  0.00     0.162 HD
ENDROOT
BRANCH   1  11
HETATM   11  C   UNL     1      41.090 -15.163   1.008  1.00  0.00     0.276 C 
HETATM   12  N   UNL     1      41.790 -14.822  -0.134  1.00  0.00    -0.322 N 
HETATM   13  H   UNL     1      42.746 -15.170  -0.138  1.00  0.00     0.169 HD
HETATM   14  O   UNL     1      39.937 -14.851   1.282  1.00  0.00    -0.266 OA
BRANCH  12  15
HETATM   15  C   UNL     1      41.369 -14.020  -1.208  1.00  0.00     0.037 A 
HETATM   16  C   UNL     1      40.264 -14.309  -2.009  1.00  0.00     0.059 A 
HETATM   17  C   UNL     1      39.857 -13.456  -3.058  1.00  0.00     0.042 A 
HETATM   18  C   UNL     1      40.628 -12.317  -3.347  1.00  0.00    -0.035 A 
HETATM   19  C   UNL     1      40.397 -11.392  -4.508  1.00  0.00     0.050 C 
HETATM   20  C   UNL     1      41.731 -12.024  -2.520  1.00  0.00     0.011 A 
HETATM   21  C   UNL     1      42.100 -12.865  -1.469  1.00  0.00     0.030 A 
BRANCH  17  22
HETATM   22  N   UNL     1      38.707 -13.896  -3.756  1.00  0.00    -0.327 N 
HETATM   23  C   UNL     1      37.416 -13.414  -3.678  1.00  0.00     0.218 C 
HETATM   24  C   UNL     1      36.490 -14.083  -4.665  1.00  0.00     0.117 C 
HETATM   25  O   UNL     1      36.990 -12.553  -2.917  1.00  0.00    -0.274 OA
HETATM   26  H   UNL     1      38.794 -14.811  -4.182  1.00  0.00     0.169 HD
ENDBRANCH  17  22
ENDBRANCH  12  15
ENDBRANCH   1  11
BRANCH   8  27
HETATM   27  C   UNL     1      43.551 -16.347   5.908  1.00  0.00     0.409 C 
HETATM   28  F   UNL     1      43.855 -15.222   5.224  1.00  0.00    -0.169 F 
HETATM   29  F   UNL     1      42.925 -15.948   7.046  1.00  0.00    -0.169 F 
HETATM   30  F   UNL     1      44.710 -16.923   6.288  1.00  0.00    -0.169 F 
ENDBRANCH   8  27
BRANCH   6  31
HETATM   31  C   UNL     1      44.533 -20.456   4.124  1.00  0.00     0.075 A 
HETATM   32  O   UNL     1      44.768 -21.228   5.224  1.00  0.00    -0.325 OA
HETATM   33  C   UNL     1      44.845 -22.514   4.794  1.00  0.00     0.142 A 
HETATM   34  C   UNL     1      44.657 -22.582   3.433  1.00  0.00     0.027 A 
HETATM   35  C   UNL     1      44.455 -21.251   2.998  1.00  0.00     0.037 A 
ENDBRANCH   6  31
TORSDOF 5
ENDMDL
MODEL 7
REMARK VINA RESULT:      -8.9      1.579      2.452
REMARK  5 active torsions:
REMARK  status: ('A' for Active; 'I' for Inactive)
REMARK    1  A    between atoms: C_3  and  N_4 
REMARK       I    between atoms: N_4  and  C_5 
REMARK    2  A    between atoms: C_9  and  N_10 
REMARK       I    between atoms: N_10  and  C_11 
REMARK    3  A    between atoms: C_11  and  C_12 
REMARK    4  A    between atoms: C_17  and  C_18 
REMARK    5  A    between atoms: C_24  and  C_25 
ROOT
HETATM    1  C   UNL     1      42.877 -14.765   4.540  1.00  0.00     0.148 C 
HETATM    2  N   UNL     1      43.175 -14.694   3.220  1.00  0.00    -0.165 NA
HETATM    3  N   UNL     1      42.823 -15.909   2.765  1.00  0.00    -0.240 N 
HETATM    4  C   UNL     1      42.460 -16.790   3.743  1.00  0.00     0.123 C 
HETATM    5  N   UNL     1      42.251 -18.091   3.464  1.00  0.00    -0.364 N 
HETATM    6  C   UNL     1      42.663 -18.709   2.197  1.00  0.00     0.143 C 
HETATM    7  C   UNL     1      43.500 -17.738   1.332  1.00  0.00     0.068 C 
HETATM    8  C   UNL     1      42.973 -16.299   1.377  1.00  0.00     0.221 C 
HETATM    9  C   UNL     1      42.394 -16.056   4.896  1.00  0.00     0.089 C 
HETATM   10  H   UNL     1      41.952 -18.745   4.184  1.00  0.00     0.162 HD
ENDROOT
BRANCH   1  11
HETATM   11  C   UNL     1      43.106 -13.632   5.456  1.00  0.00     0.276 C 
HETATM   12  N   UNL     1      41.955 -12.893   5.655  1.00  0.00    -0.322 N 
HETATM   13  H   UNL     1      41.150 -13.258   5.151  1.00  0.00     0.169 HD
HETATM   14  O   UNL     1      44.216 -13.400   5.920  1.00  0.00    -0.266 OA
BRANCH  12  15
HETATM   15  C   UNL     1      41.797 -11.703   6.385  1.00  0.00     0.037 A 
HETATM   16  C   UNL     1      42.192 -11.547   7.715  1.00  0.00     0.059 A 
HETATM   17  C   UNL     1      42.045 -10.322   8.400  1.00  0.00     0.042 A 
HETATM   18  C   UNL     1      41.422  -9.247   7.744  1.00  0.00    -0.035 A 
HETATM   19  C   UNL     1      41.079  -7.930   8.382  1.00  0.00     0.050 C 
HETATM   20  C   UNL     1      41.044  -9.408   6.396  1.00  0.00     0.011 A 
HETATM   21  C   UNL     1      41.224 -10.619   5.727  1.00  0.00     0.030 A 
BRANCH  17  22
HETATM   22  N   UNL     1      42.513 -10.339   9.735  1.00  0.00    -0.327 N 
HETATM   23  C   UNL     1      43.814 -10.411  10.191  1.00  0.00     0.218 C 
HETATM   24  C   UNL     1      43.906 -10.298  11.693  1.00  0.00     0.117 C 
HETATM   25  O   UNL     1      44.828 -10.561   9.520  1.00  0.00    -0.274 OA
HETATM   26  H   UNL     1      41.807 -10.558  10.429  1.00  0.00     0.169 HD
ENDBRANCH  17  22
ENDBRANCH  12  15
ENDBRANCH   1  11
BRANCH   8  27
HETATM   27  C   UNL     1      41.661 -16.130   0.646  1.00  0.00     0.409 C 
HETATM   28  F   UNL     1      41.754 -15.251  -0.376  1.00  0.00    -0.169 F 
HETATM   29  F   UNL     1      41.286 -17.316   0.100  1.00  0.00    -0.169 F 
HETATM   30  F   UNL     1      40.644 -15.733   1.438  1.00  0.00    -0.169 F 
ENDBRANCH   8  27
BRANCH   6  31
HETATM   31  C   UNL     1      43.450 -19.969   2.404  1.00  0.00     0.075 A 
HETATM   32  O   UNL     1      44.242 -20.025   3.513  1.00  0.00    -0.325 OA
HETATM   33  C   UNL     1      44.837 -21.247   3.510  1.00  0.00     0.142 A 
HETATM   34  C   UNL     1      44.434 -21.979   2.419  1.00  0.00     0.027 A 
HETATM   35  C   UNL     1      43.536 -21.155   1.701  1.00  0.00     0.037 A 
ENDBRANCH   6  31
TORSDOF 5
ENDMDL
MODEL 8
REMARK VINA RESULT:      -8.6      4.590      8.431
REMARK  5 active torsions:
REMARK  status: ('A' for Active; 'I' for Inactive)
REMARK    1  A    between atoms: C_3  and  N_4 
REMARK       I    between atoms: N_4  and  C_5 
REMARK    2  A    between atoms: C_9  and  N_10 
REMARK       I    between atoms: N_10  and  C_11 
REMARK    3  A    between atoms: C_11  and  C_12 
REMARK    4  A    between atoms: C_17  and  C_18 
REMARK    5  A    between atoms: C_24  and  C_25 
ROOT
HETATM    1  C   UNL     1      41.256 -15.927   1.454  1.00  0.00     0.148 C 
HETATM    2  N   UNL     1      42.457 -16.527   1.269  1.00  0.00    -0.165 NA
HETATM    3  N   UNL     1      42.539 -17.368   2.315  1.00  0.00    -0.240 N 
HETATM    4  C   UNL     1      41.532 -17.229   3.225  1.00  0.00     0.123 C 
HETATM    5  N   UNL     1      41.569 -17.876   4.407  1.00  0.00    -0.364 N 
HETATM    6  C   UNL     1      42.782 -18.525   4.921  1.00  0.00     0.143 C 
HETATM    7  C   UNL     1      44.012 -18.222   4.034  1.00  0.00     0.068 C 
HETATM    8  C   UNL     1      43.681 -18.232   2.537  1.00  0.00     0.221 C 
HETATM    9  C   UNL     1      40.633 -16.370   2.655  1.00  0.00     0.089 C 
HETATM   10  H   UNL     1      40.806 -17.798   5.077  1.00  0.00     0.162 HD
ENDROOT
BRANCH   1  11
HETATM   11  C   UNL     1      40.741 -14.904   0.525  1.00  0.00     0.276 C 
HETATM   12  N   UNL     1      41.553 -14.763  -0.584  1.00  0.00    -0.322 N 
HETATM   13  H   UNL     1      42.355 -15.389  -0.577  1.00  0.00     0.169 HD
HETATM   14  O   UNL     1      39.731 -14.259   0.781  1.00  0.00    -0.266 OA
BRANCH  12  15
HETATM   15  C   UNL     1      41.441 -13.838  -1.635  1.00  0.00     0.037 A 
HETATM   16  C   UNL     1      40.277 -13.643  -2.379  1.00  0.00     0.059 A 
HETATM   17  C   UNL     1      40.198 -12.678  -3.407  1.00  0.00     0.042 A 
HETATM   18  C   UNL     1      41.348 -11.939  -3.735  1.00  0.00    -0.035 A 
HETATM   19  C   UNL     1      41.454 -10.976  -4.883  1.00  0.00     0.050 C 
HETATM   20  C   UNL     1      42.512 -12.130  -2.966  1.00  0.00     0.011 A 
HETATM   21  C   UNL     1      42.562 -13.069  -1.934  1.00  0.00     0.030 A 
BRANCH  17  22
HETATM   22  N   UNL     1      38.937 -12.605  -4.045  1.00  0.00    -0.327 N 
HETATM   23  C   UNL     1      37.782 -11.993  -3.601  1.00  0.00     0.218 C 
HETATM   24  C   UNL     1      36.672 -12.046  -4.623  1.00  0.00     0.117 C 
HETATM   25  O   UNL     1      37.596 -11.457  -2.515  1.00  0.00    -0.274 OA
HETATM   26  H   UNL     1      38.804 -13.271  -4.797  1.00  0.00     0.169 HD
ENDBRANCH  17  22
ENDBRANCH  12  15
ENDBRANCH   1  11
BRANCH   8  27
HETATM   27  C   UNL     1      43.395 -19.618   2.007  1.00  0.00     0.409 C 
HETATM   28  F   UNL     1      42.077 -19.822   1.792  1.00  0.00    -0.169 F 
HETATM   29  F   UNL     1      44.011 -19.784   0.807  1.00  0.00    -0.169 F 
HETATM   30  F   UNL     1      43.840 -20.609   2.807  1.00  0.00    -0.169 F 
ENDBRANCH   8  27
BRANCH   6  31
HETATM   31  C   UNL     1      43.093 -18.121   6.331  1.00  0.00     0.075 A 
HETATM   32  O   UNL     1      43.936 -18.930   7.033  1.00  0.00    -0.325 OA
HETATM   33  C   UNL     1      44.091 -18.368   8.261  1.00  0.00     0.142 A 
HETATM   34  C   UNL     1      43.364 -17.205   8.355  1.00  0.00     0.027 A 
HETATM   35  C   UNL     1      42.717 -17.043   7.108  1.00  0.00     0.037 A 
ENDBRANCH   6  31
TORSDOF 5
ENDMDL
MODEL 9
REMARK VINA RESULT:      -8.6      4.964      8.322
REMARK  5 active torsions:
REMARK  status: ('A' for Active; 'I' for Inactive)
REMARK    1  A    between atoms: C_3  and  N_4 
REMARK       I    between atoms: N_4  and  C_5 
REMARK    2  A    between atoms: C_9  and  N_10 
REMARK       I    between atoms: N_10  and  C_11 
REMARK    3  A    between atoms: C_11  and  C_12 
REMARK    4  A    between atoms: C_17  and  C_18 
REMARK    5  A    between atoms: C_24  and  C_25 
ROOT
HETATM    1  C   UNL     1      41.713 -15.507   1.125  1.00  0.00     0.148 C 
HETATM    2  N   UNL     1      40.845 -14.552   1.540  1.00  0.00    -0.165 NA
HETATM    3  N   UNL     1      40.238 -14.179   0.399  1.00  0.00    -0.240 N 
HETATM    4  C   UNL     1      40.773 -14.734  -0.727  1.00  0.00     0.123 C 
HETATM    5  N   UNL     1      40.390 -14.326  -1.952  1.00  0.00    -0.364 N 
HETATM    6  C   UNL     1      39.616 -13.099  -2.176  1.00  0.00     0.143 C 
HETATM    7  C   UNL     1      39.460 -12.276  -0.876  1.00  0.00     0.068 C 
HETATM    8  C   UNL     1      39.215 -13.155   0.356  1.00  0.00     0.221 C 
HETATM    9  C   UNL     1      41.670 -15.670  -0.288  1.00  0.00     0.089 C 
HETATM   10  H   UNL     1      40.766 -14.758  -2.795  1.00  0.00     0.162 HD
ENDROOT
BRANCH   1  11
HETATM   11  C   UNL     1      42.610 -16.209   2.061  1.00  0.00     0.276 C 
HETATM   12  N   UNL     1      42.516 -17.582   1.929  1.00  0.00    -0.322 N 
HETATM   13  H   UNL     1      41.859 -17.872   1.209  1.00  0.00     0.169 HD
HETATM   14  O   UNL     1      43.301 -15.595   2.866  1.00  0.00    -0.266 OA
BRANCH  12  15
HETATM   15  C   UNL     1      43.143 -18.577   2.697  1.00  0.00     0.037 A 
HETATM   16  C   UNL     1      43.238 -18.542   4.089  1.00  0.00     0.059 A 
HETATM   17  C   UNL     1      43.848 -19.581   4.824  1.00  0.00     0.042 A 
HETATM   18  C   UNL     1      44.436 -20.651   4.128  1.00  0.00    -0.035 A 
HETATM   19  C   UNL     1      45.230 -21.759   4.762  1.00  0.00     0.050 C 
HETATM   20  C   UNL     1      44.317 -20.688   2.725  1.00  0.00     0.011 A 
HETATM   21  C   UNL     1      43.685 -19.664   2.018  1.00  0.00     0.030 A 
BRANCH  17  22
HETATM   22  N   UNL     1      43.842 -19.388   6.226  1.00  0.00    -0.327 N 
HETATM   23  C   UNL     1      44.647 -18.561   6.984  1.00  0.00     0.218 C 
HETATM   24  C   UNL     1      44.258 -18.557   8.443  1.00  0.00     0.117 C 
HETATM   25  O   UNL     1      45.592 -17.885   6.595  1.00  0.00    -0.274 OA
HETATM   26  H   UNL     1      43.356 -20.105   6.751  1.00  0.00     0.169 HD
ENDBRANCH  17  22
ENDBRANCH  12  15
ENDBRANCH   1  11
BRANCH   8  27
HETATM   27  C   UNL     1      37.843 -13.790   0.362  1.00  0.00     0.409 C 
HETATM   28  F   UNL     1      37.505 -14.289  -0.848  1.00  0.00    -0.169 F 
HETATM   29  F   UNL     1      37.828 -14.837   1.227  1.00  0.00    -0.169 F 
HETATM   30  F   UNL     1      36.858 -12.955   0.751  1.00  0.00    -0.169 F 
ENDBRANCH   8  27
BRANCH   6  31
HETATM   31  C   UNL     1      40.224 -12.223  -3.230  1.00  0.00     0.075 A 
HETATM   32  O   UNL     1      39.364 -11.518  -4.020  1.00  0.00    -0.325 OA
HETATM   33  C   UNL     1      40.124 -10.788  -4.877  1.00  0.00     0.142 A 
HETATM   34  C   UNL     1      41.462 -11.008  -4.646  1.00  0.00     0.027 A 
HETATM   35  C   UNL     1      41.529 -11.937  -3.582  1.00  0.00     0.037 A 
ENDBRANCH   6  31
TORSDOF 5
ENDMDL
MODEL 10
REMARK VINA RESULT:      -8.6      4.860      7.463
REMARK  5 active torsions:
REMARK  status: ('A' for Active; 'I' for Inactive)
REMARK    1  A    between atoms: C_3  and  N_4 
REMARK       I    between atoms: N_4  and  C_5 
REMARK    2  A    between atoms: C_9  and  N_10 
REMARK       I    between atoms: N_10  and  C_11 
REMARK    3  A    between atoms: C_11  and  C_12 
REMARK    4  A    between atoms: C_17  and  C_18 
REMARK    5  A    between atoms: C_24  and  C_25 
ROOT
HETATM    1  C   UNL     1      41.288 -15.000   2.965  1.00  0.00     0.148 C 
HETATM    2  N   UNL     1      41.184 -15.554   4.198  1.00  0.00    -0.165 NA
HETATM    3  N   UNL     1      42.214 -16.418   4.230  1.00  0.00    -0.240 N 
HETATM    4  C   UNL     1      42.872 -16.548   3.041  1.00  0.00     0.123 C 
HETATM    5  N   UNL     1      43.810 -17.498   2.867  1.00  0.00    -0.364 N 
HETATM    6  C   UNL     1      43.992 -18.618   3.800  1.00  0.00     0.143 C 
HETATM    7  C   UNL     1      42.880 -18.652   4.875  1.00  0.00     0.068 C 
HETATM    8  C   UNL     1      42.498 -17.255   5.377  1.00  0.00     0.221 C 
HETATM    9  C   UNL     1      42.359 -15.577   2.225  1.00  0.00     0.089 C 
HETATM   10  H   UNL     1      44.324 -17.581   1.991  1.00  0.00     0.162 HD
ENDROOT
BRANCH   1  11
HETATM   11  C   UNL     1      40.342 -13.976   2.485  1.00  0.00     0.276 C 
HETATM   12  N   UNL     1      39.803 -14.312   1.257  1.00  0.00    -0.322 N 
HETATM   13  H   UNL     1      40.138 -15.204   0.901  1.00  0.00     0.169 HD
HETATM   14  O   UNL     1      40.132 -12.951   3.123  1.00  0.00    -0.266 OA
BRANCH  12  15
HETATM   15  C   UNL     1      38.940 -13.555   0.447  1.00  0.00     0.037 A 
HETATM   16  C   UNL     1      37.721 -13.033   0.883  1.00  0.00     0.059 A 
HETATM   17  C   UNL     1      36.900 -12.249   0.044  1.00  0.00     0.042 A 
HETATM   18  C   UNL     1      37.290 -12.045  -1.290  1.00  0.00    -0.035 A 
HETATM   19  C   UNL     1      36.462 -11.347  -2.332  1.00  0.00     0.050 C 
HETATM   20  C   UNL     1      38.531 -12.559  -1.715  1.00  0.00     0.011 A 
HETATM   21  C   UNL     1      39.342 -13.308  -0.862  1.00  0.00     0.030 A 
BRANCH  17  22
HETATM   22  N   UNL     1      35.709 -11.790   0.656  1.00  0.00    -0.327 N 
HETATM   23  C   UNL     1      35.384 -10.508   1.051  1.00  0.00     0.218 C 
HETATM   24  C   UNL     1      33.970 -10.406   1.570  1.00  0.00     0.117 C 
HETATM   25  O   UNL     1      36.105  -9.518   1.026  1.00  0.00    -0.274 OA
HETATM   26  H   UNL     1      35.131 -12.519   1.057  1.00  0.00     0.169 HD
ENDBRANCH  17  22
ENDBRANCH  12  15
ENDBRANCH   1  11
BRANCH   8  27
HETATM   27  C   UNL     1      43.574 -16.622   6.229  1.00  0.00     0.409 C 
HETATM   28  F   UNL     1      44.030 -15.465   5.701  1.00  0.00    -0.169 F 
HETATM   29  F   UNL     1      43.066 -16.313   7.451  1.00  0.00    -0.169 F 
HETATM   30  F   UNL     1      44.638 -17.422   6.446  1.00  0.00    -0.169 F 
ENDBRANCH   8  27
BRANCH   6  31
HETATM   31  C   UNL     1      44.027 -19.945   3.102  1.00  0.00     0.075 A 
HETATM   32  O   UNL     1      44.648 -20.969   3.753  1.00  0.00    -0.325 OA
HETATM   33  C   UNL     1      44.544 -22.065   2.957  1.00  0.00     0.142 A 
HETATM   34  C   UNL     1      43.859 -21.761   1.804  1.00  0.00     0.027 A 
HETATM   35  C   UNL     1      43.524 -20.390   1.895  1.00  0.00     0.037 A 
ENDBRANCH   6  31
TORSDOF 5
ENDMDL
