MODEL 1
REMARK VINA RESULT:      -8.6      0.000      0.000
REMARK  5 active torsions:
REMARK  status: ('A' for Active; 'I' for Inactive)
REMARK    1  A    between atoms: C_5  and  C_6 
REMARK    2  A    between atoms: C_10  and  C_11 
REMARK       I    between atoms: C_11  and  N_12 
REMARK    3  A    between atoms: N_12  and  C_13 
REMARK    4  A    between atoms: C_14  and  C_15 
REMARK       I    between atoms: C_15  and  N_16 
REMARK    5  A    between atoms: N_16  and  C_17 
ROOT
HETATM    1  C   UNL     1      41.155 -15.152   1.190  1.00  0.00     0.274 C 
HETATM    2  N   UNL     1      41.340 -14.478   0.002  1.00  0.00    -0.321 N 
HETATM    3  O   UNL     1      40.275 -14.921   2.007  1.00  0.00    -0.266 OA
HETATM    4  H   UNL     1      41.810 -14.999  -0.723  1.00  0.00     0.169 HD
ENDROOT
BRANCH   1   5
HETATM    5  C   UNL     1      42.122 -16.201   1.401  1.00  0.00     0.120 A 
HETATM    6  N   UNL     1      42.870 -16.722   0.381  1.00  0.00    -0.272 N 
HETATM    7  N   UNL     1      43.606 -17.792   0.733  1.00  0.00    -0.174 NA
HETATM    8  H   UNL     1      42.875 -16.417  -0.588  1.00  0.00     0.189 HD
HETATM    9  C   UNL     1      43.362 -17.951   2.042  1.00  0.00     0.089 A 
HETATM   10  C   UNL     1      42.460 -16.956   2.506  1.00  0.00     0.071 A 
BRANCH   9  11
HETATM   11  C   UNL     1      43.906 -19.060   2.821  1.00  0.00    -0.006 A 
HETATM   12  C   UNL     1      44.207 -18.895   4.181  1.00  0.00     0.014 A 
HETATM   13  C   UNL     1      44.630 -19.983   4.950  1.00  0.00     0.007 A 
HETATM   14  C   UNL     1      44.767 -21.250   4.373  1.00  0.00    -0.062 A 
HETATM   15  C   UNL     1      45.150 -22.429   5.217  1.00  0.00     0.048 C 
HETATM   16  C   UNL     1      44.474 -21.414   3.014  1.00  0.00     0.007 A 
HETATM   17  C   UNL     1      44.058 -20.325   2.241  1.00  0.00     0.014 A 
ENDBRANCH   9  11
ENDBRANCH   1   5
BRANCH   2  18
HETATM   18  C   UNL     1      40.836 -13.214  -0.376  1.00  0.00     0.050 A 
HETATM   19  C   UNL     1      39.552 -12.919  -0.865  1.00  0.00     0.058 A 
HETATM   20  C   UNL     1      39.229 -11.593  -1.220  1.00  0.00     0.019 A 
HETATM   21  C   UNL     1      40.145 -10.557  -1.048  1.00  0.00     0.001 A 
HETATM   22  C   UNL     1      41.396 -10.833  -0.516  1.00  0.00     0.002 A 
HETATM   23  C   UNL     1      41.736 -12.147  -0.182  1.00  0.00     0.030 A 
BRANCH  19  24
HETATM   24  C   UNL     1      38.412 -13.856  -0.977  1.00  0.00     0.254 C 
HETATM   25  N   UNL     1      38.286 -14.673  -2.080  1.00  0.00    -0.352 N 
HETATM   26  H   UNL     1      37.471 -15.275  -2.020  1.00  0.00     0.163 HD
HETATM   27  O   UNL     1      37.649 -13.993  -0.021  1.00  0.00    -0.268 OA
BRANCH  25  28
HETATM   28  C   UNL     1      39.116 -14.775  -3.231  1.00  0.00     0.084 A 
HETATM   29  C   UNL     1      40.338 -15.647  -3.297  1.00  0.00     0.027 A 
HETATM   30  C   UNL     1      39.098 -16.047  -4.039  1.00  0.00     0.027 A 
ENDBRANCH  25  28
ENDBRANCH  19  24
ENDBRANCH   2  18
TORSDOF 5
ENDMDL
MODEL 2
REMARK VINA RESULT:      -8.5      8.627     10.620
REMARK  5 active torsions:
REMARK  status: ('A' for Active; 'I' for Inactive)
REMARK    1  A    between atoms: C_5  and  C_6 
REMARK    2  A    between atoms: C_10  and  C_11 
REMARK       I    between atoms: C_11  and  N_12 
REMARK    3  A    between atoms: N_12  and  C_13 
REMARK    4  A    between atoms: C_14  and  C_15 
REMARK       I    between atoms: C_15  and  N_16 
REMARK    5  A    between atoms: N_16  and  C_17 
ROOT
HETATM    1  C   UNL     1      44.951 -13.147   7.692  1.00  0.00     0.274 C 
HETATM    2  N   UNL     1      43.802 -13.818   7.336  1.00  0.00    -0.321 N 
HETATM    3  O   UNL     1      46.040 -13.264   7.147  1.00  0.00    -0.266 OA
HETATM    4  H   UNL     1      42.937 -13.357   7.579  1.00  0.00     0.169 HD
ENDROOT
BRANCH   1   5
HETATM    5  C   UNL     1      44.760 -12.252   8.808  1.00  0.00     0.120 A 
HETATM    6  N   UNL     1      45.773 -11.479   9.306  1.00  0.00    -0.272 N 
HETATM    7  N   UNL     1      45.455 -10.824  10.437  1.00  0.00    -0.174 NA
HETATM    8  H   UNL     1      46.718 -11.404   8.942  1.00  0.00     0.189 HD
HETATM    9  C   UNL     1      44.174 -11.147  10.664  1.00  0.00     0.089 A 
HETATM   10  C   UNL     1      43.692 -12.017   9.649  1.00  0.00     0.071 A 
BRANCH   9  11
HETATM   11  C   UNL     1      43.442 -10.709  11.850  1.00  0.00    -0.006 A 
HETATM   12  C   UNL     1      42.296 -11.396  12.274  1.00  0.00     0.014 A 
HETATM   13  C   UNL     1      41.655 -11.040  13.464  1.00  0.00     0.007 A 
HETATM   14  C   UNL     1      42.145  -9.987  14.245  1.00  0.00    -0.062 A 
HETATM   15  C   UNL     1      41.499  -9.655  15.558  1.00  0.00     0.048 C 
HETATM   16  C   UNL     1      43.284  -9.296  13.819  1.00  0.00     0.007 A 
HETATM   17  C   UNL     1      43.922  -9.646  12.625  1.00  0.00     0.014 A 
ENDBRANCH   9  11
ENDBRANCH   1   5
BRANCH   2  18
HETATM   18  C   UNL     1      43.677 -14.990   6.557  1.00  0.00     0.050 A 
HETATM   19  C   UNL     1      43.370 -15.074   5.189  1.00  0.00     0.058 A 
HETATM   20  C   UNL     1      43.260 -16.340   4.577  1.00  0.00     0.019 A 
HETATM   21  C   UNL     1      43.498 -17.511   5.294  1.00  0.00     0.001 A 
HETATM   22  C   UNL     1      43.853 -17.432   6.632  1.00  0.00     0.002 A 
HETATM   23  C   UNL     1      43.944 -16.184   7.255  1.00  0.00     0.030 A 
BRANCH  19  24
HETATM   24  C   UNL     1      43.228 -13.945   4.242  1.00  0.00     0.254 C 
HETATM   25  N   UNL     1      42.034 -13.263   4.145  1.00  0.00    -0.352 N 
HETATM   26  H   UNL     1      42.080 -12.504   3.473  1.00  0.00     0.163 HD
HETATM   27  O   UNL     1      44.219 -13.538   3.637  1.00  0.00    -0.268 OA
BRANCH  25  28
HETATM   28  C   UNL     1      40.809 -13.476   4.838  1.00  0.00     0.084 A 
HETATM   29  C   UNL     1      40.427 -12.740   6.090  1.00  0.00     0.027 A 
HETATM   30  C   UNL     1      39.747 -12.408   4.796  1.00  0.00     0.027 A 
ENDBRANCH  25  28
ENDBRANCH  19  24
ENDBRANCH   2  18
TORSDOF 5
ENDMDL
MODEL 3
REMARK VINA RESULT:      -8.3      1.738      3.463
REMARK  5 active torsions:
REMARK  status: ('A' for Active; 'I' for Inactive)
REMARK    1  A    between atoms: C_5  and  C_6 
REMARK    2  A    between atoms: C_10  and  C_11 
REMARK       I    between atoms: C_11  and  N_12 
REMARK    3  A    between atoms: N_12  and  C_13 
REMARK    4  A    between atoms: C_14  and  C_15 
REMARK       I    between atoms: C_15  and  N_16 
REMARK    5  A    between atoms: N_16  and  C_17 
ROOT
HETATM    1  C   UNL     1      40.661 -15.590   1.208  1.00  0.00     0.274 C 
HETATM    2  N   UNL     1      40.804 -14.869   0.042  1.00  0.00    -0.321 N 
HETATM    3  O   UNL     1      39.719 -15.506   1.983  1.00  0.00    -0.266 OA
HETATM    4  H   UNL     1      41.379 -15.300  -0.667  1.00  0.00     0.169 HD
ENDROOT
BRANCH   1   5
HETATM    5  C   UNL     1      41.758 -16.495   1.451  1.00  0.00     0.120 A 
HETATM    6  N   UNL     1      42.744 -16.713   0.528  1.00  0.00    -0.272 N 
HETATM    7  N   UNL     1      43.597 -17.698   0.862  1.00  0.00    -0.174 NA
HETATM    8  H   UNL     1      42.849 -16.254  -0.371  1.00  0.00     0.189 HD
HETATM    9  C   UNL     1      43.179 -18.111   2.068  1.00  0.00     0.089 A 
HETATM   10  C   UNL     1      42.046 -17.361   2.486  1.00  0.00     0.071 A 
BRANCH   9  11
HETATM   11  C   UNL     1      43.784 -19.236   2.776  1.00  0.00    -0.006 A 
HETATM   12  C   UNL     1      44.192 -19.101   4.110  1.00  0.00     0.014 A 
HETATM   13  C   UNL     1      44.677 -20.204   4.819  1.00  0.00     0.007 A 
HETATM   14  C   UNL     1      44.769 -21.457   4.203  1.00  0.00    -0.062 A 
HETATM   15  C   UNL     1      45.220 -22.654   4.987  1.00  0.00     0.048 C 
HETATM   16  C   UNL     1      44.369 -21.591   2.869  1.00  0.00     0.007 A 
HETATM   17  C   UNL     1      43.891 -20.487   2.157  1.00  0.00     0.014 A 
ENDBRANCH   9  11
ENDBRANCH   1   5
BRANCH   2  18
HETATM   18  C   UNL     1      40.143 -13.682  -0.341  1.00  0.00     0.050 A 
HETATM   19  C   UNL     1      40.569 -12.361  -0.123  1.00  0.00     0.058 A 
HETATM   20  C   UNL     1      39.762 -11.288  -0.555  1.00  0.00     0.019 A 
HETATM   21  C   UNL     1      38.570 -11.513  -1.241  1.00  0.00     0.001 A 
HETATM   22  C   UNL     1      38.171 -12.815  -1.507  1.00  0.00     0.002 A 
HETATM   23  C   UNL     1      38.951 -13.886  -1.064  1.00  0.00     0.030 A 
BRANCH  19  24
HETATM   24  C   UNL     1      41.864 -11.932   0.453  1.00  0.00     0.254 C 
HETATM   25  N   UNL     1      42.045 -11.910   1.819  1.00  0.00    -0.352 N 
HETATM   26  H   UNL     1      42.981 -11.614   2.077  1.00  0.00     0.163 HD
HETATM   27  O   UNL     1      42.816 -11.720  -0.296  1.00  0.00    -0.268 OA
BRANCH  25  28
HETATM   28  C   UNL     1      41.132 -12.238   2.861  1.00  0.00     0.084 A 
HETATM   29  C   UNL     1      41.465 -13.170   3.991  1.00  0.00     0.027 A 
HETATM   30  C   UNL     1      41.373 -11.696   4.246  1.00  0.00     0.027 A 
ENDBRANCH  25  28
ENDBRANCH  19  24
ENDBRANCH   2  18
TORSDOF 5
ENDMDL
MODEL 4
REMARK VINA RESULT:      -8.3      2.685      8.835
REMARK  5 active torsions:
REMARK  status: ('A' for Active; 'I' for Inactive)
REMARK    1  A    between atoms: C_5  and  C_6 
REMARK    2  A    between atoms: C_10  and  C_11 
REMARK       I    between atoms: C_11  and  N_12 
REMARK    3  A    between atoms: N_12  and  C_13 
REMARK    4  A    between atoms: C_14  and  C_15 
REMARK       I    between atoms: C_15  and  N_16 
REMARK    5  A    between atoms: N_16  and  C_17 
ROOT
HETATM    1  C   UNL     1      41.359 -16.761   1.366  1.00  0.00     0.274 C 
HETATM    2  N   UNL     1      42.622 -16.826   1.914  1.00  0.00    -0.321 N 
HETATM    3  O   UNL     1      40.382 -17.382   1.759  1.00  0.00    -0.266 OA
HETATM    4  H   UNL     1      43.199 -16.011   1.771  1.00  0.00     0.169 HD
ENDROOT
BRANCH   1   5
HETATM    5  C   UNL     1      41.277 -15.859   0.243  1.00  0.00     0.120 A 
HETATM    6  N   UNL     1      40.819 -16.257  -0.983  1.00  0.00    -0.272 N 
HETATM    7  N   UNL     1      40.955 -15.328  -1.946  1.00  0.00    -0.174 NA
HETATM    8  H   UNL     1      40.453 -17.172  -1.228  1.00  0.00     0.189 HD
HETATM    9  C   UNL     1      41.484 -14.268  -1.318  1.00  0.00     0.089 A 
HETATM   10  C   UNL     1      41.673 -14.549   0.062  1.00  0.00     0.071 A 
BRANCH   9  11
HETATM   11  C   UNL     1      41.872 -13.044  -2.015  1.00  0.00    -0.006 A 
HETATM   12  C   UNL     1      41.548 -12.861  -3.367  1.00  0.00     0.014 A 
HETATM   13  C   UNL     1      41.829 -11.650  -4.006  1.00  0.00     0.007 A 
HETATM   14  C   UNL     1      42.445 -10.607  -3.307  1.00  0.00    -0.062 A 
HETATM   15  C   UNL     1      42.679  -9.284  -3.974  1.00  0.00     0.048 C 
HETATM   16  C   UNL     1      42.777 -10.791  -1.960  1.00  0.00     0.007 A 
HETATM   17  C   UNL     1      42.502 -12.004  -1.322  1.00  0.00     0.014 A 
ENDBRANCH   9  11
ENDBRANCH   1   5
BRANCH   2  18
HETATM   18  C   UNL     1      43.158 -17.819   2.763  1.00  0.00     0.050 A 
HETATM   19  C   UNL     1      42.929 -17.978   4.140  1.00  0.00     0.058 A 
HETATM   20  C   UNL     1      43.574 -19.019   4.839  1.00  0.00     0.019 A 
HETATM   21  C   UNL     1      44.399 -19.928   4.178  1.00  0.00     0.001 A 
HETATM   22  C   UNL     1      44.588 -19.808   2.809  1.00  0.00     0.002 A 
HETATM   23  C   UNL     1      43.971 -18.767   2.110  1.00  0.00     0.030 A 
BRANCH  19  24
HETATM   24  C   UNL     1      41.980 -17.206   4.974  1.00  0.00     0.254 C 
HETATM   25  N   UNL     1      42.374 -16.028   5.571  1.00  0.00    -0.352 N 
HETATM   26  H   UNL     1      41.623 -15.595   6.098  1.00  0.00     0.163 HD
HETATM   27  O   UNL     1      40.801 -17.556   5.025  1.00  0.00    -0.268 OA
BRANCH  25  28
HETATM   28  C   UNL     1      43.638 -15.375   5.539  1.00  0.00     0.084 A 
HETATM   29  C   UNL     1      43.874 -14.000   6.095  1.00  0.00     0.027 A 
HETATM   30  C   UNL     1      44.405 -15.197   6.824  1.00  0.00     0.027 A 
ENDBRANCH  25  28
ENDBRANCH  19  24
ENDBRANCH   2  18
TORSDOF 5
ENDMDL
MODEL 5
REMARK VINA RESULT:      -8.2      2.160      2.542
REMARK  5 active torsions:
REMARK  status: ('A' for Active; 'I' for Inactive)
REMARK    1  A    between atoms: C_5  and  C_6 
REMARK    2  A    between atoms: C_10  and  C_11 
REMARK       I    between atoms: C_11  and  N_12 
REMARK    3  A    between atoms: N_12  and  C_13 
REMARK    4  A    between atoms: C_14  and  C_15 
REMARK       I    between atoms: C_15  and  N_16 
REMARK    5  A    between atoms: N_16  and  C_17 
ROOT
HETATM    1  C   UNL     1      40.621 -14.824   0.193  1.00  0.00     0.274 C 
HETATM    2  N   UNL     1      41.496 -14.770  -0.871  1.00  0.00    -0.321 N 
HETATM    3  O   UNL     1      39.634 -14.118   0.336  1.00  0.00    -0.266 OA
HETATM    4  H   UNL     1      41.999 -15.624  -1.063  1.00  0.00     0.169 HD
ENDROOT
BRANCH   1   5
HETATM    5  C   UNL     1      40.977 -15.828   1.166  1.00  0.00     0.120 A 
HETATM    6  N   UNL     1      40.391 -15.888   2.401  1.00  0.00    -0.272 N 
HETATM    7  N   UNL     1      40.952 -16.788   3.228  1.00  0.00    -0.174 NA
HETATM    8  H   UNL     1      39.640 -15.300   2.748  1.00  0.00     0.189 HD
HETATM    9  C   UNL     1      41.912 -17.368   2.494  1.00  0.00     0.089 A 
HETATM   10  C   UNL     1      41.941 -16.815   1.185  1.00  0.00     0.071 A 
BRANCH   9  11
HETATM   11  C   UNL     1      42.832 -18.366   3.034  1.00  0.00    -0.006 A 
HETATM   12  C   UNL     1      43.149 -18.377   4.400  1.00  0.00     0.014 A 
HETATM   13  C   UNL     1      43.947 -19.392   4.935  1.00  0.00     0.007 A 
HETATM   14  C   UNL     1      44.448 -20.407   4.113  1.00  0.00    -0.062 A 
HETATM   15  C   UNL     1      45.243 -21.535   4.701  1.00  0.00     0.048 C 
HETATM   16  C   UNL     1      44.139 -20.392   2.747  1.00  0.00     0.007 A 
HETATM   17  C   UNL     1      43.347 -19.374   2.210  1.00  0.00     0.014 A 
ENDBRANCH   9  11
ENDBRANCH   1   5
BRANCH   2  18
HETATM   18  C   UNL     1      41.676 -13.726  -1.805  1.00  0.00     0.050 A 
HETATM   19  C   UNL     1      41.043 -13.579  -3.051  1.00  0.00     0.058 A 
HETATM   20  C   UNL     1      41.366 -12.478  -3.871  1.00  0.00     0.019 A 
HETATM   21  C   UNL     1      42.268 -11.504  -3.448  1.00  0.00     0.001 A 
HETATM   22  C   UNL     1      42.857 -11.616  -2.197  1.00  0.00     0.002 A 
HETATM   23  C   UNL     1      42.561 -12.713  -1.384  1.00  0.00     0.030 A 
BRANCH  19  24
HETATM   24  C   UNL     1      39.962 -14.428  -3.599  1.00  0.00     0.254 C 
HETATM   25  N   UNL     1      38.655 -13.990  -3.584  1.00  0.00    -0.352 N 
HETATM   26  H   UNL     1      38.020 -14.660  -4.004  1.00  0.00     0.163 HD
HETATM   27  O   UNL     1      40.253 -15.470  -4.185  1.00  0.00    -0.268 OA
BRANCH  25  28
HETATM   28  C   UNL     1      38.113 -12.774  -3.081  1.00  0.00     0.084 A 
HETATM   29  C   UNL     1      37.866 -11.562  -3.933  1.00  0.00     0.027 A 
HETATM   30  C   UNL     1      36.707 -12.385  -3.458  1.00  0.00     0.027 A 
ENDBRANCH  25  28
ENDBRANCH  19  24
ENDBRANCH   2  18
TORSDOF 5
ENDMDL
MODEL 6
REMARK VINA RESULT:      -8.2      6.374      8.023
REMARK  5 active torsions:
REMARK  status: ('A' for Active; 'I' for Inactive)
REMARK    1  A    between atoms: C_5  and  C_6 
REMARK    2  A    between atoms: C_10  and  C_11 
REMARK       I    between atoms: C_11  and  N_12 
REMARK    3  A    between atoms: N_12  and  C_13 
REMARK    4  A    between atoms: C_14  and  C_15 
REMARK       I    between atoms: C_15  and  N_16 
REMARK    5  A    between atoms: N_16  and  C_17 
ROOT
HETATM    1  C   UNL     1      43.314 -13.754   6.198  1.00  0.00     0.274 C 
HETATM    2  N   UNL     1      42.121 -13.149   6.528  1.00  0.00    -0.321 N 
HETATM    3  O   UNL     1      44.399 -13.195   6.133  1.00  0.00    -0.266 OA
HETATM    4  H   UNL     1      41.420 -13.758   6.924  1.00  0.00     0.169 HD
ENDROOT
BRANCH   1   5
HETATM    5  C   UNL     1      43.176 -15.164   5.926  1.00  0.00     0.120 A 
HETATM    6  N   UNL     1      42.937 -16.079   6.914  1.00  0.00    -0.272 N 
HETATM    7  N   UNL     1      42.990 -17.358   6.499  1.00  0.00    -0.174 NA
HETATM    8  H   UNL     1      42.784 -15.886   7.899  1.00  0.00     0.189 HD
HETATM    9  C   UNL     1      43.231 -17.275   5.183  1.00  0.00     0.089 A 
HETATM   10  C   UNL     1      43.325 -15.916   4.778  1.00  0.00     0.071 A 
BRANCH   9  11
HETATM   11  C   UNL     1      43.444 -18.448   4.340  1.00  0.00    -0.006 A 
HETATM   12  C   UNL     1      42.850 -18.532   3.073  1.00  0.00     0.014 A 
HETATM   13  C   UNL     1      43.135 -19.606   2.225  1.00  0.00     0.007 A 
HETATM   14  C   UNL     1      44.013 -20.617   2.632  1.00  0.00    -0.062 A 
HETATM   15  C   UNL     1      44.374 -21.729   1.693  1.00  0.00     0.048 C 
HETATM   16  C   UNL     1      44.600 -20.538   3.900  1.00  0.00     0.007 A 
HETATM   17  C   UNL     1      44.310 -19.468   4.752  1.00  0.00     0.014 A 
ENDBRANCH   9  11
ENDBRANCH   1   5
BRANCH   2  18
HETATM   18  C   UNL     1      41.804 -11.772   6.516  1.00  0.00     0.050 A 
HETATM   19  C   UNL     1      42.056 -10.831   7.528  1.00  0.00     0.058 A 
HETATM   20  C   UNL     1      41.643  -9.494   7.354  1.00  0.00     0.019 A 
HETATM   21  C   UNL     1      41.032  -9.075   6.173  1.00  0.00     0.001 A 
HETATM   22  C   UNL     1      40.829  -9.989   5.150  1.00  0.00     0.002 A 
HETATM   23  C   UNL     1      41.214 -11.321   5.319  1.00  0.00     0.030 A 
BRANCH  19  24
HETATM   24  C   UNL     1      42.816 -11.058   8.778  1.00  0.00     0.254 C 
HETATM   25  N   UNL     1      42.161 -11.133   9.988  1.00  0.00    -0.352 N 
HETATM   26  H   UNL     1      42.797 -11.307  10.759  1.00  0.00     0.163 HD
HETATM   27  O   UNL     1      44.019 -11.306   8.715  1.00  0.00    -0.268 OA
BRANCH  25  28
HETATM   28  C   UNL     1      40.773 -11.007  10.277  1.00  0.00     0.084 A 
HETATM   29  C   UNL     1      40.194 -11.179  11.653  1.00  0.00     0.027 A 
HETATM   30  C   UNL     1      40.290  -9.809  11.052  1.00  0.00     0.027 A 
ENDBRANCH  25  28
ENDBRANCH  19  24
ENDBRANCH   2  18
TORSDOF 5
ENDMDL
MODEL 7
REMARK VINA RESULT:      -8.1      1.798      2.455
REMARK  5 active torsions:
REMARK  status: ('A' for Active; 'I' for Inactive)
REMARK    1  A    between atoms: C_5  and  C_6 
REMARK    2  A    between atoms: C_10  and  C_11 
REMARK       I    between atoms: C_11  and  N_12 
REMARK    3  A    between atoms: N_12  and  C_13 
REMARK    4  A    between atoms: C_14  and  C_15 
REMARK       I    between atoms: C_15  and  N_16 
REMARK    5  A    between atoms: N_16  and  C_17 
ROOT
HETATM    1  C   UNL     1      41.256 -14.796   0.362  1.00  0.00     0.274 C 
HETATM    2  N   UNL     1      41.741 -14.787  -0.927  1.00  0.00    -0.321 N 
HETATM    3  O   UNL     1      40.316 -14.129   0.771  1.00  0.00    -0.266 OA
HETATM    4  H   UNL     1      42.218 -15.628  -1.217  1.00  0.00     0.169 HD
ENDROOT
BRANCH   1   5
HETATM    5  C   UNL     1      41.975 -15.695   1.231  1.00  0.00     0.120 A 
HETATM    6  N   UNL     1      42.880 -15.251   2.155  1.00  0.00    -0.272 N 
HETATM    7  N   UNL     1      43.564 -16.235   2.767  1.00  0.00    -0.174 NA
HETATM    8  H   UNL     1      43.108 -14.285   2.370  1.00  0.00     0.189 HD
HETATM    9  C   UNL     1      43.059 -17.366   2.254  1.00  0.00     0.089 A 
HETATM   10  C   UNL     1      42.039 -17.072   1.309  1.00  0.00     0.071 A 
BRANCH   9  11
HETATM   11  C   UNL     1      43.575 -18.690   2.589  1.00  0.00    -0.006 A 
HETATM   12  C   UNL     1      44.138 -18.937   3.849  1.00  0.00     0.014 A 
HETATM   13  C   UNL     1      44.539 -20.228   4.206  1.00  0.00     0.007 A 
HETATM   14  C   UNL     1      44.391 -21.290   3.307  1.00  0.00    -0.062 A 
HETATM   15  C   UNL     1      44.753 -22.686   3.719  1.00  0.00     0.048 C 
HETATM   16  C   UNL     1      43.836 -21.043   2.046  1.00  0.00     0.007 A 
HETATM   17  C   UNL     1      43.442 -19.751   1.685  1.00  0.00     0.014 A 
ENDBRANCH   9  11
ENDBRANCH   1   5
BRANCH   2  18
HETATM   18  C   UNL     1      41.537 -13.818  -1.934  1.00  0.00     0.050 A 
HETATM   19  C   UNL     1      40.387 -13.633  -2.719  1.00  0.00     0.058 A 
HETATM   20  C   UNL     1      40.369 -12.623  -3.703  1.00  0.00     0.019 A 
HETATM   21  C   UNL     1      41.456 -11.769  -3.879  1.00  0.00     0.001 A 
HETATM   22  C   UNL     1      42.574 -11.912  -3.071  1.00  0.00     0.002 A 
HETATM   23  C   UNL     1      42.612 -12.923  -2.108  1.00  0.00     0.030 A 
BRANCH  19  24
HETATM   24  C   UNL     1      39.096 -14.343  -2.577  1.00  0.00     0.254 C 
HETATM   25  N   UNL     1      38.103 -13.830  -1.770  1.00  0.00    -0.352 N 
HETATM   26  H   UNL     1      37.268 -14.406  -1.776  1.00  0.00     0.163 HD
HETATM   27  O   UNL     1      38.867 -15.325  -3.283  1.00  0.00    -0.268 OA
BRANCH  25  28
HETATM   28  C   UNL     1      38.102 -12.652  -0.972  1.00  0.00     0.084 A 
HETATM   29  C   UNL     1      36.977 -11.658  -0.964  1.00  0.00     0.027 A 
HETATM   30  C   UNL     1      37.173 -12.567   0.211  1.00  0.00     0.027 A 
ENDBRANCH  25  28
ENDBRANCH  19  24
ENDBRANCH   2  18
TORSDOF 5
ENDMDL
MODEL 8
REMARK VINA RESULT:      -8.1      2.074      2.834
REMARK  5 active torsions:
REMARK  status: ('A' for Active; 'I' for Inactive)
REMARK    1  A    between atoms: C_5  and  C_6 
REMARK    2  A    between atoms: C_10  and  C_11 
REMARK       I    between atoms: C_11  and  N_12 
REMARK    3  A    between atoms: N_12  and  C_13 
REMARK    4  A    between atoms: C_14  and  C_15 
REMARK       I    between atoms: C_15  and  N_16 
REMARK    5  A    between atoms: N_16  and  C_17 
ROOT
HETATM    1  C   UNL     1      41.179 -15.145  -0.836  1.00  0.00     0.274 C 
HETATM    2  N   UNL     1      42.009 -14.055  -0.686  1.00  0.00    -0.321 N 
HETATM    3  O   UNL     1      40.354 -15.290  -1.726  1.00  0.00    -0.266 OA
HETATM    4  H   UNL     1      42.870 -14.230  -0.189  1.00  0.00     0.169 HD
ENDROOT
BRANCH   1   5
HETATM    5  C   UNL     1      41.373 -16.147   0.183  1.00  0.00     0.120 A 
HETATM    6  N   UNL     1      40.455 -16.369   1.173  1.00  0.00    -0.272 N 
HETATM    7  N   UNL     1      40.869 -17.230   2.120  1.00  0.00    -0.174 NA
HETATM    8  H   UNL     1      39.551 -15.918   1.278  1.00  0.00     0.189 HD
HETATM    9  C   UNL     1      42.087 -17.618   1.712  1.00  0.00     0.089 A 
HETATM   10  C   UNL     1      42.427 -16.984   0.486  1.00  0.00     0.071 A 
BRANCH   9  11
HETATM   11  C   UNL     1      42.941 -18.505   2.496  1.00  0.00    -0.006 A 
HETATM   12  C   UNL     1      43.154 -18.267   3.861  1.00  0.00     0.014 A 
HETATM   13  C   UNL     1      43.888 -19.171   4.634  1.00  0.00     0.007 A 
HETATM   14  C   UNL     1      44.427 -20.324   4.053  1.00  0.00    -0.062 A 
HETATM   15  C   UNL     1      45.151 -21.330   4.899  1.00  0.00     0.048 C 
HETATM   16  C   UNL     1      44.222 -20.560   2.689  1.00  0.00     0.007 A 
HETATM   17  C   UNL     1      43.495 -19.652   1.914  1.00  0.00     0.014 A 
ENDBRANCH   9  11
ENDBRANCH   1   5
BRANCH   2  18
HETATM   18  C   UNL     1      41.877 -12.768  -1.253  1.00  0.00     0.050 A 
HETATM   19  C   UNL     1      41.255 -11.645  -0.682  1.00  0.00     0.058 A 
HETATM   20  C   UNL     1      41.194 -10.438  -1.409  1.00  0.00     0.019 A 
HETATM   21  C   UNL     1      41.784 -10.322  -2.666  1.00  0.00     0.001 A 
HETATM   22  C   UNL     1      42.446 -11.412  -3.212  1.00  0.00     0.002 A 
HETATM   23  C   UNL     1      42.494 -12.620  -2.511  1.00  0.00     0.030 A 
BRANCH  19  24
HETATM   24  C   UNL     1      40.706 -11.538   0.689  1.00  0.00     0.254 C 
HETATM   25  N   UNL     1      39.466 -12.062   0.985  1.00  0.00    -0.352 N 
HETATM   26  H   UNL     1      39.220 -11.934   1.962  1.00  0.00     0.163 HD
HETATM   27  O   UNL     1      41.418 -11.095   1.589  1.00  0.00    -0.268 OA
BRANCH  25  28
HETATM   28  C   UNL     1      38.536 -12.727   0.138  1.00  0.00     0.084 A 
HETATM   29  C   UNL     1      37.727 -13.916   0.570  1.00  0.00     0.027 A 
HETATM   30  C   UNL     1      37.061 -12.582   0.409  1.00  0.00     0.027 A 
ENDBRANCH  25  28
ENDBRANCH  19  24
ENDBRANCH   2  18
TORSDOF 5
ENDMDL
MODEL 9
REMARK VINA RESULT:      -8.0      8.065     10.365
REMARK  5 active torsions:
REMARK  status: ('A' for Active; 'I' for Inactive)
REMARK    1  A    between atoms: C_5  and  C_6 
REMARK    2  A    between atoms: C_10  and  C_11 
REMARK       I    between atoms: C_11  and  N_12 
REMARK    3  A    between atoms: N_12  and  C_13 
REMARK    4  A    between atoms: C_14  and  C_15 
REMARK       I    between atoms: C_15  and  N_16 
REMARK    5  A    between atoms: N_16  and  C_17 
ROOT
HETATM    1  C   UNL     1      44.797 -13.680   7.185  1.00  0.00     0.274 C 
HETATM    2  N   UNL     1      43.768 -14.589   7.304  1.00  0.00    -0.321 N 
HETATM    3  O   UNL     1      45.658 -13.693   6.317  1.00  0.00    -0.266 OA
HETATM    4  H   UNL     1      42.945 -14.252   7.781  1.00  0.00     0.169 HD
ENDROOT
BRANCH   1   5
HETATM    5  C   UNL     1      44.776 -12.666   8.211  1.00  0.00     0.120 A 
HETATM    6  N   UNL     1      45.887 -12.341   8.940  1.00  0.00    -0.272 N 
HETATM    7  N   UNL     1      45.647 -11.486   9.951  1.00  0.00    -0.174 NA
HETATM    8  H   UNL     1      46.824 -12.715   8.822  1.00  0.00     0.189 HD
HETATM    9  C   UNL     1      44.338 -11.210   9.854  1.00  0.00     0.089 A 
HETATM   10  C   UNL     1      43.762 -11.906   8.757  1.00  0.00     0.071 A 
BRANCH   9  11
HETATM   11  C   UNL     1      43.631 -10.370  10.816  1.00  0.00    -0.006 A 
HETATM   12  C   UNL     1      42.499  -9.639  10.428  1.00  0.00     0.014 A 
HETATM   13  C   UNL     1      41.763  -8.917  11.371  1.00  0.00     0.007 A 
HETATM   14  C   UNL     1      42.150  -8.906  12.715  1.00  0.00    -0.062 A 
HETATM   15  C   UNL     1      41.317  -8.190  13.737  1.00  0.00     0.048 C 
HETATM   16  C   UNL     1      43.285  -9.628  13.103  1.00  0.00     0.007 A 
HETATM   17  C   UNL     1      44.026 -10.345  12.159  1.00  0.00     0.014 A 
ENDBRANCH   9  11
ENDBRANCH   1   5
BRANCH   2  18
HETATM   18  C   UNL     1      43.661 -15.873   6.726  1.00  0.00     0.050 A 
HETATM   19  C   UNL     1      42.590 -16.383   5.973  1.00  0.00     0.058 A 
HETATM   20  C   UNL     1      42.644 -17.707   5.492  1.00  0.00     0.019 A 
HETATM   21  C   UNL     1      43.765 -18.508   5.708  1.00  0.00     0.001 A 
HETATM   22  C   UNL     1      44.848 -17.992   6.406  1.00  0.00     0.002 A 
HETATM   23  C   UNL     1      44.796 -16.688   6.906  1.00  0.00     0.030 A 
BRANCH  19  24
HETATM   24  C   UNL     1      41.392 -15.639   5.524  1.00  0.00     0.254 C 
HETATM   25  N   UNL     1      41.403 -14.956   4.327  1.00  0.00    -0.352 N 
HETATM   26  H   UNL     1      40.515 -14.506   4.134  1.00  0.00     0.163 HD
HETATM   27  O   UNL     1      40.345 -15.741   6.163  1.00  0.00    -0.268 OA
BRANCH  25  28
HETATM   28  C   UNL     1      42.451 -14.813   3.375  1.00  0.00     0.084 A 
HETATM   29  C   UNL     1      42.531 -13.677   2.396  1.00  0.00     0.027 A 
HETATM   30  C   UNL     1      43.471 -13.719   3.563  1.00  0.00     0.027 A 
ENDBRANCH  25  28
ENDBRANCH  19  24
ENDBRANCH   2  18
TORSDOF 5
ENDMDL
MODEL 10
REMARK VINA RESULT:      -8.0      1.602      2.070
REMARK  5 active torsions:
REMARK  status: ('A' for Active; 'I' for Inactive)
REMARK    1  A    between atoms: C_5  and  C_6 
REMARK    2  A    between atoms: C_10  and  C_11 
REMARK       I    between atoms: C_11  and  N_12 
REMARK    3  A    between atoms: N_12  and  C_13 
REMARK    4  A    between atoms: C_14  and  C_15 
REMARK       I    between atoms: C_15  and  N_16 
REMARK    5  A    between atoms: N_16  and  C_17 
ROOT
HETATM    1  C   UNL     1      41.462 -13.549   0.974  1.00  0.00     0.274 C 
HETATM    2  N   UNL     1      41.812 -13.576  -0.359  1.00  0.00    -0.321 N 
HETATM    3  O   UNL     1      40.743 -12.713   1.502  1.00  0.00    -0.266 OA
HETATM    4  H   UNL     1      42.054 -14.485  -0.726  1.00  0.00     0.169 HD
ENDROOT
BRANCH   1   5
HETATM    5  C   UNL     1      42.036 -14.635   1.730  1.00  0.00     0.120 A 
HETATM    6  N   UNL     1      42.939 -14.428   2.737  1.00  0.00    -0.272 N 
HETATM    7  N   UNL     1      43.480 -15.558   3.227  1.00  0.00    -0.174 NA
HETATM    8  H   UNL     1      43.261 -13.533   3.092  1.00  0.00     0.189 HD
HETATM    9  C   UNL     1      42.878 -16.543   2.545  1.00  0.00     0.089 A 
HETATM   10  C   UNL     1      41.943 -16.008   1.617  1.00  0.00     0.071 A 
BRANCH   9  11
HETATM   11  C   UNL     1      43.228 -17.951   2.708  1.00  0.00    -0.006 A 
HETATM   12  C   UNL     1      42.844 -18.897   1.746  1.00  0.00     0.014 A 
HETATM   13  C   UNL     1      43.266 -20.225   1.850  1.00  0.00     0.007 A 
HETATM   14  C   UNL     1      44.072 -20.632   2.919  1.00  0.00    -0.062 A 
HETATM   15  C   UNL     1      44.584 -22.040   2.988  1.00  0.00     0.048 C 
HETATM   16  C   UNL     1      44.449 -19.691   3.884  1.00  0.00     0.007 A 
HETATM   17  C   UNL     1      44.022 -18.363   3.785  1.00  0.00     0.014 A 
ENDBRANCH   9  11
ENDBRANCH   1   5
BRANCH   2  18
HETATM   18  C   UNL     1      41.741 -12.530  -1.305  1.00  0.00     0.050 A 
HETATM   19  C   UNL     1      40.638 -12.171  -2.098  1.00  0.00     0.058 A 
HETATM   20  C   UNL     1      40.755 -11.107  -3.015  1.00  0.00     0.019 A 
HETATM   21  C   UNL     1      41.933 -10.369  -3.116  1.00  0.00     0.001 A 
HETATM   22  C   UNL     1      43.009 -10.684  -2.299  1.00  0.00     0.002 A 
HETATM   23  C   UNL     1      42.911 -11.751  -1.401  1.00  0.00     0.030 A 
BRANCH  19  24
HETATM   24  C   UNL     1      39.273 -12.741  -2.025  1.00  0.00     0.254 C 
HETATM   25  N   UNL     1      38.963 -13.896  -2.709  1.00  0.00    -0.352 N 
HETATM   26  H   UNL     1      38.001 -14.184  -2.559  1.00  0.00     0.163 HD
HETATM   27  O   UNL     1      38.456 -12.249  -1.248  1.00  0.00    -0.268 OA
BRANCH  25  28
HETATM   28  C   UNL     1      39.781 -14.697  -3.554  1.00  0.00     0.084 A 
HETATM   29  C   UNL     1      40.598 -15.856  -3.060  1.00  0.00     0.027 A 
HETATM   30  C   UNL     1      39.358 -16.110  -3.862  1.00  0.00     0.027 A 
ENDBRANCH  25  28
ENDBRANCH  19  24
ENDBRANCH   2  18
TORSDOF 5
ENDMDL
