MODEL 1
REMARK VINA RESULT:      -7.8      0.000      0.000
REMARK  4 active torsions:
REMARK  status: ('A' for Active; 'I' for Inactive)
REMARK    1  A    between atoms: C_2  and  O_3 
REMARK    2  A    between atoms: O_3  and  C_4 
REMARK    3  A    between atoms: C_10  and  N_11 
REMARK       I    between atoms: N_11  and  C_12 
REMARK    4  A    between atoms: C_12  and  C_13 
ROOT
HETATM    1  N   UNL     1      43.261 -18.168   3.411  1.00  0.00    -0.320 N 
HETATM    2  C   UNL     1      43.688 -17.050   2.722  1.00  0.00     0.257 C 
HETATM    3  O   UNL     1      44.367 -17.041   1.703  1.00  0.00    -0.267 OA
HETATM    4  H   UNL     1      42.592 -18.052   4.165  1.00  0.00     0.169 HD
ENDROOT
BRANCH   2   5
HETATM    5  C   UNL     1      43.233 -15.746   3.269  1.00  0.00     0.052 A 
HETATM    6  C   UNL     1      43.246 -14.639   2.418  1.00  0.00     0.136 A 
HETATM    7  N   UNL     1      42.872 -13.379   2.747  1.00  0.00    -0.238 NA
HETATM    8  C   UNL     1      42.489 -13.232   4.034  1.00  0.00     0.177 A 
HETATM    9  C   UNL     1      42.468 -14.279   4.948  1.00  0.00     0.083 A 
HETATM   10  N   UNL     1      42.084 -12.063   4.610  1.00  0.00    -0.214 NA
HETATM   11  N   UNL     1      42.050 -13.693   6.115  1.00  0.00    -0.342 N 
HETATM   12  C   UNL     1      42.839 -15.580   4.602  1.00  0.00     0.052 A 
HETATM   13  H   UNL     1      41.930 -14.153   7.006  1.00  0.00     0.167 HD
HETATM   14  C   UNL     1      41.827 -12.360   5.867  1.00  0.00     0.103 A 
HETATM   15  C   UNL     1      41.373 -11.419   6.918  1.00  0.00     0.091 C 
ENDBRANCH   2   5
BRANCH   1  16
HETATM   16  C   UNL     1      43.603 -19.517   3.158  1.00  0.00     0.070 A 
HETATM   17  C   UNL     1      44.303 -20.211   4.163  1.00  0.00     0.117 A 
HETATM   18  C   UNL     1      44.747 -21.523   3.943  1.00  0.00     0.069 A 
HETATM   19 CL   UNL     1      45.685 -22.375   5.117  1.00  0.00    -0.081 Cl
HETATM   20  C   UNL     1      44.443 -22.171   2.746  1.00  0.00     0.027 A 
HETATM   21  C   UNL     1      43.717 -21.501   1.763  1.00  0.00     0.004 A 
HETATM   22  C   UNL     1      43.305 -20.180   1.964  1.00  0.00     0.032 A 
BRANCH  17  23
HETATM   23  O   UNL     1      44.594 -19.547   5.334  1.00  0.00    -0.347 OA
BRANCH  23  24
HETATM   24  C   UNL     1      43.652 -19.898   6.361  1.00  0.00     0.171 C 
HETATM   25  C   UNL     1      43.625 -18.773   7.380  1.00  0.00     0.034 C 
ENDBRANCH  23  24
ENDBRANCH  17  23
ENDBRANCH   1  16
TORSDOF 4
ENDMDL
MODEL 2
REMARK VINA RESULT:      -7.5      2.796      4.737
REMARK  4 active torsions:
REMARK  status: ('A' for Active; 'I' for Inactive)
REMARK    1  A    between atoms: C_2  and  O_3 
REMARK    2  A    between atoms: O_3  and  C_4 
REMARK    3  A    between atoms: C_10  and  N_11 
REMARK       I    between atoms: N_11  and  C_12 
REMARK    4  A    between atoms: C_12  and  C_13 
ROOT
HETATM    1  N   UNL     1      43.204 -17.774   3.534  1.00  0.00    -0.320 N 
HETATM    2  C   UNL     1      41.958 -17.236   3.282  1.00  0.00     0.257 C 
HETATM    3  O   UNL     1      40.952 -17.382   3.966  1.00  0.00    -0.267 OA
HETATM    4  H   UNL     1      43.991 -17.473   2.970  1.00  0.00     0.169 HD
ENDROOT
BRANCH   2   5
HETATM    5  C   UNL     1      41.866 -16.364   2.083  1.00  0.00     0.052 A 
HETATM    6  C   UNL     1      42.145 -15.005   2.238  1.00  0.00     0.136 A 
HETATM    7  N   UNL     1      42.106 -14.069   1.259  1.00  0.00    -0.238 NA
HETATM    8  C   UNL     1      41.728 -14.544   0.052  1.00  0.00     0.177 A 
HETATM    9  C   UNL     1      41.413 -15.877  -0.179  1.00  0.00     0.083 A 
HETATM   10  N   UNL     1      41.597 -13.800  -1.085  1.00  0.00    -0.214 NA
HETATM   11  N   UNL     1      41.065 -15.912  -1.504  1.00  0.00    -0.342 N 
HETATM   12  C   UNL     1      41.471 -16.843   0.828  1.00  0.00     0.052 A 
HETATM   13  H   UNL     1      40.762 -16.725  -2.023  1.00  0.00     0.167 HD
HETATM   14  C   UNL     1      41.193 -14.642  -2.013  1.00  0.00     0.103 A 
HETATM   15  C   UNL     1      40.885 -14.314  -3.425  1.00  0.00     0.091 C 
ENDBRANCH   2   5
BRANCH   1  16
HETATM   16  C   UNL     1      43.556 -18.689   4.555  1.00  0.00     0.070 A 
HETATM   17  C   UNL     1      44.265 -19.845   4.178  1.00  0.00     0.117 A 
HETATM   18  C   UNL     1      44.569 -20.833   5.126  1.00  0.00     0.069 A 
HETATM   19 CL   UNL     1      45.358 -22.305   4.685  1.00  0.00    -0.081 Cl
HETATM   20  C   UNL     1      44.223 -20.646   6.464  1.00  0.00     0.027 A 
HETATM   21  C   UNL     1      43.554 -19.485   6.849  1.00  0.00     0.004 A 
HETATM   22  C   UNL     1      43.216 -18.515   5.899  1.00  0.00     0.032 A 
BRANCH  17  23
HETATM   23  O   UNL     1      44.591 -20.007   2.850  1.00  0.00    -0.347 OA
BRANCH  23  24
HETATM   24  C   UNL     1      43.498 -20.597   2.128  1.00  0.00     0.171 C 
HETATM   25  C   UNL     1      43.985 -21.895   1.511  1.00  0.00     0.034 C 
ENDBRANCH  23  24
ENDBRANCH  17  23
ENDBRANCH   1  16
TORSDOF 4
ENDMDL
MODEL 3
REMARK VINA RESULT:      -7.2      4.404      6.206
REMARK  4 active torsions:
REMARK  status: ('A' for Active; 'I' for Inactive)
REMARK    1  A    between atoms: C_2  and  O_3 
REMARK    2  A    between atoms: O_3  and  C_4 
REMARK    3  A    between atoms: C_10  and  N_11 
REMARK       I    between atoms: N_11  and  C_12 
REMARK    4  A    between atoms: C_12  and  C_13 
ROOT
HETATM    1  N   UNL     1      44.163 -14.806   7.384  1.00  0.00    -0.320 N 
HETATM    2  C   UNL     1      45.085 -13.778   7.415  1.00  0.00     0.257 C 
HETATM    3  O   UNL     1      45.995 -13.595   6.616  1.00  0.00    -0.267 OA
HETATM    4  H   UNL     1      43.376 -14.777   8.022  1.00  0.00     0.169 HD
ENDROOT
BRANCH   2   5
HETATM    5  C   UNL     1      44.909 -12.790   8.510  1.00  0.00     0.052 A 
HETATM    6  C   UNL     1      45.810 -11.726   8.583  1.00  0.00     0.136 A 
HETATM    7  N   UNL     1      45.802 -10.741   9.513  1.00  0.00    -0.238 NA
HETATM    8  C   UNL     1      44.833 -10.865  10.445  1.00  0.00     0.177 A 
HETATM    9  C   UNL     1      43.912 -11.906  10.454  1.00  0.00     0.083 A 
HETATM   10  N   UNL     1      44.627 -10.013  11.491  1.00  0.00    -0.214 NA
HETATM   11  N   UNL     1      43.146 -11.662  11.565  1.00  0.00    -0.342 N 
HETATM   12  C   UNL     1      43.912 -12.911   9.485  1.00  0.00     0.052 A 
HETATM   13  H   UNL     1      42.377 -12.227  11.898  1.00  0.00     0.167 HD
HETATM   14  C   UNL     1      43.607 -10.512  12.158  1.00  0.00     0.103 A 
HETATM   15  C   UNL     1      43.010  -9.958  13.396  1.00  0.00     0.091 C 
ENDBRANCH   2   5
BRANCH   1  16
HETATM   16  C   UNL     1      44.139 -15.914   6.504  1.00  0.00     0.070 A 
HETATM   17  C   UNL     1      43.388 -15.789   5.321  1.00  0.00     0.117 A 
HETATM   18  C   UNL     1      43.251 -16.878   4.446  1.00  0.00     0.069 A 
HETATM   19 CL   UNL     1      42.266 -16.791   3.031  1.00  0.00    -0.081 Cl
HETATM   20  C   UNL     1      43.913 -18.075   4.717  1.00  0.00     0.027 A 
HETATM   21  C   UNL     1      44.690 -18.192   5.868  1.00  0.00     0.004 A 
HETATM   22  C   UNL     1      44.797 -17.120   6.761  1.00  0.00     0.032 A 
BRANCH  17  23
HETATM   23  O   UNL     1      42.741 -14.597   5.079  1.00  0.00    -0.347 OA
BRANCH  23  24
HETATM   24  C   UNL     1      43.444 -13.832   4.087  1.00  0.00     0.171 C 
HETATM   25  C   UNL     1      42.422 -13.052   3.282  1.00  0.00     0.034 C 
ENDBRANCH  23  24
ENDBRANCH  17  23
ENDBRANCH   1  16
TORSDOF 4
ENDMDL
MODEL 4
REMARK VINA RESULT:      -7.2      1.738      2.111
REMARK  4 active torsions:
REMARK  status: ('A' for Active; 'I' for Inactive)
REMARK    1  A    between atoms: C_2  and  O_3 
REMARK    2  A    between atoms: O_3  and  C_4 
REMARK    3  A    between atoms: C_10  and  N_11 
REMARK       I    between atoms: N_11  and  C_12 
REMARK    4  A    between atoms: C_12  and  C_13 
ROOT
HETATM    1  N   UNL     1      42.189 -17.282   3.827  1.00  0.00    -0.320 N 
HETATM    2  C   UNL     1      42.574 -15.963   3.688  1.00  0.00     0.257 C 
HETATM    3  O   UNL     1      43.536 -15.551   3.051  1.00  0.00    -0.267 OA
HETATM    4  H   UNL     1      41.299 -17.488   4.268  1.00  0.00     0.169 HD
ENDROOT
BRANCH   2   5
HETATM    5  C   UNL     1      41.698 -14.964   4.352  1.00  0.00     0.052 A 
HETATM    6  C   UNL     1      40.369 -14.878   3.932  1.00  0.00     0.136 A 
HETATM    7  N   UNL     1      39.435 -14.026   4.421  1.00  0.00    -0.238 NA
HETATM    8  C   UNL     1      39.893 -13.189   5.376  1.00  0.00     0.177 A 
HETATM    9  C   UNL     1      41.206 -13.198   5.833  1.00  0.00     0.083 A 
HETATM   10  N   UNL     1      39.155 -12.232   6.010  1.00  0.00    -0.214 NA
HETATM   11  N   UNL     1      41.241 -12.190   6.762  1.00  0.00    -0.342 N 
HETATM   12  C   UNL     1      42.162 -14.088   5.340  1.00  0.00     0.052 A 
HETATM   13  H   UNL     1      42.047 -11.896   7.296  1.00  0.00     0.167 HD
HETATM   14  C   UNL     1      39.986 -11.637   6.841  1.00  0.00     0.103 A 
HETATM   15  C   UNL     1      39.667 -10.507   7.746  1.00  0.00     0.091 C 
ENDBRANCH   2   5
BRANCH   1  16
HETATM   16  C   UNL     1      42.873 -18.431   3.366  1.00  0.00     0.070 A 
HETATM   17  C   UNL     1      43.565 -19.202   4.319  1.00  0.00     0.117 A 
HETATM   18  C   UNL     1      44.335 -20.305   3.918  1.00  0.00     0.069 A 
HETATM   19 CL   UNL     1      45.268 -21.221   5.045  1.00  0.00    -0.081 Cl
HETATM   20  C   UNL     1      44.368 -20.680   2.575  1.00  0.00     0.027 A 
HETATM   21  C   UNL     1      43.654 -19.941   1.633  1.00  0.00     0.004 A 
HETATM   22  C   UNL     1      42.917 -18.819   2.025  1.00  0.00     0.032 A 
BRANCH  17  23
HETATM   23  O   UNL     1      43.518 -18.808   5.638  1.00  0.00    -0.347 OA
BRANCH  23  24
HETATM   24  C   UNL     1      44.719 -18.107   5.999  1.00  0.00     0.171 C 
HETATM   25  C   UNL     1      44.325 -16.869   6.782  1.00  0.00     0.034 C 
ENDBRANCH  23  24
ENDBRANCH  17  23
ENDBRANCH   1  16
TORSDOF 4
ENDMDL
MODEL 5
REMARK VINA RESULT:      -7.2      4.044      7.300
REMARK  4 active torsions:
REMARK  status: ('A' for Active; 'I' for Inactive)
REMARK    1  A    between atoms: C_2  and  O_3 
REMARK    2  A    between atoms: O_3  and  C_4 
REMARK    3  A    between atoms: C_10  and  N_11 
REMARK       I    between atoms: N_11  and  C_12 
REMARK    4  A    between atoms: C_12  and  C_13 
ROOT
HETATM    1  N   UNL     1      41.464 -16.331   1.696  1.00  0.00    -0.320 N 
HETATM    2  C   UNL     1      42.578 -16.042   2.459  1.00  0.00     0.257 C 
HETATM    3  O   UNL     1      43.145 -14.958   2.534  1.00  0.00    -0.267 OA
HETATM    4  H   UNL     1      41.006 -17.227   1.819  1.00  0.00     0.169 HD
ENDROOT
BRANCH   2   5
HETATM    5  C   UNL     1      43.095 -17.159   3.290  1.00  0.00     0.052 A 
HETATM    6  C   UNL     1      43.293 -16.924   4.653  1.00  0.00     0.136 A 
HETATM    7  N   UNL     1      43.760 -17.822   5.554  1.00  0.00    -0.238 NA
HETATM    8  C   UNL     1      44.074 -19.025   5.027  1.00  0.00     0.177 A 
HETATM    9  C   UNL     1      43.926 -19.330   3.679  1.00  0.00     0.083 A 
HETATM   10  N   UNL     1      44.576 -20.086   5.723  1.00  0.00    -0.214 NA
HETATM   11  N   UNL     1      44.379 -20.620   3.580  1.00  0.00    -0.342 N 
HETATM   12  C   UNL     1      43.429 -18.409   2.756  1.00  0.00     0.052 A 
HETATM   13  H   UNL     1      44.432 -21.172   2.735  1.00  0.00     0.167 HD
HETATM   14  C   UNL     1      44.757 -21.039   4.832  1.00  0.00     0.103 A 
HETATM   15  C   UNL     1      45.307 -22.391   5.089  1.00  0.00     0.091 C 
ENDBRANCH   2   5
BRANCH   1  16
HETATM   16  C   UNL     1      40.815 -15.485   0.766  1.00  0.00     0.070 A 
HETATM   17  C   UNL     1      39.671 -14.792   1.204  1.00  0.00     0.117 A 
HETATM   18  C   UNL     1      38.930 -14.004   0.311  1.00  0.00     0.069 A 
HETATM   19 CL   UNL     1      37.473 -13.211   0.789  1.00  0.00    -0.081 Cl
HETATM   20  C   UNL     1      39.361 -13.855  -1.008  1.00  0.00     0.027 A 
HETATM   21  C   UNL     1      40.514 -14.509  -1.437  1.00  0.00     0.004 A 
HETATM   22  C   UNL     1      41.233 -15.325  -0.557  1.00  0.00     0.032 A 
BRANCH  17  23
HETATM   23  O   UNL     1      39.265 -14.960   2.510  1.00  0.00    -0.347 OA
BRANCH  23  24
HETATM   24  C   UNL     1      39.720 -13.867   3.325  1.00  0.00     0.171 C 
HETATM   25  C   UNL     1      40.093 -14.420   4.688  1.00  0.00     0.034 C 
ENDBRANCH  23  24
ENDBRANCH  17  23
ENDBRANCH   1  16
TORSDOF 4
ENDMDL
MODEL 6
REMARK VINA RESULT:      -7.1      3.301      4.924
REMARK  4 active torsions:
REMARK  status: ('A' for Active; 'I' for Inactive)
REMARK    1  A    between atoms: C_2  and  O_3 
REMARK    2  A    between atoms: O_3  and  C_4 
REMARK    3  A    between atoms: C_10  and  N_11 
REMARK       I    between atoms: N_11  and  C_12 
REMARK    4  A    between atoms: C_12  and  C_13 
ROOT
HETATM    1  N   UNL     1      42.258 -16.671   3.806  1.00  0.00    -0.320 N 
HETATM    2  C   UNL     1      42.574 -15.832   2.757  1.00  0.00     0.257 C 
HETATM    3  O   UNL     1      43.700 -15.515   2.393  1.00  0.00    -0.267 OA
HETATM    4  H   UNL     1      41.294 -16.964   3.927  1.00  0.00     0.169 HD
ENDROOT
BRANCH   2   5
HETATM    5  C   UNL     1      41.418 -15.308   1.983  1.00  0.00     0.052 A 
HETATM    6  C   UNL     1      40.263 -14.961   2.686  1.00  0.00     0.136 A 
HETATM    7  N   UNL     1      39.120 -14.475   2.145  1.00  0.00    -0.238 NA
HETATM    8  C   UNL     1      39.145 -14.365   0.800  1.00  0.00     0.177 A 
HETATM    9  C   UNL     1      40.248 -14.709   0.027  1.00  0.00     0.083 A 
HETATM   10  N   UNL     1      38.116 -13.918   0.023  1.00  0.00    -0.214 NA
HETATM   11  N   UNL     1      39.839 -14.470  -1.260  1.00  0.00    -0.342 N 
HETATM   12  C   UNL     1      41.431 -15.194   0.588  1.00  0.00     0.052 A 
HETATM   13  H   UNL     1      40.382 -14.622  -2.099  1.00  0.00     0.167 HD
HETATM   14  C   UNL     1      38.552 -13.992  -1.218  1.00  0.00     0.103 A 
HETATM   15  C   UNL     1      37.792 -13.637  -2.440  1.00  0.00     0.091 C 
ENDBRANCH   2   5
BRANCH   1  16
HETATM   16  C   UNL     1      43.147 -17.246   4.745  1.00  0.00     0.070 A 
HETATM   17  C   UNL     1      43.476 -18.605   4.581  1.00  0.00     0.117 A 
HETATM   18  C   UNL     1      44.284 -19.260   5.523  1.00  0.00     0.069 A 
HETATM   19 CL   UNL     1      44.636 -20.946   5.404  1.00  0.00    -0.081 Cl
HETATM   20  C   UNL     1      44.815 -18.549   6.599  1.00  0.00     0.027 A 
HETATM   21  C   UNL     1      44.522 -17.194   6.745  1.00  0.00     0.004 A 
HETATM   22  C   UNL     1      43.687 -16.548   5.827  1.00  0.00     0.032 A 
BRANCH  17  23
HETATM   23  O   UNL     1      42.935 -19.285   3.512  1.00  0.00    -0.347 OA
BRANCH  23  24
HETATM   24  C   UNL     1      43.918 -19.471   2.481  1.00  0.00     0.171 C 
HETATM   25  C   UNL     1      43.708 -20.845   1.873  1.00  0.00     0.034 C 
ENDBRANCH  23  24
ENDBRANCH  17  23
ENDBRANCH   1  16
TORSDOF 4
ENDMDL
MODEL 7
REMARK VINA RESULT:      -7.1      3.031      4.283
REMARK  4 active torsions:
REMARK  status: ('A' for Active; 'I' for Inactive)
REMARK    1  A    between atoms: C_2  and  O_3 
REMARK    2  A    between atoms: O_3  and  C_4 
REMARK    3  A    between atoms: C_10  and  N_11 
REMARK       I    between atoms: N_11  and  C_12 
REMARK    4  A    between atoms: C_12  and  C_13 
ROOT
HETATM    1  N   UNL     1      42.701 -17.889   2.648  1.00  0.00    -0.320 N 
HETATM    2  C   UNL     1      43.286 -17.025   1.743  1.00  0.00     0.257 C 
HETATM    3  O   UNL     1      44.458 -17.031   1.387  1.00  0.00    -0.267 OA
HETATM    4  H   UNL     1      41.694 -17.871   2.761  1.00  0.00     0.169 HD
ENDROOT
BRANCH   2   5
HETATM    5  C   UNL     1      42.375 -16.027   1.127  1.00  0.00     0.052 A 
HETATM    6  C   UNL     1      42.218 -14.798   1.770  1.00  0.00     0.136 A 
HETATM    7  N   UNL     1      41.429 -13.778   1.354  1.00  0.00    -0.238 NA
HETATM    8  C   UNL     1      40.731 -14.040   0.228  1.00  0.00     0.177 A 
HETATM    9  C   UNL     1      40.815 -15.246  -0.458  1.00  0.00     0.083 A 
HETATM   10  N   UNL     1      39.858 -13.184  -0.379  1.00  0.00    -0.214 NA
HETATM   11  N   UNL     1      39.939 -15.095  -1.503  1.00  0.00    -0.342 N 
HETATM   12  C   UNL     1      41.642 -16.289  -0.037  1.00  0.00     0.052 A 
HETATM   13  H   UNL     1      39.728 -15.784  -2.211  1.00  0.00     0.167 HD
HETATM   14  C   UNL     1      39.388 -13.839  -1.420  1.00  0.00     0.103 A 
HETATM   15  C   UNL     1      38.385 -13.343  -2.392  1.00  0.00     0.091 C 
ENDBRANCH   2   5
BRANCH   1  16
HETATM   16  C   UNL     1      43.342 -18.879   3.430  1.00  0.00     0.070 A 
HETATM   17  C   UNL     1      43.252 -18.761   4.830  1.00  0.00     0.117 A 
HETATM   18  C   UNL     1      43.936 -19.657   5.665  1.00  0.00     0.069 A 
HETATM   19 CL   UNL     1      43.922 -19.491   7.384  1.00  0.00    -0.081 Cl
HETATM   20  C   UNL     1      44.660 -20.712   5.109  1.00  0.00     0.027 A 
HETATM   21  C   UNL     1      44.721 -20.855   3.724  1.00  0.00     0.004 A 
HETATM   22  C   UNL     1      44.072 -19.940   2.889  1.00  0.00     0.032 A 
BRANCH  17  23
HETATM   23  O   UNL     1      42.533 -17.708   5.353  1.00  0.00    -0.347 OA
BRANCH  23  24
HETATM   24  C   UNL     1      43.402 -16.608   5.665  1.00  0.00     0.171 C 
HETATM   25  C   UNL     1      42.624 -15.321   5.464  1.00  0.00     0.034 C 
ENDBRANCH  23  24
ENDBRANCH  17  23
ENDBRANCH   1  16
TORSDOF 4
ENDMDL
MODEL 8
REMARK VINA RESULT:      -6.9      4.801      8.325
REMARK  4 active torsions:
REMARK  status: ('A' for Active; 'I' for Inactive)
REMARK    1  A    between atoms: C_2  and  O_3 
REMARK    2  A    between atoms: O_3  and  C_4 
REMARK    3  A    between atoms: C_10  and  N_11 
REMARK       I    between atoms: N_11  and  C_12 
REMARK    4  A    between atoms: C_12  and  C_13 
ROOT
HETATM    1  N   UNL     1      40.228 -15.696   1.200  1.00  0.00    -0.320 N 
HETATM    2  C   UNL     1      41.147 -15.532   2.218  1.00  0.00     0.257 C 
HETATM    3  O   UNL     1      41.293 -14.532   2.910  1.00  0.00    -0.267 OA
HETATM    4  H   UNL     1      40.112 -16.615   0.788  1.00  0.00     0.169 HD
ENDROOT
BRANCH   2   5
HETATM    5  C   UNL     1      42.000 -16.712   2.509  1.00  0.00     0.052 A 
HETATM    6  C   UNL     1      42.982 -16.584   3.494  1.00  0.00     0.136 A 
HETATM    7  N   UNL     1      43.847 -17.550   3.884  1.00  0.00    -0.238 NA
HETATM    8  C   UNL     1      43.725 -18.711   3.205  1.00  0.00     0.177 A 
HETATM    9  C   UNL     1      42.789 -18.911   2.197  1.00  0.00     0.083 A 
HETATM   10  N   UNL     1      44.489 -19.826   3.400  1.00  0.00    -0.214 NA
HETATM   11  N   UNL     1      43.028 -20.193   1.772  1.00  0.00    -0.342 N 
HETATM   12  C   UNL     1      41.887 -17.919   1.809  1.00  0.00     0.052 A 
HETATM   13  H   UNL     1      42.540 -20.679   1.033  1.00  0.00     0.167 HD
HETATM   14  C   UNL     1      44.056 -20.708   2.524  1.00  0.00     0.103 A 
HETATM   15  C   UNL     1      44.582 -22.079   2.321  1.00  0.00     0.091 C 
ENDBRANCH   2   5
BRANCH   1  16
HETATM   16  C   UNL     1      39.350 -14.722   0.669  1.00  0.00     0.070 A 
HETATM   17  C   UNL     1      39.767 -14.027  -0.482  1.00  0.00     0.117 A 
HETATM   18  C   UNL     1      38.984 -12.990  -1.010  1.00  0.00     0.069 A 
HETATM   19 CL   UNL     1      39.504 -12.056  -2.366  1.00  0.00    -0.081 Cl
HETATM   20  C   UNL     1      37.753 -12.682  -0.430  1.00  0.00     0.027 A 
HETATM   21  C   UNL     1      37.318 -13.393   0.687  1.00  0.00     0.004 A 
HETATM   22  C   UNL     1      38.115 -14.402   1.238  1.00  0.00     0.032 A 
BRANCH  17  23
HETATM   23  O   UNL     1      40.988 -14.348  -1.032  1.00  0.00    -0.347 OA
BRANCH  23  24
HETATM   24  C   UNL     1      40.854 -15.433  -1.964  1.00  0.00     0.171 C 
HETATM   25  C   UNL     1      41.389 -14.971  -3.307  1.00  0.00     0.034 C 
ENDBRANCH  23  24
ENDBRANCH  17  23
ENDBRANCH   1  16
TORSDOF 4
ENDMDL
MODEL 9
REMARK VINA RESULT:      -6.8      2.794      3.655
REMARK  4 active torsions:
REMARK  status: ('A' for Active; 'I' for Inactive)
REMARK    1  A    between atoms: C_2  and  O_3 
REMARK    2  A    between atoms: O_3  and  C_4 
REMARK    3  A    between atoms: C_10  and  N_11 
REMARK       I    between atoms: N_11  and  C_12 
REMARK    4  A    between atoms: C_12  and  C_13 
ROOT
HETATM    1  N   UNL     1      43.135 -17.049   2.033  1.00  0.00    -0.320 N 
HETATM    2  C   UNL     1      41.873 -16.680   1.612  1.00  0.00     0.257 C 
HETATM    3  O   UNL     1      40.848 -17.343   1.719  1.00  0.00    -0.267 OA
HETATM    4  H   UNL     1      43.879 -16.361   2.011  1.00  0.00     0.169 HD
ENDROOT
BRANCH   2   5
HETATM    5  C   UNL     1      41.767 -15.325   1.010  1.00  0.00     0.052 A 
HETATM    6  C   UNL     1      41.392 -15.232  -0.331  1.00  0.00     0.136 A 
HETATM    7  N   UNL     1      41.251 -14.085  -1.039  1.00  0.00    -0.238 NA
HETATM    8  C   UNL     1      41.541 -12.964  -0.343  1.00  0.00     0.177 A 
HETATM    9  C   UNL     1      41.942 -12.975   0.988  1.00  0.00     0.083 A 
HETATM   10  N   UNL     1      41.491 -11.692  -0.835  1.00  0.00    -0.214 NA
HETATM   11  N   UNL     1      42.153 -11.652   1.281  1.00  0.00    -0.342 N 
HETATM   12  C   UNL     1      42.070 -14.157   1.719  1.00  0.00     0.052 A 
HETATM   13  H   UNL     1      42.468 -11.278   2.166  1.00  0.00     0.167 HD
HETATM   14  C   UNL     1      41.867 -10.914   0.158  1.00  0.00     0.103 A 
HETATM   15  C   UNL     1      41.999  -9.438   0.119  1.00  0.00     0.091 C 
ENDBRANCH   2   5
BRANCH   1  16
HETATM   16  C   UNL     1      43.532 -18.298   2.567  1.00  0.00     0.070 A 
HETATM   17  C   UNL     1      43.696 -18.386   3.962  1.00  0.00     0.117 A 
HETATM   18  C   UNL     1      44.170 -19.569   4.549  1.00  0.00     0.069 A 
HETATM   19 CL   UNL     1      44.469 -19.686   6.246  1.00  0.00    -0.081 Cl
HETATM   20  C   UNL     1      44.424 -20.687   3.755  1.00  0.00     0.027 A 
HETATM   21  C   UNL     1      44.227 -20.616   2.377  1.00  0.00     0.004 A 
HETATM   22  C   UNL     1      43.790 -19.426   1.786  1.00  0.00     0.032 A 
BRANCH  17  23
HETATM   23  O   UNL     1      43.442 -17.266   4.723  1.00  0.00    -0.347 OA
BRANCH  23  24
HETATM   24  C   UNL     1      42.135 -17.343   5.315  1.00  0.00     0.171 C 
HETATM   25  C   UNL     1      41.518 -15.957   5.278  1.00  0.00     0.034 C 
ENDBRANCH  23  24
ENDBRANCH  17  23
ENDBRANCH   1  16
TORSDOF 4
ENDMDL
MODEL 10
REMARK VINA RESULT:      -6.7      3.675      8.037
REMARK  4 active torsions:
REMARK  status: ('A' for Active; 'I' for Inactive)
REMARK    1  A    between atoms: C_2  and  O_3 
REMARK    2  A    between atoms: O_3  and  C_4 
REMARK    3  A    between atoms: C_10  and  N_11 
REMARK       I    between atoms: N_11  and  C_12 
REMARK    4  A    between atoms: C_12  and  C_13 
ROOT
HETATM    1  N   UNL     1      42.272 -14.689   4.400  1.00  0.00    -0.320 N 
HETATM    2  C   UNL     1      41.800 -15.879   4.918  1.00  0.00     0.257 C 
HETATM    3  O   UNL     1      40.812 -16.021   5.628  1.00  0.00    -0.267 OA
HETATM    4  H   UNL     1      43.020 -14.715   3.717  1.00  0.00     0.169 HD
ENDROOT
BRANCH   2   5
HETATM    5  C   UNL     1      42.558 -17.095   4.527  1.00  0.00     0.052 A 
HETATM    6  C   UNL     1      43.668 -17.451   5.296  1.00  0.00     0.136 A 
HETATM    7  N   UNL     1      44.473 -18.520   5.082  1.00  0.00    -0.238 NA
HETATM    8  C   UNL     1      44.143 -19.255   3.998  1.00  0.00     0.177 A 
HETATM    9  C   UNL     1      43.068 -18.954   3.171  1.00  0.00     0.083 A 
HETATM   10  N   UNL     1      44.807 -20.366   3.565  1.00  0.00    -0.214 NA
HETATM   11  N   UNL     1      43.116 -19.922   2.200  1.00  0.00    -0.342 N 
HETATM   12  C   UNL     1      42.230 -17.862   3.402  1.00  0.00     0.052 A 
HETATM   13  H   UNL     1      42.488 -20.012   1.414  1.00  0.00     0.167 HD
HETATM   14  C   UNL     1      44.174 -20.753   2.477  1.00  0.00     0.103 A 
HETATM   15  C   UNL     1      44.526 -21.909   1.618  1.00  0.00     0.091 C 
ENDBRANCH   2   5
BRANCH   1  16
HETATM   16  C   UNL     1      41.792 -13.385   4.666  1.00  0.00     0.070 A 
HETATM   17  C   UNL     1      41.032 -12.754   3.663  1.00  0.00     0.117 A 
HETATM   18  C   UNL     1      40.599 -11.429   3.827  1.00  0.00     0.069 A 
HETATM   19 CL   UNL     1      39.742 -10.592   2.583  1.00  0.00    -0.081 Cl
HETATM   20  C   UNL     1      40.868 -10.750   5.015  1.00  0.00     0.027 A 
HETATM   21  C   UNL     1      41.587 -11.384   6.027  1.00  0.00     0.004 A 
HETATM   22  C   UNL     1      42.053 -12.691   5.851  1.00  0.00     0.032 A 
BRANCH  17  23
HETATM   23  O   UNL     1      40.784 -13.445   2.498  1.00  0.00    -0.347 OA
BRANCH  23  24
HETATM   24  C   UNL     1      39.474 -14.035   2.529  1.00  0.00     0.171 C 
HETATM   25  C   UNL     1      39.579 -15.446   1.982  1.00  0.00     0.034 C 
ENDBRANCH  23  24
ENDBRANCH  17  23
ENDBRANCH   1  16
TORSDOF 4
ENDMDL
