MODEL 1
REMARK VINA RESULT:      -8.8      0.000      0.000
REMARK  7 active torsions:
REMARK  status: ('A' for Active; 'I' for Inactive)
REMARK    1  A    between atoms: C_3  and  N_4 
REMARK       I    between atoms: N_4  and  C_5 
REMARK    2  A    between atoms: C_5  and  C_6 
REMARK    3  A    between atoms: C_7  and  C_8 
REMARK    4  A    between atoms: C_19  and  C_20 
REMARK    5  A    between atoms: C_20  and  C_21 
REMARK    6  A    between atoms: C_21  and  C_22 
REMARK    7  A    between atoms: C_22  and  O_23 
ROOT
HETATM    1  C   UNL     1      42.236 -16.034   2.464  1.00  0.00     0.062 A 
HETATM    2  C   UNL     1      42.375 -15.013   3.592  1.00  0.00     0.202 A 
HETATM    3  N   UNL     1      41.216 -14.115   3.657  1.00  0.00    -0.083 N 
HETATM    4  C   UNL     1      40.163 -14.162   2.785  1.00  0.00     0.726 A 
HETATM    5  N   UNL     1      40.152 -15.090   1.811  1.00  0.00    -0.192 N 
HETATM    6  N   UNL     1      41.115 -13.057   4.490  1.00  0.00    -0.140 NA
HETATM    7  C   UNL     1      39.920 -12.569   4.130  1.00  0.00     0.166 A 
HETATM    8  N   UNL     1      39.312 -13.212   3.078  1.00  0.00    -0.046 NA
HETATM    9  C   UNL     1      41.158 -16.034   1.641  1.00  0.00     0.037 A 
HETATM   10  C   UNL     1      40.957 -17.001   0.498  1.00  0.00     0.070 C 
HETATM   11  H   UNL     1      39.354 -15.131   1.184  1.00  0.00     0.184 HD
ENDROOT
BRANCH   1  12
HETATM   12  C   UNL     1      43.261 -17.115   2.390  1.00  0.00     0.256 C 
HETATM   13  N   UNL     1      42.898 -18.257   3.067  1.00  0.00    -0.323 N 
HETATM   14  H   UNL     1      42.208 -18.140   3.797  1.00  0.00     0.169 HD
HETATM   15  O   UNL     1      44.312 -16.913   1.796  1.00  0.00    -0.267 OA
BRANCH  13  16
HETATM   16  C   UNL     1      43.523 -19.528   3.036  1.00  0.00     0.041 A 
HETATM   17  C   UNL     1      44.377 -20.067   4.016  1.00  0.00    -0.035 A 
HETATM   18  C   UNL     1      44.849 -19.346   5.250  1.00  0.00     0.050 C 
HETATM   19  C   UNL     1      44.881 -21.373   3.834  1.00  0.00     0.009 A 
HETATM   20  C   UNL     1      44.604 -22.108   2.684  1.00  0.00     0.001 A 
HETATM   21  C   UNL     1      43.817 -21.549   1.689  1.00  0.00     0.002 A 
HETATM   22  C   UNL     1      43.287 -20.270   1.864  1.00  0.00     0.030 A 
ENDBRANCH  13  16
ENDBRANCH   1  12
BRANCH   2  23
HETATM   23  C   UNL     1      42.641 -15.639   4.958  1.00  0.00    -0.028 A 
HETATM   24  C   UNL     1      43.872 -15.412   5.601  1.00  0.00     0.011 A 
HETATM   25  C   UNL     1      44.149 -15.999   6.837  1.00  0.00     0.024 A 
HETATM   26  C   UNL     1      43.199 -16.814   7.444  1.00  0.00     0.034 A 
HETATM   27 CL   UNL     1      43.545 -17.544   8.962  1.00  0.00    -0.084 Cl
HETATM   28  C   UNL     1      41.970 -17.043   6.828  1.00  0.00     0.024 A 
HETATM   29  C   UNL     1      41.689 -16.456   5.592  1.00  0.00     0.011 A 
ENDBRANCH   2  23
BRANCH   7  30
HETATM   30  C   UNL     1      39.298 -11.392   4.790  1.00  0.00     0.085 C 
BRANCH  30  31
HETATM   31  C   UNL     1      40.062 -10.917   6.023  1.00  0.00     0.034 C 
BRANCH  31  32
HETATM   32  C   UNL     1      39.477 -11.444   7.329  1.00  0.00     0.164 C 
BRANCH  32  33
HETATM   33  O   UNL     1      39.478 -12.868   7.311  1.00  0.00    -0.401 OA
HETATM   34  H   UNL     1      38.773 -13.169   7.911  1.00  0.00     0.209 HD
ENDBRANCH  32  33
ENDBRANCH  31  32
ENDBRANCH  30  31
ENDBRANCH   7  30
TORSDOF 7
ENDMDL
MODEL 2
REMARK VINA RESULT:      -8.1      2.690      4.250
REMARK  7 active torsions:
REMARK  status: ('A' for Active; 'I' for Inactive)
REMARK    1  A    between atoms: C_3  and  N_4 
REMARK       I    between atoms: N_4  and  C_5 
REMARK    2  A    between atoms: C_5  and  C_6 
REMARK    3  A    between atoms: C_7  and  C_8 
REMARK    4  A    between atoms: C_19  and  C_20 
REMARK    5  A    between atoms: C_20  and  C_21 
REMARK    6  A    between atoms: C_21  and  C_22 
REMARK    7  A    between atoms: C_22  and  O_23 
ROOT
HETATM    1  C   UNL     1      41.987 -15.671   5.322  1.00  0.00     0.062 A 
HETATM    2  C   UNL     1      40.984 -14.739   4.646  1.00  0.00     0.202 A 
HETATM    3  N   UNL     1      41.170 -13.345   5.067  1.00  0.00    -0.083 N 
HETATM    4  C   UNL     1      42.099 -12.941   5.986  1.00  0.00     0.726 A 
HETATM    5  N   UNL     1      42.920 -13.852   6.539  1.00  0.00    -0.192 N 
HETATM    6  N   UNL     1      40.363 -12.324   4.706  1.00  0.00    -0.140 NA
HETATM    7  C   UNL     1      40.932 -11.308   5.370  1.00  0.00     0.166 A 
HETATM    8  N   UNL     1      41.992 -11.651   6.177  1.00  0.00    -0.046 NA
HETATM    9  C   UNL     1      42.894 -15.204   6.217  1.00  0.00     0.037 A 
HETATM   10  C   UNL     1      43.905 -16.065   6.936  1.00  0.00     0.070 C 
HETATM   11  H   UNL     1      43.622 -13.538   7.202  1.00  0.00     0.184 HD
ENDROOT
BRANCH   1  12
HETATM   12  C   UNL     1      42.024 -17.088   4.858  1.00  0.00     0.256 C 
HETATM   13  N   UNL     1      43.091 -17.365   4.035  1.00  0.00    -0.323 N 
HETATM   14  H   UNL     1      43.503 -16.573   3.561  1.00  0.00     0.169 HD
HETATM   15  O   UNL     1      41.132 -17.857   5.193  1.00  0.00    -0.267 OA
BRANCH  13  16
HETATM   16  C   UNL     1      43.545 -18.629   3.587  1.00  0.00     0.041 A 
HETATM   17  C   UNL     1      44.408 -19.503   4.274  1.00  0.00    -0.035 A 
HETATM   18  C   UNL     1      45.076 -19.209   5.590  1.00  0.00     0.050 C 
HETATM   19  C   UNL     1      44.724 -20.748   3.686  1.00  0.00     0.009 A 
HETATM   20  C   UNL     1      44.255 -21.097   2.423  1.00  0.00     0.001 A 
HETATM   21  C   UNL     1      43.459 -20.206   1.718  1.00  0.00     0.002 A 
HETATM   22  C   UNL     1      43.113 -18.984   2.294  1.00  0.00     0.030 A 
ENDBRANCH  13  16
ENDBRANCH   1  12
BRANCH   2  23
HETATM   23  C   UNL     1      40.982 -14.839   3.123  1.00  0.00    -0.028 A 
HETATM   24  C   UNL     1      39.851 -15.350   2.460  1.00  0.00     0.011 A 
HETATM   25  C   UNL     1      39.838 -15.479   1.070  1.00  0.00     0.024 A 
HETATM   26  C   UNL     1      40.952 -15.096   0.329  1.00  0.00     0.034 A 
HETATM   27 CL   UNL     1      40.938 -15.264  -1.382  1.00  0.00    -0.084 Cl
HETATM   28  C   UNL     1      42.078 -14.578   0.966  1.00  0.00     0.024 A 
HETATM   29  C   UNL     1      42.093 -14.446   2.357  1.00  0.00     0.011 A 
ENDBRANCH   2  23
BRANCH   7  30
HETATM   30  C   UNL     1      40.441  -9.910   5.279  1.00  0.00     0.085 C 
BRANCH  30  31
HETATM   31  C   UNL     1      39.694  -9.615   3.981  1.00  0.00     0.034 C 
BRANCH  31  32
HETATM   32  C   UNL     1      38.185  -9.504   4.170  1.00  0.00     0.164 C 
BRANCH  32  33
HETATM   33  O   UNL     1      37.623 -10.808   4.283  1.00  0.00    -0.401 OA
HETATM   34  H   UNL     1      38.192 -11.322   4.882  1.00  0.00     0.209 HD
ENDBRANCH  32  33
ENDBRANCH  31  32
ENDBRANCH  30  31
ENDBRANCH   7  30
TORSDOF 7
ENDMDL
MODEL 3
REMARK VINA RESULT:      -7.9      3.327      6.167
REMARK  7 active torsions:
REMARK  status: ('A' for Active; 'I' for Inactive)
REMARK    1  A    between atoms: C_3  and  N_4 
REMARK       I    between atoms: N_4  and  C_5 
REMARK    2  A    between atoms: C_5  and  C_6 
REMARK    3  A    between atoms: C_7  and  C_8 
REMARK    4  A    between atoms: C_19  and  C_20 
REMARK    5  A    between atoms: C_20  and  C_21 
REMARK    6  A    between atoms: C_21  and  C_22 
REMARK    7  A    between atoms: C_22  and  O_23 
ROOT
HETATM    1  C   UNL     1      41.080 -14.323   2.743  1.00  0.00     0.062 A 
HETATM    2  C   UNL     1      42.537 -14.728   2.957  1.00  0.00     0.202 A 
HETATM    3  N   UNL     1      43.031 -14.304   4.273  1.00  0.00    -0.083 N 
HETATM    4  C   UNL     1      42.288 -13.595   5.177  1.00  0.00     0.726 A 
HETATM    5  N   UNL     1      41.018 -13.270   4.876  1.00  0.00    -0.192 N 
HETATM    6  N   UNL     1      44.308 -14.441   4.689  1.00  0.00    -0.140 NA
HETATM    7  C   UNL     1      44.236 -13.878   5.904  1.00  0.00     0.166 A 
HETATM    8  N   UNL     1      43.016 -13.336   6.232  1.00  0.00    -0.046 NA
HETATM    9  C   UNL     1      40.394 -13.630   3.687  1.00  0.00     0.037 A 
HETATM   10  C   UNL     1      38.959 -13.183   3.543  1.00  0.00     0.070 C 
HETATM   11  H   UNL     1      40.467 -12.764   5.564  1.00  0.00     0.184 HD
ENDROOT
BRANCH   1  12
HETATM   12  C   UNL     1      40.399 -14.837   1.520  1.00  0.00     0.256 C 
HETATM   13  N   UNL     1      40.599 -14.046   0.412  1.00  0.00    -0.323 N 
HETATM   14  H   UNL     1      40.850 -13.084   0.592  1.00  0.00     0.169 HD
HETATM   15  O   UNL     1      39.718 -15.851   1.589  1.00  0.00    -0.267 OA
BRANCH  13  16
HETATM   16  C   UNL     1      40.279 -14.335  -0.937  1.00  0.00     0.041 A 
HETATM   17  C   UNL     1      39.172 -13.853  -1.660  1.00  0.00    -0.035 A 
HETATM   18  C   UNL     1      38.071 -12.997  -1.094  1.00  0.00     0.050 C 
HETATM   19  C   UNL     1      39.034 -14.218  -3.017  1.00  0.00     0.009 A 
HETATM   20  C   UNL     1      39.928 -15.091  -3.631  1.00  0.00     0.001 A 
HETATM   21  C   UNL     1      40.981 -15.619  -2.899  1.00  0.00     0.002 A 
HETATM   22  C   UNL     1      41.150 -15.247  -1.565  1.00  0.00     0.030 A 
ENDBRANCH  13  16
ENDBRANCH   1  12
BRANCH   2  23
HETATM   23  C   UNL     1      42.799 -16.216   2.744  1.00  0.00    -0.028 A 
HETATM   24  C   UNL     1      43.479 -16.646   1.590  1.00  0.00     0.011 A 
HETATM   25  C   UNL     1      43.703 -18.004   1.360  1.00  0.00     0.024 A 
HETATM   26  C   UNL     1      43.253 -18.946   2.281  1.00  0.00     0.034 A 
HETATM   27 CL   UNL     1      43.521 -20.620   1.990  1.00  0.00    -0.084 Cl
HETATM   28  C   UNL     1      42.586 -18.540   3.435  1.00  0.00     0.024 A 
HETATM   29  C   UNL     1      42.362 -17.180   3.669  1.00  0.00     0.011 A 
ENDBRANCH   2  23
BRANCH   7  30
HETATM   30  C   UNL     1      45.396 -13.807   6.829  1.00  0.00     0.085 C 
BRANCH  30  31
HETATM   31  C   UNL     1      45.104 -13.023   8.106  1.00  0.00     0.034 C 
BRANCH  31  32
HETATM   32  C   UNL     1      46.221 -12.056   8.483  1.00  0.00     0.164 C 
BRANCH  32  33
HETATM   33  O   UNL     1      47.279 -12.156   7.533  1.00  0.00    -0.401 OA
HETATM   34  H   UNL     1      48.117 -12.147   8.027  1.00  0.00     0.209 HD
ENDBRANCH  32  33
ENDBRANCH  31  32
ENDBRANCH  30  31
ENDBRANCH   7  30
TORSDOF 7
ENDMDL
MODEL 4
REMARK VINA RESULT:      -7.7      3.122      6.227
REMARK  7 active torsions:
REMARK  status: ('A' for Active; 'I' for Inactive)
REMARK    1  A    between atoms: C_3  and  N_4 
REMARK       I    between atoms: N_4  and  C_5 
REMARK    2  A    between atoms: C_5  and  C_6 
REMARK    3  A    between atoms: C_7  and  C_8 
REMARK    4  A    between atoms: C_19  and  C_20 
REMARK    5  A    between atoms: C_20  and  C_21 
REMARK    6  A    between atoms: C_21  and  C_22 
REMARK    7  A    between atoms: C_22  and  O_23 
ROOT
HETATM    1  C   UNL     1      41.200 -14.452   2.796  1.00  0.00     0.062 A 
HETATM    2  C   UNL     1      41.010 -15.399   1.614  1.00  0.00     0.202 A 
HETATM    3  N   UNL     1      41.179 -14.706   0.331  1.00  0.00    -0.083 N 
HETATM    4  C   UNL     1      41.434 -13.367   0.213  1.00  0.00     0.726 A 
HETATM    5  N   UNL     1      41.561 -12.619   1.323  1.00  0.00    -0.192 N 
HETATM    6  N   UNL     1      40.971 -15.273  -0.877  1.00  0.00    -0.140 NA
HETATM    7  C   UNL     1      41.218 -14.234  -1.687  1.00  0.00     0.166 A 
HETATM    8  N   UNL     1      41.492 -13.044  -1.053  1.00  0.00    -0.046 NA
HETATM    9  C   UNL     1      41.464 -13.134   2.611  1.00  0.00     0.037 A 
HETATM   10  C   UNL     1      41.650 -12.135   3.728  1.00  0.00     0.070 C 
HETATM   11  H   UNL     1      41.773 -11.630   1.225  1.00  0.00     0.184 HD
ENDROOT
BRANCH   1  12
HETATM   12  C   UNL     1      41.224 -15.057   4.160  1.00  0.00     0.256 C 
HETATM   13  N   UNL     1      42.425 -15.652   4.471  1.00  0.00    -0.323 N 
HETATM   14  H   UNL     1      42.999 -15.930   3.687  1.00  0.00     0.169 HD
HETATM   15  O   UNL     1      40.219 -15.016   4.856  1.00  0.00    -0.267 OA
BRANCH  13  16
HETATM   16  C   UNL     1      42.862 -16.132   5.729  1.00  0.00     0.041 A 
HETATM   17  C   UNL     1      43.571 -15.407   6.705  1.00  0.00    -0.035 A 
HETATM   18  C   UNL     1      44.068 -13.995   6.548  1.00  0.00     0.050 C 
HETATM   19  C   UNL     1      43.892 -16.041   7.924  1.00  0.00     0.009 A 
HETATM   20  C   UNL     1      43.581 -17.379   8.154  1.00  0.00     0.001 A 
HETATM   21  C   UNL     1      42.943 -18.112   7.165  1.00  0.00     0.002 A 
HETATM   22  C   UNL     1      42.592 -17.494   5.965  1.00  0.00     0.030 A 
ENDBRANCH  13  16
ENDBRANCH   1  12
BRANCH   2  23
HETATM   23  C   UNL     1      41.897 -16.639   1.670  1.00  0.00    -0.028 A 
HETATM   24  C   UNL     1      41.329 -17.889   1.981  1.00  0.00     0.011 A 
HETATM   25  C   UNL     1      42.126 -19.031   2.068  1.00  0.00     0.024 A 
HETATM   26  C   UNL     1      43.496 -18.938   1.842  1.00  0.00     0.034 A 
HETATM   27 CL   UNL     1      44.478 -20.345   1.959  1.00  0.00    -0.084 Cl
HETATM   28  C   UNL     1      44.076 -17.712   1.523  1.00  0.00     0.024 A 
HETATM   29  C   UNL     1      43.280 -16.566   1.434  1.00  0.00     0.011 A 
ENDBRANCH   2  23
BRANCH   7  30
HETATM   30  C   UNL     1      41.169 -14.336  -3.167  1.00  0.00     0.085 C 
BRANCH  30  31
HETATM   31  C   UNL     1      40.629 -15.675  -3.663  1.00  0.00     0.034 C 
BRANCH  31  32
HETATM   32  C   UNL     1      39.158 -15.616  -4.062  1.00  0.00     0.164 C 
BRANCH  32  33
HETATM   33  O   UNL     1      38.921 -16.517  -5.140  1.00  0.00    -0.401 OA
HETATM   34  H   UNL     1      39.483 -16.239  -5.883  1.00  0.00     0.209 HD
ENDBRANCH  32  33
ENDBRANCH  31  32
ENDBRANCH  30  31
ENDBRANCH   7  30
TORSDOF 7
ENDMDL
MODEL 5
REMARK VINA RESULT:      -7.6      1.661      1.863
REMARK  7 active torsions:
REMARK  status: ('A' for Active; 'I' for Inactive)
REMARK    1  A    between atoms: C_3  and  N_4 
REMARK       I    between atoms: N_4  and  C_5 
REMARK    2  A    between atoms: C_5  and  C_6 
REMARK    3  A    between atoms: C_7  and  C_8 
REMARK    4  A    between atoms: C_19  and  C_20 
REMARK    5  A    between atoms: C_20  and  C_21 
REMARK    6  A    between atoms: C_21  and  C_22 
REMARK    7  A    between atoms: C_22  and  O_23 
ROOT
HETATM    1  C   UNL     1      42.021 -16.169   1.747  1.00  0.00     0.062 A 
HETATM    2  C   UNL     1      42.193 -14.737   2.248  1.00  0.00     0.202 A 
HETATM    3  N   UNL     1      40.958 -13.957   2.096  1.00  0.00    -0.083 N 
HETATM    4  C   UNL     1      39.810 -14.445   1.534  1.00  0.00     0.726 A 
HETATM    5  N   UNL     1      39.775 -15.719   1.104  1.00  0.00    -0.192 N 
HETATM    6  N   UNL     1      40.851 -12.638   2.363  1.00  0.00    -0.140 NA
HETATM    7  C   UNL     1      39.570 -12.419   2.030  1.00  0.00     0.166 A 
HETATM    8  N   UNL     1      38.904 -13.502   1.505  1.00  0.00    -0.046 NA
HETATM    9  C   UNL     1      40.849 -16.595   1.211  1.00  0.00     0.037 A 
HETATM   10  C   UNL     1      40.608 -17.989   0.683  1.00  0.00     0.070 C 
HETATM   11  H   UNL     1      38.911 -16.078   0.709  1.00  0.00     0.184 HD
ENDROOT
BRANCH   1  12
HETATM   12  C   UNL     1      43.142 -17.121   1.998  1.00  0.00     0.256 C 
HETATM   13  N   UNL     1      42.797 -18.164   2.826  1.00  0.00    -0.323 N 
HETATM   14  H   UNL     1      42.004 -18.006   3.433  1.00  0.00     0.169 HD
HETATM   15  O   UNL     1      44.242 -16.902   1.507  1.00  0.00    -0.267 OA
BRANCH  13  16
HETATM   16  C   UNL     1      43.536 -19.340   3.105  1.00  0.00     0.041 A 
HETATM   17  C   UNL     1      44.342 -19.576   4.234  1.00  0.00    -0.035 A 
HETATM   18  C   UNL     1      44.631 -18.576   5.320  1.00  0.00     0.050 C 
HETATM   19  C   UNL     1      44.978 -20.830   4.365  1.00  0.00     0.009 A 
HETATM   20  C   UNL     1      44.876 -21.806   3.377  1.00  0.00     0.001 A 
HETATM   21  C   UNL     1      44.136 -21.546   2.234  1.00  0.00     0.002 A 
HETATM   22  C   UNL     1      43.477 -20.324   2.100  1.00  0.00     0.030 A 
ENDBRANCH  13  16
ENDBRANCH   1  12
BRANCH   2  23
HETATM   23  C   UNL     1      42.707 -14.644   3.682  1.00  0.00    -0.028 A 
HETATM   24  C   UNL     1      43.906 -13.958   3.949  1.00  0.00     0.011 A 
HETATM   25  C   UNL     1      44.411 -13.886   5.248  1.00  0.00     0.024 A 
HETATM   26  C   UNL     1      43.723 -14.496   6.293  1.00  0.00     0.034 A 
HETATM   27 CL   UNL     1      44.353 -14.415   7.891  1.00  0.00    -0.084 Cl
HETATM   28  C   UNL     1      42.529 -15.172   6.050  1.00  0.00     0.024 A 
HETATM   29  C   UNL     1      42.020 -15.245   4.751  1.00  0.00     0.011 A 
ENDBRANCH   2  23
BRANCH   7  30
HETATM   30  C   UNL     1      38.914 -11.096   2.181  1.00  0.00     0.085 C 
BRANCH  30  31
HETATM   31  C   UNL     1      39.635 -10.170   3.157  1.00  0.00     0.034 C 
BRANCH  31  32
HETATM   32  C   UNL     1      38.819  -9.869   4.409  1.00  0.00     0.164 C 
BRANCH  32  33
HETATM   33  O   UNL     1      37.698 -10.746   4.470  1.00  0.00    -0.401 OA
HETATM   34  H   UNL     1      37.753 -11.232   5.310  1.00  0.00     0.209 HD
ENDBRANCH  32  33
ENDBRANCH  31  32
ENDBRANCH  30  31
ENDBRANCH   7  30
TORSDOF 7
ENDMDL
MODEL 6
REMARK VINA RESULT:      -7.6      3.290      5.081
REMARK  7 active torsions:
REMARK  status: ('A' for Active; 'I' for Inactive)
REMARK    1  A    between atoms: C_3  and  N_4 
REMARK       I    between atoms: N_4  and  C_5 
REMARK    2  A    between atoms: C_5  and  C_6 
REMARK    3  A    between atoms: C_7  and  C_8 
REMARK    4  A    between atoms: C_19  and  C_20 
REMARK    5  A    between atoms: C_20  and  C_21 
REMARK    6  A    between atoms: C_21  and  C_22 
REMARK    7  A    between atoms: C_22  and  O_23 
ROOT
HETATM    1  C   UNL     1      41.947 -15.850   2.451  1.00  0.00     0.062 A 
HETATM    2  C   UNL     1      42.317 -14.377   2.609  1.00  0.00     0.202 A 
HETATM    3  N   UNL     1      42.099 -13.627   1.366  1.00  0.00    -0.083 N 
HETATM    4  C   UNL     1      41.660 -14.190   0.199  1.00  0.00     0.726 A 
HETATM    5  N   UNL     1      41.384 -15.506   0.165  1.00  0.00    -0.192 N 
HETATM    6  N   UNL     1      42.433 -12.331   1.188  1.00  0.00    -0.140 NA
HETATM    7  C   UNL     1      42.070 -12.152  -0.090  1.00  0.00     0.166 A 
HETATM    8  N   UNL     1      41.605 -13.275  -0.733  1.00  0.00    -0.046 NA
HETATM    9  C   UNL     1      41.505 -16.345   1.267  1.00  0.00     0.037 A 
HETATM   10  C   UNL     1      41.134 -17.789   1.030  1.00  0.00     0.070 C 
HETATM   11  H   UNL     1      41.036 -15.910  -0.700  1.00  0.00     0.184 HD
ENDROOT
BRANCH   1  12
HETATM   12  C   UNL     1      41.958 -16.694   3.681  1.00  0.00     0.256 C 
HETATM   13  N   UNL     1      43.194 -16.765   4.283  1.00  0.00    -0.323 N 
HETATM   14  H   UNL     1      43.988 -16.568   3.690  1.00  0.00     0.169 HD
HETATM   15  O   UNL     1      40.933 -17.263   4.032  1.00  0.00    -0.267 OA
BRANCH  13  16
HETATM   16  C   UNL     1      43.517 -17.296   5.555  1.00  0.00     0.041 A 
HETATM   17  C   UNL     1      44.140 -18.531   5.815  1.00  0.00    -0.035 A 
HETATM   18  C   UNL     1      44.505 -19.557   4.776  1.00  0.00     0.050 C 
HETATM   19  C   UNL     1      44.422 -18.881   7.154  1.00  0.00     0.009 A 
HETATM   20  C   UNL     1      44.040 -18.066   8.216  1.00  0.00     0.001 A 
HETATM   21  C   UNL     1      43.366 -16.882   7.962  1.00  0.00     0.002 A 
HETATM   22  C   UNL     1      43.105 -16.505   6.644  1.00  0.00     0.030 A 
ENDBRANCH  13  16
ENDBRANCH   1  12
BRANCH   2  23
HETATM   23  C   UNL     1      41.615 -13.689   3.776  1.00  0.00    -0.028 A 
HETATM   24  C   UNL     1      42.378 -13.162   4.835  1.00  0.00     0.011 A 
HETATM   25  C   UNL     1      41.756 -12.556   5.927  1.00  0.00     0.024 A 
HETATM   26  C   UNL     1      40.368 -12.466   5.972  1.00  0.00     0.034 A 
HETATM   27 CL   UNL     1      39.603 -11.727   7.323  1.00  0.00    -0.084 Cl
HETATM   28  C   UNL     1      39.596 -12.972   4.928  1.00  0.00     0.024 A 
HETATM   29  C   UNL     1      40.215 -13.579   3.833  1.00  0.00     0.011 A 
ENDBRANCH   2  23
BRANCH   7  30
HETATM   30  C   UNL     1      42.191 -10.846  -0.787  1.00  0.00     0.085 C 
BRANCH  30  31
HETATM   31  C   UNL     1      43.178 -10.871  -1.952  1.00  0.00     0.034 C 
BRANCH  31  32
HETATM   32  C   UNL     1      42.506 -11.114  -3.299  1.00  0.00     0.164 C 
BRANCH  32  33
HETATM   33  O   UNL     1      42.598 -12.494  -3.636  1.00  0.00    -0.401 OA
HETATM   34  H   UNL     1      43.274 -12.582  -4.330  1.00  0.00     0.209 HD
ENDBRANCH  32  33
ENDBRANCH  31  32
ENDBRANCH  30  31
ENDBRANCH   7  30
TORSDOF 7
ENDMDL
MODEL 7
REMARK VINA RESULT:      -7.5      2.020      7.449
REMARK  7 active torsions:
REMARK  status: ('A' for Active; 'I' for Inactive)
REMARK    1  A    between atoms: C_3  and  N_4 
REMARK       I    between atoms: N_4  and  C_5 
REMARK    2  A    between atoms: C_5  and  C_6 
REMARK    3  A    between atoms: C_7  and  C_8 
REMARK    4  A    between atoms: C_19  and  C_20 
REMARK    5  A    between atoms: C_20  and  C_21 
REMARK    6  A    between atoms: C_21  and  C_22 
REMARK    7  A    between atoms: C_22  and  O_23 
ROOT
HETATM    1  C   UNL     1      40.708 -15.758   3.770  1.00  0.00     0.062 A 
HETATM    2  C   UNL     1      41.722 -16.598   4.544  1.00  0.00     0.202 A 
HETATM    3  N   UNL     1      42.360 -17.604   3.687  1.00  0.00    -0.083 N 
HETATM    4  C   UNL     1      42.051 -17.793   2.368  1.00  0.00     0.726 A 
HETATM    5  N   UNL     1      41.124 -17.009   1.789  1.00  0.00    -0.192 N 
HETATM    6  N   UNL     1      43.221 -18.546   4.128  1.00  0.00    -0.140 NA
HETATM    7  C   UNL     1      43.470 -19.210   2.989  1.00  0.00     0.166 A 
HETATM    8  N   UNL     1      42.759 -18.784   1.891  1.00  0.00    -0.046 NA
HETATM    9  C   UNL     1      40.456 -15.989   2.456  1.00  0.00     0.037 A 
HETATM   10  C   UNL     1      39.461 -15.211   1.629  1.00  0.00     0.070 C 
HETATM   11  H   UNL     1      40.919 -17.142   0.803  1.00  0.00     0.184 HD
ENDROOT
BRANCH   1  12
HETATM   12  C   UNL     1      40.109 -14.588   4.474  1.00  0.00     0.256 C 
HETATM   13  N   UNL     1      40.417 -13.382   3.886  1.00  0.00    -0.323 N 
HETATM   14  H   UNL     1      41.248 -13.368   3.310  1.00  0.00     0.169 HD
HETATM   15  O   UNL     1      39.451 -14.766   5.490  1.00  0.00    -0.267 OA
BRANCH  13  16
HETATM   16  C   UNL     1      39.862 -12.109   4.160  1.00  0.00     0.041 A 
HETATM   17  C   UNL     1      40.251 -11.226   5.184  1.00  0.00    -0.035 A 
HETATM   18  C   UNL     1      41.288 -11.516   6.235  1.00  0.00     0.050 C 
HETATM   19  C   UNL     1      39.606  -9.973   5.284  1.00  0.00     0.009 A 
HETATM   20  C   UNL     1      38.558  -9.624   4.438  1.00  0.00     0.001 A 
HETATM   21  C   UNL     1      38.130 -10.523   3.472  1.00  0.00     0.002 A 
HETATM   22  C   UNL     1      38.774 -11.754   3.340  1.00  0.00     0.030 A 
ENDBRANCH  13  16
ENDBRANCH   1  12
BRANCH   2  23
HETATM   23  C   UNL     1      42.778 -15.770   5.271  1.00  0.00    -0.028 A 
HETATM   24  C   UNL     1      43.074 -16.048   6.619  1.00  0.00     0.011 A 
HETATM   25  C   UNL     1      44.015 -15.285   7.312  1.00  0.00     0.024 A 
HETATM   26  C   UNL     1      44.670 -14.240   6.667  1.00  0.00     0.034 A 
HETATM   27 CL   UNL     1      45.822 -13.294   7.527  1.00  0.00    -0.084 Cl
HETATM   28  C   UNL     1      44.398 -13.956   5.331  1.00  0.00     0.024 A 
HETATM   29  C   UNL     1      43.458 -14.719   4.633  1.00  0.00     0.011 A 
ENDBRANCH   2  23
BRANCH   7  30
HETATM   30  C   UNL     1      44.417 -20.351   2.911  1.00  0.00     0.085 C 
BRANCH  30  31
HETATM   31  C   UNL     1      45.021 -20.728   4.261  1.00  0.00     0.034 C 
BRANCH  31  32
HETATM   32  C   UNL     1      44.676 -22.149   4.695  1.00  0.00     0.164 C 
BRANCH  32  33
HETATM   33  O   UNL     1      44.803 -23.030   3.584  1.00  0.00    -0.401 OA
HETATM   34  H   UNL     1      43.955 -23.023   3.106  1.00  0.00     0.209 HD
ENDBRANCH  32  33
ENDBRANCH  31  32
ENDBRANCH  30  31
ENDBRANCH   7  30
TORSDOF 7
ENDMDL
MODEL 8
REMARK VINA RESULT:      -7.5      2.775      8.108
REMARK  7 active torsions:
REMARK  status: ('A' for Active; 'I' for Inactive)
REMARK    1  A    between atoms: C_3  and  N_4 
REMARK       I    between atoms: N_4  and  C_5 
REMARK    2  A    between atoms: C_5  and  C_6 
REMARK    3  A    between atoms: C_7  and  C_8 
REMARK    4  A    between atoms: C_19  and  C_20 
REMARK    5  A    between atoms: C_20  and  C_21 
REMARK    6  A    between atoms: C_21  and  C_22 
REMARK    7  A    between atoms: C_22  and  O_23 
ROOT
HETATM    1  C   UNL     1      43.354 -15.492   4.500  1.00  0.00     0.062 A 
HETATM    2  C   UNL     1      43.234 -16.102   3.106  1.00  0.00     0.202 A 
HETATM    3  N   UNL     1      43.327 -17.567   3.144  1.00  0.00    -0.083 N 
HETATM    4  C   UNL     1      43.539 -18.290   4.286  1.00  0.00     0.726 A 
HETATM    5  N   UNL     1      43.653 -17.648   5.462  1.00  0.00    -0.192 N 
HETATM    6  N   UNL     1      43.353 -18.359   2.051  1.00  0.00    -0.140 NA
HETATM    7  C   UNL     1      43.481 -19.567   2.620  1.00  0.00     0.166 A 
HETATM    8  N   UNL     1      43.613 -19.562   3.989  1.00  0.00    -0.046 NA
HETATM    9  C   UNL     1      43.551 -16.268   5.596  1.00  0.00     0.037 A 
HETATM   10  C   UNL     1      43.693 -15.738   7.003  1.00  0.00     0.070 C 
HETATM   11  H   UNL     1      43.787 -18.196   6.307  1.00  0.00     0.184 HD
ENDROOT
BRANCH   1  12
HETATM   12  C   UNL     1      43.107 -14.027   4.630  1.00  0.00     0.256 C 
HETATM   13  N   UNL     1      41.841 -13.725   5.078  1.00  0.00    -0.323 N 
HETATM   14  H   UNL     1      41.138 -14.437   4.934  1.00  0.00     0.169 HD
HETATM   15  O   UNL     1      43.985 -13.236   4.312  1.00  0.00    -0.267 OA
BRANCH  13  16
HETATM   16  C   UNL     1      41.341 -12.471   5.505  1.00  0.00     0.041 A 
HETATM   17  C   UNL     1      40.372 -11.688   4.853  1.00  0.00    -0.035 A 
HETATM   18  C   UNL     1      39.744 -12.010   3.523  1.00  0.00     0.050 C 
HETATM   19  C   UNL     1      39.964 -10.474   5.449  1.00  0.00     0.009 A 
HETATM   20  C   UNL     1      40.544 -10.010   6.627  1.00  0.00     0.001 A 
HETATM   21  C   UNL     1      41.547 -10.751   7.233  1.00  0.00     0.002 A 
HETATM   22  C   UNL     1      41.943 -11.966   6.674  1.00  0.00     0.030 A 
ENDBRANCH  13  16
ENDBRANCH   1  12
BRANCH   2  23
HETATM   23  C   UNL     1      41.981 -15.668   2.350  1.00  0.00    -0.028 A 
HETATM   24  C   UNL     1      42.099 -14.810   1.241  1.00  0.00     0.011 A 
HETATM   25  C   UNL     1      40.964 -14.376   0.554  1.00  0.00     0.024 A 
HETATM   26  C   UNL     1      39.703 -14.797   0.965  1.00  0.00     0.034 A 
HETATM   27 CL   UNL     1      38.305 -14.253   0.122  1.00  0.00    -0.084 Cl
HETATM   28  C   UNL     1      39.566 -15.655   2.054  1.00  0.00     0.024 A 
HETATM   29  C   UNL     1      40.700 -16.092   2.744  1.00  0.00     0.011 A 
ENDBRANCH   2  23
BRANCH   7  30
HETATM   30  C   UNL     1      43.517 -20.827   1.837  1.00  0.00     0.085 C 
BRANCH  30  31
HETATM   31  C   UNL     1      44.720 -21.709   2.163  1.00  0.00     0.034 C 
BRANCH  31  32
HETATM   32  C   UNL     1      44.483 -22.625   3.359  1.00  0.00     0.164 C 
BRANCH  32  33
HETATM   33  O   UNL     1      45.064 -22.049   4.524  1.00  0.00    -0.401 OA
HETATM   34  H   UNL     1      44.603 -22.420   5.296  1.00  0.00     0.209 HD
ENDBRANCH  32  33
ENDBRANCH  31  32
ENDBRANCH  30  31
ENDBRANCH   7  30
TORSDOF 7
ENDMDL
MODEL 9
REMARK VINA RESULT:      -7.4      3.458      5.290
REMARK  7 active torsions:
REMARK  status: ('A' for Active; 'I' for Inactive)
REMARK    1  A    between atoms: C_3  and  N_4 
REMARK       I    between atoms: N_4  and  C_5 
REMARK    2  A    between atoms: C_5  and  C_6 
REMARK    3  A    between atoms: C_7  and  C_8 
REMARK    4  A    between atoms: C_19  and  C_20 
REMARK    5  A    between atoms: C_20  and  C_21 
REMARK    6  A    between atoms: C_21  and  C_22 
REMARK    7  A    between atoms: C_22  and  O_23 
ROOT
HETATM    1  C   UNL     1      41.885 -15.611   2.364  1.00  0.00     0.062 A 
HETATM    2  C   UNL     1      42.297 -14.141   2.420  1.00  0.00     0.202 A 
HETATM    3  N   UNL     1      42.123 -13.480   1.121  1.00  0.00    -0.083 N 
HETATM    4  C   UNL     1      41.686 -14.115  -0.009  1.00  0.00     0.726 A 
HETATM    5  N   UNL     1      41.371 -15.421   0.048  1.00  0.00    -0.192 N 
HETATM    6  N   UNL     1      42.500 -12.211   0.854  1.00  0.00    -0.140 NA
HETATM    7  C   UNL     1      42.164 -12.117  -0.441  1.00  0.00     0.166 A 
HETATM    8  N   UNL     1      41.675 -13.271  -1.008  1.00  0.00    -0.046 NA
HETATM    9  C   UNL     1      41.447 -16.179   1.212  1.00  0.00     0.037 A 
HETATM   10  C   UNL     1      41.036 -17.625   1.076  1.00  0.00     0.070 C 
HETATM   11  H   UNL     1      41.025 -15.878  -0.790  1.00  0.00     0.184 HD
ENDROOT
BRANCH   1  12
HETATM   12  C   UNL     1      41.849 -16.360   3.653  1.00  0.00     0.256 C 
HETATM   13  N   UNL     1      43.067 -16.891   4.010  1.00  0.00    -0.323 N 
HETATM   14  H   UNL     1      43.727 -17.033   3.257  1.00  0.00     0.169 HD
HETATM   15  O   UNL     1      40.789 -16.477   4.255  1.00  0.00    -0.267 OA
BRANCH  13  16
HETATM   16  C   UNL     1      43.440 -17.473   5.246  1.00  0.00     0.041 A 
HETATM   17  C   UNL     1      43.857 -16.790   6.403  1.00  0.00    -0.035 A 
HETATM   18  C   UNL     1      44.064 -15.304   6.509  1.00  0.00     0.050 C 
HETATM   19  C   UNL     1      44.154 -17.538   7.564  1.00  0.00     0.009 A 
HETATM   20  C   UNL     1      44.104 -18.930   7.567  1.00  0.00     0.001 A 
HETATM   21  C   UNL     1      43.757 -19.604   6.406  1.00  0.00     0.002 A 
HETATM   22  C   UNL     1      43.433 -18.881   5.257  1.00  0.00     0.030 A 
ENDBRANCH  13  16
ENDBRANCH   1  12
BRANCH   2  23
HETATM   23  C   UNL     1      41.597 -13.348   3.519  1.00  0.00    -0.028 A 
HETATM   24  C   UNL     1      40.209 -13.130   3.446  1.00  0.00     0.011 A 
HETATM   25  C   UNL     1      39.553 -12.382   4.425  1.00  0.00     0.024 A 
HETATM   26  C   UNL     1      40.276 -11.846   5.487  1.00  0.00     0.034 A 
HETATM   27 CL   UNL     1      39.467 -10.916   6.686  1.00  0.00    -0.084 Cl
HETATM   28  C   UNL     1      41.649 -12.059   5.582  1.00  0.00     0.024 A 
HETATM   29  C   UNL     1      42.309 -12.809   4.605  1.00  0.00     0.011 A 
ENDBRANCH   2  23
BRANCH   7  30
HETATM   30  C   UNL     1      42.337 -10.872  -1.230  1.00  0.00     0.085 C 
BRANCH  30  31
HETATM   31  C   UNL     1      41.555 -10.873  -2.541  1.00  0.00     0.034 C 
BRANCH  31  32
HETATM   32  C   UNL     1      42.419 -11.207  -3.753  1.00  0.00     0.164 C 
BRANCH  32  33
HETATM   33  O   UNL     1      42.402 -12.614  -3.975  1.00  0.00    -0.401 OA
HETATM   34  H   UNL     1      41.541 -12.838  -4.369  1.00  0.00     0.209 HD
ENDBRANCH  32  33
ENDBRANCH  31  32
ENDBRANCH  30  31
ENDBRANCH   7  30
TORSDOF 7
ENDMDL
MODEL 10
REMARK VINA RESULT:      -7.3      3.054      7.015
REMARK  7 active torsions:
REMARK  status: ('A' for Active; 'I' for Inactive)
REMARK    1  A    between atoms: C_3  and  N_4 
REMARK       I    between atoms: N_4  and  C_5 
REMARK    2  A    between atoms: C_5  and  C_6 
REMARK    3  A    between atoms: C_7  and  C_8 
REMARK    4  A    between atoms: C_19  and  C_20 
REMARK    5  A    between atoms: C_20  and  C_21 
REMARK    6  A    between atoms: C_21  and  C_22 
REMARK    7  A    between atoms: C_22  and  O_23 
ROOT
HETATM    1  C   UNL     1      40.765 -15.919   2.011  1.00  0.00     0.062 A 
HETATM    2  C   UNL     1      41.044 -16.202   3.486  1.00  0.00     0.202 A 
HETATM    3  N   UNL     1      42.253 -17.016   3.662  1.00  0.00    -0.083 N 
HETATM    4  C   UNL     1      43.010 -17.496   2.629  1.00  0.00     0.726 A 
HETATM    5  N   UNL     1      42.661 -17.204   1.364  1.00  0.00    -0.192 N 
HETATM    6  N   UNL     1      42.682 -17.499   4.848  1.00  0.00    -0.140 NA
HETATM    7  C   UNL     1      43.768 -18.183   4.462  1.00  0.00     0.166 A 
HETATM    8  N   UNL     1      43.993 -18.215   3.106  1.00  0.00    -0.046 NA
HETATM    9  C   UNL     1      41.564 -16.415   1.033  1.00  0.00     0.037 A 
HETATM   10  C   UNL     1      41.346 -16.190  -0.444  1.00  0.00     0.070 C 
HETATM   11  H   UNL     1      43.243 -17.545   0.605  1.00  0.00     0.184 HD
ENDROOT
BRANCH   1  12
HETATM   12  C   UNL     1      39.665 -14.963   1.694  1.00  0.00     0.256 C 
HETATM   13  N   UNL     1      40.115 -13.706   1.361  1.00  0.00    -0.323 N 
HETATM   14  H   UNL     1      41.038 -13.462   1.693  1.00  0.00     0.169 HD
HETATM   15  O   UNL     1      38.501 -15.330   1.783  1.00  0.00    -0.267 OA
BRANCH  13  16
HETATM   16  C   UNL     1      39.376 -12.629   0.813  1.00  0.00     0.041 A 
HETATM   17  C   UNL     1      38.709 -11.618   1.531  1.00  0.00    -0.035 A 
HETATM   18  C   UNL     1      38.595 -11.546   3.029  1.00  0.00     0.050 C 
HETATM   19  C   UNL     1      38.050 -10.597   0.812  1.00  0.00     0.009 A 
HETATM   20  C   UNL     1      37.992 -10.605  -0.579  1.00  0.00     0.001 A 
HETATM   21  C   UNL     1      38.592 -11.639  -1.282  1.00  0.00     0.002 A 
HETATM   22  C   UNL     1      39.272 -12.641  -0.591  1.00  0.00     0.030 A 
ENDBRANCH  13  16
ENDBRANCH   1  12
BRANCH   2  23
HETATM   23  C   UNL     1      41.116 -14.947   4.350  1.00  0.00    -0.028 A 
HETATM   24  C   UNL     1      40.078 -14.666   5.258  1.00  0.00     0.011 A 
HETATM   25  C   UNL     1      40.108 -13.509   6.037  1.00  0.00     0.024 A 
HETATM   26  C   UNL     1      41.174 -12.622   5.920  1.00  0.00     0.034 A 
HETATM   27 CL   UNL     1      41.204 -11.191   6.874  1.00  0.00    -0.084 Cl
HETATM   28  C   UNL     1      42.217 -12.888   5.034  1.00  0.00     0.024 A 
HETATM   29  C   UNL     1      42.191 -14.047   4.253  1.00  0.00     0.011 A 
ENDBRANCH   2  23
BRANCH   7  30
HETATM   30  C   UNL     1      44.656 -18.892   5.418  1.00  0.00     0.085 C 
BRANCH  30  31
HETATM   31  C   UNL     1      45.046 -18.043   6.625  1.00  0.00     0.034 C 
BRANCH  31  32
HETATM   32  C   UNL     1      44.359 -18.483   7.913  1.00  0.00     0.164 C 
BRANCH  32  33
HETATM   33  O   UNL     1      42.989 -18.095   7.878  1.00  0.00    -0.401 OA
HETATM   34  H   UNL     1      42.896 -17.410   7.193  1.00  0.00     0.209 HD
ENDBRANCH  32  33
ENDBRANCH  31  32
ENDBRANCH  30  31
ENDBRANCH   7  30
TORSDOF 7
ENDMDL
