MODEL 1
REMARK VINA RESULT:      -8.9      0.000      0.000
REMARK  6 active torsions:
REMARK  status: ('A' for Active; 'I' for Inactive)
REMARK    1  A    between atoms: C_4  and  C_5 
REMARK    2  A    between atoms: C_5  and  N_6 
REMARK    3  A    between atoms: C_5  and  C_25 
REMARK    4  A    between atoms: N_10  and  C_11 
REMARK    5  A    between atoms: C_15  and  C_16 
REMARK       I    between atoms: C_25  and  N_26 
REMARK    6  A    between atoms: N_26  and  C_27 
ROOT
HETATM    1  N   UNL     1      41.124 -14.847   0.154  1.00  0.00    -0.051 N 
HETATM    2  H   UNL     1      40.186 -14.501   0.432  1.00  0.00     0.281 HD
HETATM    3  C   UNL     1      41.009 -16.361   0.198  1.00  0.00     0.256 C 
HETATM    4  C   UNL     1      40.586 -16.810   1.614  1.00  0.00     0.152 C 
HETATM    5  N   UNL     1      41.474 -16.265   2.664  1.00  0.00    -0.363 N 
HETATM    6  C   UNL     1      41.845 -14.833   2.572  1.00  0.00     0.152 C 
HETATM    7  C   UNL     1      42.145 -14.332   1.133  1.00  0.00     0.256 C 
ENDROOT
BRANCH   1   8
HETATM    8  C   UNL     1      41.247 -14.250  -1.284  1.00  0.00     0.312 C 
BRANCH   8   9
HETATM    9  C   UNL     1      40.113 -14.647  -2.208  1.00  0.00    -0.018 A 
HETATM   10  C   UNL     1      38.811 -14.133  -2.057  1.00  0.00     0.010 A 
HETATM   11  C   UNL     1      37.781 -14.551  -2.900  1.00  0.00     0.001 A 
HETATM   12  C   UNL     1      38.032 -15.481  -3.903  1.00  0.00     0.000 A 
HETATM   13  C   UNL     1      39.315 -15.995  -4.071  1.00  0.00     0.001 A 
HETATM   14  C   UNL     1      40.348 -15.583  -3.230  1.00  0.00     0.010 A 
ENDBRANCH   8   9
BRANCH   8  15
HETATM   15  C   UNL     1      41.501 -12.728  -1.151  1.00  0.00     0.259 C 
HETATM   16  N   UNL     1      42.666 -12.258  -1.702  1.00  0.00    -0.304 N 
HETATM   17  H   UNL     1      43.318 -12.842  -2.213  1.00  0.00     0.171 HD
HETATM   18  O   UNL     1      40.658 -12.095  -0.506  1.00  0.00    -0.270 OA
BRANCH  16  19
HETATM   19  C   UNL     1      43.001 -10.933  -1.629  1.00  0.00     0.172 A 
HETATM   20  S   UNL     1      42.479 -10.000  -2.957  1.00  0.00    -0.062 SA
HETATM   21  C   UNL     1      43.196  -8.618  -2.234  1.00  0.00     0.072 A 
HETATM   22  C   UNL     1      43.773  -8.974  -1.032  1.00  0.00     0.126 A 
HETATM   23  N   UNL     1      43.654 -10.309  -0.686  1.00  0.00    -0.236 NA
ENDBRANCH  16  19
ENDBRANCH   8  15
ENDBRANCH   1   8
BRANCH   5  24
HETATM   24  C   UNL     1      42.239 -17.153   3.389  1.00  0.00     0.125 A 
HETATM   25  N   UNL     1      41.753 -17.481   4.604  1.00  0.00    -0.350 N 
HETATM   26  H   UNL     1      40.890 -17.018   4.888  1.00  0.00     0.166 HD
HETATM   27  C   UNL     1      42.349 -18.333   5.454  1.00  0.00     0.106 A 
HETATM   28  C   UNL     1      43.542 -18.952   5.099  1.00  0.00     0.065 A 
HETATM   29  C   UNL     1      44.104 -18.642   3.858  1.00  0.00     0.045 A 
HETATM   30  C   UNL     1      43.456 -17.750   3.000  1.00  0.00     0.078 A 
HETATM   31 CL   UNL     1      44.160 -17.476   1.453  1.00  0.00    -0.080 Cl
BRANCH  28  32
HETATM   32  C   UNL     1      44.206 -19.899   6.066  1.00  0.00     0.418 C 
HETATM   33  F   UNL     1      43.294 -20.685   6.691  1.00  0.00    -0.166 F 
HETATM   34  F   UNL     1      45.092 -20.724   5.463  1.00  0.00    -0.166 F 
HETATM   35  F   UNL     1      44.871 -19.228   7.035  1.00  0.00    -0.166 F 
ENDBRANCH  28  32
ENDBRANCH   5  24
TORSDOF 6
ENDMDL
MODEL 2
REMARK VINA RESULT:      -8.6      3.761      6.508
REMARK  6 active torsions:
REMARK  status: ('A' for Active; 'I' for Inactive)
REMARK    1  A    between atoms: C_4  and  C_5 
REMARK    2  A    between atoms: C_5  and  N_6 
REMARK    3  A    between atoms: C_5  and  C_25 
REMARK    4  A    between atoms: N_10  and  C_11 
REMARK    5  A    between atoms: C_15  and  C_16 
REMARK       I    between atoms: C_25  and  N_26 
REMARK    6  A    between atoms: N_26  and  C_27 
ROOT
HETATM    1  N   UNL     1      41.280 -14.906   5.267  1.00  0.00    -0.051 N 
HETATM    2  H   UNL     1      41.828 -14.605   6.095  1.00  0.00     0.281 HD
HETATM    3  C   UNL     1      40.871 -16.337   5.570  1.00  0.00     0.256 C 
HETATM    4  C   UNL     1      42.130 -17.197   5.815  1.00  0.00     0.152 C 
HETATM    5  N   UNL     1      43.105 -17.095   4.708  1.00  0.00    -0.363 N 
HETATM    6  C   UNL     1      43.394 -15.743   4.173  1.00  0.00     0.152 C 
HETATM    7  C   UNL     1      42.154 -14.817   4.044  1.00  0.00     0.256 C 
ENDROOT
BRANCH   1   8
HETATM    8  C   UNL     1      40.105 -13.878   5.299  1.00  0.00     0.312 C 
BRANCH   8   9
HETATM    9  C   UNL     1      40.340 -12.712   6.237  1.00  0.00    -0.018 A 
HETATM   10  C   UNL     1      41.581 -12.053   6.315  1.00  0.00     0.010 A 
HETATM   11  C   UNL     1      41.776 -11.009   7.220  1.00  0.00     0.001 A 
HETATM   12  C   UNL     1      40.739 -10.607   8.057  1.00  0.00     0.000 A 
HETATM   13  C   UNL     1      39.504 -11.244   7.990  1.00  0.00     0.001 A 
HETATM   14  C   UNL     1      39.304 -12.290   7.089  1.00  0.00     0.010 A 
ENDBRANCH   8   9
BRANCH   8  15
HETATM   15  C   UNL     1      39.759 -13.501   3.837  1.00  0.00     0.259 C 
HETATM   16  N   UNL     1      39.333 -14.527   3.031  1.00  0.00    -0.304 N 
HETATM   17  H   UNL     1      39.200 -15.476   3.359  1.00  0.00     0.171 HD
HETATM   18  O   UNL     1      39.958 -12.323   3.521  1.00  0.00    -0.270 OA
BRANCH  16  19
HETATM   19  C   UNL     1      39.016 -14.312   1.717  1.00  0.00     0.172 A 
HETATM   20  S   UNL     1      40.348 -14.366   0.654  1.00  0.00    -0.062 SA
HETATM   21  C   UNL     1      39.285 -14.034  -0.653  1.00  0.00     0.072 A 
HETATM   22  C   UNL     1      37.995 -13.913  -0.177  1.00  0.00     0.126 A 
HETATM   23  N   UNL     1      37.845 -14.079   1.188  1.00  0.00    -0.236 NA
ENDBRANCH  16  19
ENDBRANCH   8  15
ENDBRANCH   1   8
BRANCH   5  24
HETATM   24  C   UNL     1      43.354 -18.225   3.960  1.00  0.00     0.125 A 
HETATM   25  N   UNL     1      44.272 -19.070   4.471  1.00  0.00    -0.350 N 
HETATM   26  H   UNL     1      44.721 -18.781   5.341  1.00  0.00     0.166 HD
HETATM   27  C   UNL     1      44.646 -20.224   3.894  1.00  0.00     0.106 A 
HETATM   28  C   UNL     1      44.069 -20.622   2.694  1.00  0.00     0.065 A 
HETATM   29  C   UNL     1      43.120 -19.782   2.106  1.00  0.00     0.045 A 
HETATM   30  C   UNL     1      42.757 -18.588   2.735  1.00  0.00     0.078 A 
HETATM   31 CL   UNL     1      41.523 -17.641   1.997  1.00  0.00    -0.080 Cl
BRANCH  28  32
HETATM   32  C   UNL     1      44.503 -21.915   2.052  1.00  0.00     0.418 C 
HETATM   33  F   UNL     1      44.582 -22.917   2.964  1.00  0.00    -0.166 F 
HETATM   34  F   UNL     1      43.655 -22.328   1.084  1.00  0.00    -0.166 F 
HETATM   35  F   UNL     1      45.730 -21.799   1.493  1.00  0.00    -0.166 F 
ENDBRANCH  28  32
ENDBRANCH   5  24
TORSDOF 6
ENDMDL
MODEL 3
REMARK VINA RESULT:      -8.5      1.205      1.561
REMARK  6 active torsions:
REMARK  status: ('A' for Active; 'I' for Inactive)
REMARK    1  A    between atoms: C_4  and  C_5 
REMARK    2  A    between atoms: C_5  and  N_6 
REMARK    3  A    between atoms: C_5  and  C_25 
REMARK    4  A    between atoms: N_10  and  C_11 
REMARK    5  A    between atoms: C_15  and  C_16 
REMARK       I    between atoms: C_25  and  N_26 
REMARK    6  A    between atoms: N_26  and  C_27 
ROOT
HETATM    1  N   UNL     1      40.954 -14.689   0.344  1.00  0.00    -0.051 N 
HETATM    2  H   UNL     1      39.997 -14.329   0.525  1.00  0.00     0.281 HD
HETATM    3  C   UNL     1      40.835 -16.197   0.481  1.00  0.00     0.256 C 
HETATM    4  C   UNL     1      40.305 -16.551   1.888  1.00  0.00     0.152 C 
HETATM    5  N   UNL     1      41.110 -15.933   2.964  1.00  0.00    -0.363 N 
HETATM    6  C   UNL     1      41.488 -14.508   2.804  1.00  0.00     0.152 C 
HETATM    7  C   UNL     1      41.897 -14.104   1.361  1.00  0.00     0.256 C 
ENDROOT
BRANCH   1   8
HETATM    8  C   UNL     1      41.187 -14.190  -1.117  1.00  0.00     0.312 C 
BRANCH   8   9
HETATM    9  C   UNL     1      40.111 -14.627  -2.090  1.00  0.00    -0.018 A 
HETATM   10  C   UNL     1      38.797 -14.128  -2.026  1.00  0.00     0.010 A 
HETATM   11  C   UNL     1      37.819 -14.583  -2.912  1.00  0.00     0.001 A 
HETATM   12  C   UNL     1      38.137 -15.537  -3.873  1.00  0.00     0.000 A 
HETATM   13  C   UNL     1      39.433 -16.038  -3.955  1.00  0.00     0.001 A 
HETATM   14  C   UNL     1      40.414 -15.588  -3.070  1.00  0.00     0.010 A 
ENDBRANCH   8   9
BRANCH   8  15
HETATM   15  C   UNL     1      41.463 -12.666  -1.064  1.00  0.00     0.259 C 
HETATM   16  N   UNL     1      42.655 -12.247  -1.600  1.00  0.00    -0.304 N 
HETATM   17  H   UNL     1      43.314 -12.871  -2.050  1.00  0.00     0.171 HD
HETATM   18  O   UNL     1      40.609 -11.983  -0.490  1.00  0.00    -0.270 OA
BRANCH  16  19
HETATM   19  C   UNL     1      43.010 -10.926  -1.592  1.00  0.00     0.172 A 
HETATM   20  S   UNL     1      42.436 -10.035  -2.928  1.00  0.00    -0.062 SA
HETATM   21  C   UNL     1      43.205  -8.638  -2.292  1.00  0.00     0.072 A 
HETATM   22  C   UNL     1      43.835  -8.958  -1.107  1.00  0.00     0.126 A 
HETATM   23  N   UNL     1      43.716 -10.277  -0.706  1.00  0.00    -0.236 NA
ENDBRANCH  16  19
ENDBRANCH   8  15
ENDBRANCH   1   8
BRANCH   5  24
HETATM   24  C   UNL     1      41.816 -16.766   3.803  1.00  0.00     0.125 A 
HETATM   25  N   UNL     1      42.765 -17.519   3.211  1.00  0.00    -0.350 N 
HETATM   26  H   UNL     1      42.849 -17.431   2.198  1.00  0.00     0.166 HD
HETATM   27  C   UNL     1      43.561 -18.385   3.860  1.00  0.00     0.106 A 
HETATM   28  C   UNL     1      43.443 -18.544   5.236  1.00  0.00     0.065 A 
HETATM   29  C   UNL     1      42.467 -17.801   5.906  1.00  0.00     0.045 A 
HETATM   30  C   UNL     1      41.657 -16.910   5.197  1.00  0.00     0.078 A 
HETATM   31 CL   UNL     1      40.532 -15.967   6.096  1.00  0.00    -0.080 Cl
BRANCH  28  32
HETATM   32  C   UNL     1      44.335 -19.525   5.951  1.00  0.00     0.418 C 
HETATM   33  F   UNL     1      45.207 -20.115   5.094  1.00  0.00    -0.166 F 
HETATM   34  F   UNL     1      45.072 -18.948   6.928  1.00  0.00    -0.166 F 
HETATM   35  F   UNL     1      43.617 -20.520   6.521  1.00  0.00    -0.166 F 
ENDBRANCH  28  32
ENDBRANCH   5  24
TORSDOF 6
ENDMDL
MODEL 4
REMARK VINA RESULT:      -8.4      3.293      5.452
REMARK  6 active torsions:
REMARK  status: ('A' for Active; 'I' for Inactive)
REMARK    1  A    between atoms: C_4  and  C_5 
REMARK    2  A    between atoms: C_5  and  N_6 
REMARK    3  A    between atoms: C_5  and  C_25 
REMARK    4  A    between atoms: N_10  and  C_11 
REMARK    5  A    between atoms: C_15  and  C_16 
REMARK       I    between atoms: C_25  and  N_26 
REMARK    6  A    between atoms: N_26  and  C_27 
ROOT
HETATM    1  N   UNL     1      41.080 -14.625   3.940  1.00  0.00    -0.051 N 
HETATM    2  H   UNL     1      41.586 -14.013   4.607  1.00  0.00     0.281 HD
HETATM    3  C   UNL     1      40.811 -15.905   4.713  1.00  0.00     0.256 C 
HETATM    4  C   UNL     1      42.146 -16.507   5.202  1.00  0.00     0.152 C 
HETATM    5  N   UNL     1      43.118 -16.688   4.102  1.00  0.00    -0.363 N 
HETATM    6  C   UNL     1      43.278 -15.571   3.139  1.00  0.00     0.152 C 
HETATM    7  C   UNL     1      41.954 -14.866   2.738  1.00  0.00     0.256 C 
ENDROOT
BRANCH   1   8
HETATM    8  C   UNL     1      39.809 -13.765   3.653  1.00  0.00     0.312 C 
BRANCH   8   9
HETATM    9  C   UNL     1      39.948 -12.314   4.069  1.00  0.00    -0.018 A 
HETATM   10  C   UNL     1      41.198 -11.737   4.363  1.00  0.00     0.010 A 
HETATM   11  C   UNL     1      41.286 -10.409   4.783  1.00  0.00     0.001 A 
HETATM   12  C   UNL     1      40.135  -9.640   4.913  1.00  0.00     0.000 A 
HETATM   13  C   UNL     1      38.891 -10.192   4.622  1.00  0.00     0.001 A 
HETATM   14  C   UNL     1      38.797 -11.519   4.204  1.00  0.00     0.010 A 
ENDBRANCH   8   9
BRANCH   8  15
HETATM   15  C   UNL     1      39.392 -14.002   2.181  1.00  0.00     0.259 C 
HETATM   16  N   UNL     1      39.793 -13.051   1.276  1.00  0.00    -0.304 N 
HETATM   17  H   UNL     1      40.369 -12.254   1.522  1.00  0.00     0.171 HD
HETATM   18  O   UNL     1      38.685 -14.994   1.973  1.00  0.00    -0.270 OA
BRANCH  16  19
HETATM   19  C   UNL     1      39.466 -13.150  -0.049  1.00  0.00     0.172 A 
HETATM   20  S   UNL     1      40.608 -13.991  -0.995  1.00  0.00    -0.062 SA
HETATM   21  C   UNL     1      39.624 -13.721  -2.376  1.00  0.00     0.072 A 
HETATM   22  C   UNL     1      38.497 -13.015  -2.006  1.00  0.00     0.126 A 
HETATM   23  N   UNL     1      38.409 -12.693  -0.663  1.00  0.00    -0.236 NA
ENDBRANCH  16  19
ENDBRANCH   8  15
ENDBRANCH   1   8
BRANCH   5  24
HETATM   24  C   UNL     1      43.486 -17.973   3.768  1.00  0.00     0.125 A 
HETATM   25  N   UNL     1      42.940 -18.457   2.634  1.00  0.00    -0.350 N 
HETATM   26  H   UNL     1      42.282 -17.847   2.149  1.00  0.00     0.166 HD
HETATM   27  C   UNL     1      43.181 -19.683   2.140  1.00  0.00     0.106 A 
HETATM   28  C   UNL     1      44.051 -20.543   2.800  1.00  0.00     0.065 A 
HETATM   29  C   UNL     1      44.638 -20.103   3.990  1.00  0.00     0.045 A 
HETATM   30  C   UNL     1      44.363 -18.822   4.474  1.00  0.00     0.078 A 
HETATM   31 CL   UNL     1      45.183 -18.315   5.900  1.00  0.00    -0.080 Cl
BRANCH  28  32
HETATM   32  C   UNL     1      44.305 -21.919   2.241  1.00  0.00     0.418 C 
HETATM   33  F   UNL     1      45.444 -21.949   1.504  1.00  0.00    -0.166 F 
HETATM   34  F   UNL     1      44.434 -22.859   3.205  1.00  0.00    -0.166 F 
HETATM   35  F   UNL     1      43.301 -22.312   1.423  1.00  0.00    -0.166 F 
ENDBRANCH  28  32
ENDBRANCH   5  24
TORSDOF 6
ENDMDL
MODEL 5
REMARK VINA RESULT:      -8.2      3.340      4.875
REMARK  6 active torsions:
REMARK  status: ('A' for Active; 'I' for Inactive)
REMARK    1  A    between atoms: C_4  and  C_5 
REMARK    2  A    between atoms: C_5  and  N_6 
REMARK    3  A    between atoms: C_5  and  C_25 
REMARK    4  A    between atoms: N_10  and  C_11 
REMARK    5  A    between atoms: C_15  and  C_16 
REMARK       I    between atoms: C_25  and  N_26 
REMARK    6  A    between atoms: N_26  and  C_27 
ROOT
HETATM    1  N   UNL     1      41.452 -14.112   3.442  1.00  0.00    -0.051 N 
HETATM    2  H   UNL     1      41.845 -13.578   4.241  1.00  0.00     0.281 HD
HETATM    3  C   UNL     1      40.869 -15.370   4.063  1.00  0.00     0.256 C 
HETATM    4  C   UNL     1      41.975 -16.134   4.824  1.00  0.00     0.152 C 
HETATM    5  N   UNL     1      43.158 -16.400   3.977  1.00  0.00    -0.363 N 
HETATM    6  C   UNL     1      43.664 -15.287   3.138  1.00  0.00     0.152 C 
HETATM    7  C   UNL     1      42.559 -14.424   2.471  1.00  0.00     0.256 C 
ENDROOT
BRANCH   1   8
HETATM    8  C   UNL     1      40.387 -13.103   2.907  1.00  0.00     0.312 C 
BRANCH   8   9
HETATM    9  C   UNL     1      40.031 -12.011   3.895  1.00  0.00    -0.018 A 
HETATM   10  C   UNL     1      38.915 -11.173   3.714  1.00  0.00     0.010 A 
HETATM   11  C   UNL     1      38.639 -10.150   4.622  1.00  0.00     0.001 A 
HETATM   12  C   UNL     1      39.467  -9.950   5.721  1.00  0.00     0.000 A 
HETATM   13  C   UNL     1      40.572 -10.772   5.920  1.00  0.00     0.001 A 
HETATM   14  C   UNL     1      40.854 -11.795   5.014  1.00  0.00     0.010 A 
ENDBRANCH   8   9
BRANCH   8  15
HETATM   15  C   UNL     1      40.847 -12.617   1.510  1.00  0.00     0.259 C 
HETATM   16  N   UNL     1      41.640 -11.497   1.488  1.00  0.00    -0.304 N 
HETATM   17  H   UNL     1      41.959 -11.023   2.324  1.00  0.00     0.171 HD
HETATM   18  O   UNL     1      40.404 -13.251   0.546  1.00  0.00    -0.270 OA
BRANCH  16  19
HETATM   19  C   UNL     1      42.090 -10.970   0.308  1.00  0.00     0.172 A 
HETATM   20  S   UNL     1      41.082  -9.766  -0.355  1.00  0.00    -0.062 SA
HETATM   21  C   UNL     1      42.172  -9.615  -1.672  1.00  0.00     0.072 A 
HETATM   22  C   UNL     1      43.224 -10.491  -1.501  1.00  0.00     0.126 A 
HETATM   23  N   UNL     1      43.174 -11.267  -0.356  1.00  0.00    -0.236 NA
ENDBRANCH  16  19
ENDBRANCH   8  15
ENDBRANCH   1   8
BRANCH   5  24
HETATM   24  C   UNL     1      43.456 -17.711   3.675  1.00  0.00     0.125 A 
HETATM   25  N   UNL     1      42.938 -18.173   2.519  1.00  0.00    -0.350 N 
HETATM   26  H   UNL     1      42.348 -17.526   1.995  1.00  0.00     0.166 HD
HETATM   27  C   UNL     1      43.122 -19.418   2.050  1.00  0.00     0.106 A 
HETATM   28  C   UNL     1      43.898 -20.325   2.762  1.00  0.00     0.065 A 
HETATM   29  C   UNL     1      44.451 -19.909   3.977  1.00  0.00     0.045 A 
HETATM   30  C   UNL     1      44.238 -18.606   4.433  1.00  0.00     0.078 A 
HETATM   31 CL   UNL     1      45.016 -18.136   5.895  1.00  0.00    -0.080 Cl
BRANCH  28  32
HETATM   32  C   UNL     1      44.088 -21.722   2.230  1.00  0.00     0.418 C 
HETATM   33  F   UNL     1      44.179 -22.625   3.239  1.00  0.00    -0.166 F 
HETATM   34  F   UNL     1      43.070 -22.120   1.434  1.00  0.00    -0.166 F 
HETATM   35  F   UNL     1      45.229 -21.824   1.511  1.00  0.00    -0.166 F 
ENDBRANCH  28  32
ENDBRANCH   5  24
TORSDOF 6
ENDMDL
MODEL 6
REMARK VINA RESULT:      -8.0      4.261      5.687
REMARK  6 active torsions:
REMARK  status: ('A' for Active; 'I' for Inactive)
REMARK    1  A    between atoms: C_4  and  C_5 
REMARK    2  A    between atoms: C_5  and  N_6 
REMARK    3  A    between atoms: C_5  and  C_25 
REMARK    4  A    between atoms: N_10  and  C_11 
REMARK    5  A    between atoms: C_15  and  C_16 
REMARK       I    between atoms: C_25  and  N_26 
REMARK    6  A    between atoms: N_26  and  C_27 
ROOT
HETATM    1  N   UNL     1      41.327 -13.469   3.781  1.00  0.00    -0.051 N 
HETATM    2  H   UNL     1      41.766 -13.077   4.636  1.00  0.00     0.281 HD
HETATM    3  C   UNL     1      40.670 -14.760   4.237  1.00  0.00     0.256 C 
HETATM    4  C   UNL     1      41.732 -15.692   4.861  1.00  0.00     0.152 C 
HETATM    5  N   UNL     1      42.883 -15.915   3.959  1.00  0.00    -0.363 N 
HETATM    6  C   UNL     1      43.451 -14.732   3.269  1.00  0.00     0.152 C 
HETATM    7  C   UNL     1      42.397 -13.715   2.751  1.00  0.00     0.256 C 
ENDROOT
BRANCH   1   8
HETATM    8  C   UNL     1      40.325 -12.329   3.414  1.00  0.00     0.312 C 
BRANCH   8   9
HETATM    9  C   UNL     1      39.384 -12.686   2.281  1.00  0.00    -0.018 A 
HETATM   10  C   UNL     1      38.906 -13.996   2.091  1.00  0.00     0.010 A 
HETATM   11  C   UNL     1      38.073 -14.299   1.012  1.00  0.00     0.001 A 
HETATM   12  C   UNL     1      37.705 -13.304   0.113  1.00  0.00     0.000 A 
HETATM   13  C   UNL     1      38.163 -12.002   0.289  1.00  0.00     0.001 A 
HETATM   14  C   UNL     1      38.998 -11.694   1.363  1.00  0.00     0.010 A 
ENDBRANCH   8   9
BRANCH   8  15
HETATM   15  C   UNL     1      39.647 -11.847   4.720  1.00  0.00     0.259 C 
HETATM   16  N   UNL     1      40.488 -11.459   5.732  1.00  0.00    -0.304 N 
HETATM   17  H   UNL     1      41.497 -11.436   5.641  1.00  0.00     0.171 HD
HETATM   18  O   UNL     1      38.413 -11.916   4.745  1.00  0.00    -0.270 OA
BRANCH  16  19
HETATM   19  C   UNL     1      39.999 -11.031   6.936  1.00  0.00     0.172 A 
HETATM   20  S   UNL     1      39.983  -9.337   7.128  1.00  0.00    -0.062 SA
HETATM   21  C   UNL     1      39.326  -9.548   8.700  1.00  0.00     0.072 A 
HETATM   22  C   UNL     1      39.165 -10.895   8.955  1.00  0.00     0.126 A 
HETATM   23  N   UNL     1      39.550 -11.745   7.933  1.00  0.00    -0.236 NA
ENDBRANCH  16  19
ENDBRANCH   8  15
ENDBRANCH   1   8
BRANCH   5  24
HETATM   24  C   UNL     1      43.088 -17.188   3.474  1.00  0.00     0.125 A 
HETATM   25  N   UNL     1      43.941 -17.951   4.187  1.00  0.00    -0.350 N 
HETATM   26  H   UNL     1      44.381 -17.508   4.994  1.00  0.00     0.166 HD
HETATM   27  C   UNL     1      44.264 -19.218   3.879  1.00  0.00     0.106 A 
HETATM   28  C   UNL     1      43.699 -19.831   2.767  1.00  0.00     0.065 A 
HETATM   29  C   UNL     1      42.817 -19.087   1.979  1.00  0.00     0.045 A 
HETATM   30  C   UNL     1      42.506 -17.771   2.329  1.00  0.00     0.078 A 
HETATM   31 CL   UNL     1      41.350 -16.939   1.362  1.00  0.00    -0.080 Cl
BRANCH  28  32
HETATM   32  C   UNL     1      44.077 -21.250   2.427  1.00  0.00     0.418 C 
HETATM   33  F   UNL     1      45.249 -21.298   1.744  1.00  0.00    -0.166 F 
HETATM   34  F   UNL     1      44.227 -22.028   3.523  1.00  0.00    -0.166 F 
HETATM   35  F   UNL     1      43.144 -21.834   1.640  1.00  0.00    -0.166 F 
ENDBRANCH  28  32
ENDBRANCH   5  24
TORSDOF 6
ENDMDL
MODEL 7
REMARK VINA RESULT:      -8.0      4.253      5.977
REMARK  6 active torsions:
REMARK  status: ('A' for Active; 'I' for Inactive)
REMARK    1  A    between atoms: C_4  and  C_5 
REMARK    2  A    between atoms: C_5  and  N_6 
REMARK    3  A    between atoms: C_5  and  C_25 
REMARK    4  A    between atoms: N_10  and  C_11 
REMARK    5  A    between atoms: C_15  and  C_16 
REMARK       I    between atoms: C_25  and  N_26 
REMARK    6  A    between atoms: N_26  and  C_27 
ROOT
HETATM    1  N   UNL     1      42.353 -13.952   5.108  1.00  0.00    -0.051 N 
HETATM    2  H   UNL     1      41.945 -13.746   6.040  1.00  0.00     0.281 HD
HETATM    3  C   UNL     1      41.540 -15.119   4.575  1.00  0.00     0.256 C 
HETATM    4  C   UNL     1      41.631 -16.307   5.558  1.00  0.00     0.152 C 
HETATM    5  N   UNL     1      43.030 -16.670   5.873  1.00  0.00    -0.363 N 
HETATM    6  C   UNL     1      43.973 -15.567   6.175  1.00  0.00     0.152 C 
HETATM    7  C   UNL     1      43.806 -14.309   5.280  1.00  0.00     0.256 C 
ENDROOT
BRANCH   1   8
HETATM    8  C   UNL     1      42.102 -12.599   4.370  1.00  0.00     0.312 C 
BRANCH   8   9
HETATM    9  C   UNL     1      41.369 -12.751   3.052  1.00  0.00    -0.018 A 
HETATM   10  C   UNL     1      39.964 -12.754   2.974  1.00  0.00     0.010 A 
HETATM   11  C   UNL     1      39.321 -12.937   1.749  1.00  0.00     0.001 A 
HETATM   12  C   UNL     1      40.067 -13.117   0.588  1.00  0.00     0.000 A 
HETATM   13  C   UNL     1      41.457 -13.110   0.646  1.00  0.00     0.001 A 
HETATM   14  C   UNL     1      42.105 -12.930   1.868  1.00  0.00     0.010 A 
ENDBRANCH   8   9
BRANCH   8  15
HETATM   15  C   UNL     1      41.465 -11.612   5.380  1.00  0.00     0.259 C 
HETATM   16  N   UNL     1      41.067 -12.146   6.579  1.00  0.00    -0.304 N 
HETATM   17  H   UNL     1      41.210 -13.116   6.834  1.00  0.00     0.171 HD
HETATM   18  O   UNL     1      41.323 -10.451   4.983  1.00  0.00    -0.270 OA
BRANCH  16  19
HETATM   19  C   UNL     1      40.476 -11.370   7.539  1.00  0.00     0.172 A 
HETATM   20  S   UNL     1      41.574 -10.560   8.563  1.00  0.00    -0.062 SA
HETATM   21  C   UNL     1      40.243  -9.881   9.409  1.00  0.00     0.072 A 
HETATM   22  C   UNL     1      39.064 -10.321   8.841  1.00  0.00     0.126 A 
HETATM   23  N   UNL     1      39.205 -11.175   7.762  1.00  0.00    -0.236 NA
ENDBRANCH  16  19
ENDBRANCH   8  15
ENDBRANCH   1   8
BRANCH   5  24
HETATM   24  C   UNL     1      43.486 -17.903   5.461  1.00  0.00     0.125 A 
HETATM   25  N   UNL     1      43.527 -18.856   6.415  1.00  0.00    -0.350 N 
HETATM   26  H   UNL     1      43.252 -18.570   7.354  1.00  0.00     0.166 HD
HETATM   27  C   UNL     1      43.935 -20.119   6.208  1.00  0.00     0.106 A 
HETATM   28  C   UNL     1      44.342 -20.522   4.941  1.00  0.00     0.065 A 
HETATM   29  C   UNL     1      44.336 -19.576   3.913  1.00  0.00     0.045 A 
HETATM   30  C   UNL     1      43.906 -18.271   4.166  1.00  0.00     0.078 A 
HETATM   31 CL   UNL     1      43.846 -17.179   2.836  1.00  0.00    -0.080 Cl
BRANCH  28  32
HETATM   32  C   UNL     1      44.806 -21.940   4.725  1.00  0.00     0.418 C 
HETATM   33  F   UNL     1      44.860 -22.244   3.403  1.00  0.00    -0.166 F 
HETATM   34  F   UNL     1      46.038 -22.169   5.233  1.00  0.00    -0.166 F 
HETATM   35  F   UNL     1      43.960 -22.828   5.295  1.00  0.00    -0.166 F 
ENDBRANCH  28  32
ENDBRANCH   5  24
TORSDOF 6
ENDMDL
MODEL 8
REMARK VINA RESULT:      -8.0      2.421      4.538
REMARK  6 active torsions:
REMARK  status: ('A' for Active; 'I' for Inactive)
REMARK    1  A    between atoms: C_4  and  C_5 
REMARK    2  A    between atoms: C_5  and  N_6 
REMARK    3  A    between atoms: C_5  and  C_25 
REMARK    4  A    between atoms: N_10  and  C_11 
REMARK    5  A    between atoms: C_15  and  C_16 
REMARK       I    between atoms: C_25  and  N_26 
REMARK    6  A    between atoms: N_26  and  C_27 
ROOT
HETATM    1  N   UNL     1      40.234 -14.874   0.023  1.00  0.00    -0.051 N 
HETATM    2  H   UNL     1      39.805 -15.583  -0.602  1.00  0.00     0.281 HD
HETATM    3  C   UNL     1      41.722 -15.179  -0.006  1.00  0.00     0.256 C 
HETATM    4  C   UNL     1      41.964 -16.631   0.459  1.00  0.00     0.152 C 
HETATM    5  N   UNL     1      41.341 -16.913   1.770  1.00  0.00    -0.363 N 
HETATM    6  C   UNL     1      39.953 -16.436   1.985  1.00  0.00     0.152 C 
HETATM    7  C   UNL     1      39.655 -15.027   1.404  1.00  0.00     0.256 C 
ENDROOT
BRANCH   1   8
HETATM    8  C   UNL     1      39.831 -13.553  -0.705  1.00  0.00     0.312 C 
BRANCH   8   9
HETATM    9  C   UNL     1      40.985 -12.593  -0.910  1.00  0.00    -0.018 A 
HETATM   10  C   UNL     1      41.724 -12.555  -2.107  1.00  0.00     0.010 A 
HETATM   11  C   UNL     1      42.808 -11.687  -2.246  1.00  0.00     0.001 A 
HETATM   12  C   UNL     1      43.167 -10.844  -1.199  1.00  0.00     0.000 A 
HETATM   13  C   UNL     1      42.444 -10.863  -0.010  1.00  0.00     0.001 A 
HETATM   14  C   UNL     1      41.362 -11.731   0.136  1.00  0.00     0.010 A 
ENDBRANCH   8   9
BRANCH   8  15
HETATM   15  C   UNL     1      39.041 -13.932  -1.983  1.00  0.00     0.259 C 
HETATM   16  N   UNL     1      37.959 -13.143  -2.283  1.00  0.00    -0.304 N 
HETATM   17  H   UNL     1      37.697 -12.327  -1.743  1.00  0.00     0.171 HD
HETATM   18  O   UNL     1      39.427 -14.945  -2.575  1.00  0.00    -0.270 OA
BRANCH  16  19
HETATM   19  C   UNL     1      37.179 -13.396  -3.378  1.00  0.00     0.172 A 
HETATM   20  S   UNL     1      36.617 -12.000  -4.179  1.00  0.00    -0.062 SA
HETATM   21  C   UNL     1      35.799 -13.006  -5.304  1.00  0.00     0.072 A 
HETATM   22  C   UNL     1      36.024 -14.330  -4.985  1.00  0.00     0.126 A 
HETATM   23  N   UNL     1      36.823 -14.549  -3.877  1.00  0.00    -0.236 NA
ENDBRANCH  16  19
ENDBRANCH   8  15
ENDBRANCH   1   8
BRANCH   5  24
HETATM   24  C   UNL     1      42.170 -17.192   2.835  1.00  0.00     0.125 A 
HETATM   25  N   UNL     1      42.238 -16.236   3.784  1.00  0.00    -0.350 N 
HETATM   26  H   UNL     1      41.702 -15.386   3.612  1.00  0.00     0.166 HD
HETATM   27  C   UNL     1      42.984 -16.326   4.898  1.00  0.00     0.106 A 
HETATM   28  C   UNL     1      43.745 -17.464   5.138  1.00  0.00     0.065 A 
HETATM   29  C   UNL     1      43.727 -18.485   4.184  1.00  0.00     0.045 A 
HETATM   30  C   UNL     1      42.940 -18.356   3.037  1.00  0.00     0.078 A 
HETATM   31 CL   UNL     1      42.900 -19.685   1.943  1.00  0.00    -0.080 Cl
BRANCH  28  32
HETATM   32  C   UNL     1      44.585 -17.548   6.387  1.00  0.00     0.418 C 
HETATM   33  F   UNL     1      44.839 -16.315   6.894  1.00  0.00    -0.166 F 
HETATM   34  F   UNL     1      43.991 -18.264   7.369  1.00  0.00    -0.166 F 
HETATM   35  F   UNL     1      45.785 -18.121   6.136  1.00  0.00    -0.166 F 
ENDBRANCH  28  32
ENDBRANCH   5  24
TORSDOF 6
ENDMDL
MODEL 9
REMARK VINA RESULT:      -7.9      5.080      8.494
REMARK  6 active torsions:
REMARK  status: ('A' for Active; 'I' for Inactive)
REMARK    1  A    between atoms: C_4  and  C_5 
REMARK    2  A    between atoms: C_5  and  N_6 
REMARK    3  A    between atoms: C_5  and  C_25 
REMARK    4  A    between atoms: N_10  and  C_11 
REMARK    5  A    between atoms: C_15  and  C_16 
REMARK       I    between atoms: C_25  and  N_26 
REMARK    6  A    between atoms: N_26  and  C_27 
ROOT
HETATM    1  N   UNL     1      41.370 -16.988   2.245  1.00  0.00    -0.051 N 
HETATM    2  H   UNL     1      40.536 -17.511   1.916  1.00  0.00     0.281 HD
HETATM    3  C   UNL     1      40.867 -15.580   2.513  1.00  0.00     0.256 C 
HETATM    4  C   UNL     1      40.248 -14.995   1.225  1.00  0.00     0.152 C 
HETATM    5  N   UNL     1      41.172 -15.071   0.073  1.00  0.00    -0.363 N 
HETATM    6  C   UNL     1      41.904 -16.344  -0.136  1.00  0.00     0.152 C 
HETATM    7  C   UNL     1      42.420 -17.015   1.166  1.00  0.00     0.256 C 
ENDROOT
BRANCH   1   8
HETATM    8  C   UNL     1      41.740 -17.797   3.528  1.00  0.00     0.312 C 
BRANCH   8   9
HETATM    9  C   UNL     1      42.805 -18.850   3.300  1.00  0.00    -0.018 A 
HETATM   10  C   UNL     1      42.851 -19.625   2.126  1.00  0.00     0.010 A 
HETATM   11  C   UNL     1      43.822 -20.615   1.965  1.00  0.00     0.001 A 
HETATM   12  C   UNL     1      44.759 -20.844   2.968  1.00  0.00     0.000 A 
HETATM   13  C   UNL     1      44.732 -20.083   4.133  1.00  0.00     0.001 A 
HETATM   14  C   UNL     1      43.763 -19.094   4.300  1.00  0.00     0.010 A 
ENDBRANCH   8   9
BRANCH   8  15
HETATM   15  C   UNL     1      42.030 -16.786   4.665  1.00  0.00     0.259 C 
HETATM   16  N   UNL     1      43.232 -16.128   4.598  1.00  0.00    -0.304 N 
HETATM   17  H   UNL     1      43.890 -16.243   3.836  1.00  0.00     0.171 HD
HETATM   18  O   UNL     1      41.177 -16.716   5.556  1.00  0.00    -0.270 OA
BRANCH  16  19
HETATM   19  C   UNL     1      43.601 -15.225   5.557  1.00  0.00     0.172 A 
HETATM   20  S   UNL     1      42.954 -13.662   5.340  1.00  0.00    -0.062 SA
HETATM   21  C   UNL     1      43.776 -13.154   6.759  1.00  0.00     0.072 A 
HETATM   22  C   UNL     1      44.475 -14.217   7.292  1.00  0.00     0.126 A 
HETATM   23  N   UNL     1      44.368 -15.409   6.598  1.00  0.00    -0.236 NA
ENDBRANCH  16  19
ENDBRANCH   8  15
ENDBRANCH   1   8
BRANCH   5  24
HETATM   24  C   UNL     1      41.632 -13.890  -0.467  1.00  0.00     0.125 A 
HETATM   25  N   UNL     1      41.964 -12.934   0.425  1.00  0.00    -0.350 N 
HETATM   26  H   UNL     1      41.812 -13.158   1.408  1.00  0.00     0.166 HD
HETATM   27  C   UNL     1      42.436 -11.721   0.095  1.00  0.00     0.106 A 
HETATM   28  C   UNL     1      42.623 -11.384  -1.240  1.00  0.00     0.065 A 
HETATM   29  C   UNL     1      42.284 -12.328  -2.213  1.00  0.00     0.045 A 
HETATM   30  C   UNL     1      41.794 -13.580  -1.833  1.00  0.00     0.078 A 
HETATM   31 CL   UNL     1      41.474 -14.723  -3.079  1.00  0.00    -0.080 Cl
BRANCH  28  32
HETATM   32  C   UNL     1      43.145 -10.016  -1.597  1.00  0.00     0.418 C 
HETATM   33  F   UNL     1      42.393  -9.038  -1.031  1.00  0.00    -0.166 F 
HETATM   34  F   UNL     1      44.419  -9.820  -1.189  1.00  0.00    -0.166 F 
HETATM   35  F   UNL     1      43.112  -9.808  -2.934  1.00  0.00    -0.166 F 
ENDBRANCH  28  32
ENDBRANCH   5  24
TORSDOF 6
ENDMDL
MODEL 10
REMARK VINA RESULT:      -7.9      1.699      2.092
REMARK  6 active torsions:
REMARK  status: ('A' for Active; 'I' for Inactive)
REMARK    1  A    between atoms: C_4  and  C_5 
REMARK    2  A    between atoms: C_5  and  N_6 
REMARK    3  A    between atoms: C_5  and  C_25 
REMARK    4  A    between atoms: N_10  and  C_11 
REMARK    5  A    between atoms: C_15  and  C_16 
REMARK       I    between atoms: C_25  and  N_26 
REMARK    6  A    between atoms: N_26  and  C_27 
ROOT
HETATM    1  N   UNL     1      40.534 -15.207  -0.126  1.00  0.00    -0.051 N 
HETATM    2  H   UNL     1      39.639 -15.710  -0.283  1.00  0.00     0.281 HD
HETATM    3  C   UNL     1      41.531 -16.293   0.239  1.00  0.00     0.256 C 
HETATM    4  C   UNL     1      41.034 -17.058   1.485  1.00  0.00     0.152 C 
HETATM    5  N   UNL     1      40.722 -16.153   2.613  1.00  0.00    -0.363 N 
HETATM    6  C   UNL     1      39.947 -14.925   2.312  1.00  0.00     0.152 C 
HETATM    7  C   UNL     1      40.347 -14.214   0.990  1.00  0.00     0.256 C 
ENDROOT
BRANCH   1   8
HETATM    8  C   UNL     1      40.763 -14.565  -1.531  1.00  0.00     0.312 C 
BRANCH   8   9
HETATM    9  C   UNL     1      39.669 -14.878  -2.531  1.00  0.00    -0.018 A 
HETATM   10  C   UNL     1      39.824 -15.860  -3.527  1.00  0.00     0.010 A 
HETATM   11  C   UNL     1      38.812 -16.094  -4.458  1.00  0.00     0.001 A 
HETATM   12  C   UNL     1      37.633 -15.358  -4.408  1.00  0.00     0.000 A 
HETATM   13  C   UNL     1      37.459 -14.387  -3.426  1.00  0.00     0.001 A 
HETATM   14  C   UNL     1      38.469 -14.147  -2.495  1.00  0.00     0.010 A 
ENDBRANCH   8   9
BRANCH   8  15
HETATM   15  C   UNL     1      41.073 -13.062  -1.326  1.00  0.00     0.259 C 
HETATM   16  N   UNL     1      42.378 -12.680  -1.511  1.00  0.00    -0.304 N 
HETATM   17  H   UNL     1      43.108 -13.316  -1.809  1.00  0.00     0.171 HD
HETATM   18  O   UNL     1      40.124 -12.361  -0.956  1.00  0.00    -0.270 OA
BRANCH  16  19
HETATM   19  C   UNL     1      42.768 -11.380  -1.339  1.00  0.00     0.172 A 
HETATM   20  S   UNL     1      42.667 -10.423  -2.747  1.00  0.00    -0.062 SA
HETATM   21  C   UNL     1      43.262  -9.086  -1.849  1.00  0.00     0.072 A 
HETATM   22  C   UNL     1      43.486  -9.472  -0.543  1.00  0.00     0.126 A 
HETATM   23  N   UNL     1      43.195 -10.794  -0.254  1.00  0.00    -0.236 NA
ENDBRANCH  16  19
ENDBRANCH   8  15
ENDBRANCH   1   8
BRANCH   5  24
HETATM   24  C   UNL     1      41.495 -16.246   3.750  1.00  0.00     0.125 A 
HETATM   25  N   UNL     1      41.013 -17.053   4.716  1.00  0.00    -0.350 N 
HETATM   26  H   UNL     1      40.110 -17.491   4.534  1.00  0.00     0.166 HD
HETATM   27  C   UNL     1      41.624 -17.278   5.891  1.00  0.00     0.106 A 
HETATM   28  C   UNL     1      42.842 -16.669   6.172  1.00  0.00     0.065 A 
HETATM   29  C   UNL     1      43.387 -15.809   5.215  1.00  0.00     0.045 A 
HETATM   30  C   UNL     1      42.722 -15.598   4.004  1.00  0.00     0.078 A 
HETATM   31 CL   UNL     1      43.489 -14.592   2.837  1.00  0.00    -0.080 Cl
BRANCH  28  32
HETATM   32  C   UNL     1      43.512 -16.922   7.498  1.00  0.00     0.418 C 
HETATM   33  F   UNL     1      43.806 -15.758   8.132  1.00  0.00    -0.166 F 
HETATM   34  F   UNL     1      42.744 -17.648   8.342  1.00  0.00    -0.166 F 
HETATM   35  F   UNL     1      44.681 -17.586   7.341  1.00  0.00    -0.166 F 
ENDBRANCH  28  32
ENDBRANCH   5  24
TORSDOF 6
ENDMDL
