MODEL 1
REMARK VINA RESULT:      -8.5      0.000      0.000
REMARK  9 active torsions:
REMARK  status: ('A' for Active; 'I' for Inactive)
REMARK    1  A    between atoms: C_2  and  O_3 
REMARK    2  A    between atoms: O_3  and  C_4 
REMARK    3  A    between atoms: C_4  and  C_5 
REMARK    4  A    between atoms: C_8  and  N_9 
REMARK       I    between atoms: N_9  and  C_10 
REMARK    5  A    between atoms: C_10  and  C_11 
REMARK       I    between atoms: C_11  and  N_12 
REMARK    6  A    between atoms: N_12  and  C_13 
REMARK    7  A    between atoms: C_13  and  C_14 
REMARK    8  A    between atoms: C_14  and  C_15 
REMARK    9  A    between atoms: C_18  and  O_19 
ROOT
HETATM    1  C   UNL     1      45.277 -13.524   7.322  1.00  0.00     0.309 C 
HETATM    2  N   UNL     1      44.389 -14.544   7.566  1.00  0.00    -0.352 N 
HETATM    3  O   UNL     1      46.104 -13.478   6.421  1.00  0.00    -0.262 OA
HETATM    4  H   UNL     1      43.780 -14.429   8.373  1.00  0.00     0.162 HD
ENDROOT
BRANCH   1   5
HETATM    5  C   UNL     1      45.202 -12.371   8.347  1.00  0.00     0.313 C 
HETATM    6  N   UNL     1      44.014 -12.391   9.046  1.00  0.00    -0.319 N 
HETATM    7  H   UNL     1      43.402 -13.169   8.803  1.00  0.00     0.169 HD
HETATM    8  O   UNL     1      46.135 -11.586   8.420  1.00  0.00    -0.262 OA
BRANCH   6   9
HETATM    9  C   UNL     1      43.550 -11.461   9.989  1.00  0.00     0.035 A 
HETATM   10  C   UNL     1      44.077 -11.334  11.276  1.00  0.00     0.030 A 
HETATM   11  C   UNL     1      43.585 -10.354  12.148  1.00  0.00     0.020 A 
HETATM   12  C   UNL     1      42.559  -9.491  11.744  1.00  0.00     0.039 A 
HETATM   13  C   UNL     1      42.022  -9.627  10.460  1.00  0.00     0.020 A 
HETATM   14  C   UNL     1      42.517 -10.606   9.590  1.00  0.00     0.030 A 
BRANCH  12  15
HETATM   15  C   UNL     1      42.093  -8.452  12.703  1.00  0.00     0.293 C 
HETATM   16  O   UNL     1      42.621  -7.358  12.819  1.00  0.00    -0.259 OA
BRANCH  15  17
HETATM   17  O   UNL     1      41.018  -8.896  13.399  1.00  0.00    -0.318 OA
BRANCH  17  18
HETATM   18  C   UNL     1      41.075  -8.708  14.821  1.00  0.00     0.174 C 
HETATM   19  C   UNL     1      42.009  -9.725  15.450  1.00  0.00     0.034 C 
ENDBRANCH  17  18
ENDBRANCH  15  17
ENDBRANCH  12  15
ENDBRANCH   6   9
ENDBRANCH   1   5
BRANCH   2  20
HETATM   20  C   UNL     1      44.367 -15.773   6.799  1.00  0.00     0.137 C 
BRANCH  20  21
HETATM   21  C   UNL     1      43.007 -16.109   6.132  1.00  0.00     0.003 C 
HETATM   22  C   UNL     1      41.965 -16.717   7.108  1.00  0.00     0.016 C 
HETATM   23  C   UNL     1      40.619 -16.533   6.405  1.00  0.00     0.001 C 
HETATM   24  C   UNL     1      40.783 -15.290   5.530  1.00  0.00     0.001 C 
HETATM   25  C   UNL     1      42.225 -14.827   5.741  1.00  0.00     0.016 C 
BRANCH  21  26
HETATM   26  C   UNL     1      43.308 -17.053   4.947  1.00  0.00    -0.048 A 
HETATM   27  C   UNL     1      43.572 -18.417   5.172  1.00  0.00     0.011 A 
HETATM   28  C   UNL     1      43.867 -19.286   4.116  1.00  0.00     0.037 A 
HETATM   29  C   UNL     1      43.929 -18.820   2.806  1.00  0.00     0.068 A 
HETATM   30  C   UNL     1      43.701 -17.468   2.564  1.00  0.00     0.037 A 
HETATM   31  C   UNL     1      43.402 -16.597   3.621  1.00  0.00     0.011 A 
BRANCH  29  32
HETATM   32  O   UNL     1      44.227 -19.770   1.870  1.00  0.00    -0.356 OA
HETATM   33  C   UNL     1      44.274 -21.118   2.315  1.00  0.00     0.210 C 
ENDBRANCH  29  32
ENDBRANCH  21  26
ENDBRANCH  20  21
ENDBRANCH   2  20
TORSDOF 9
ENDMDL
MODEL 2
REMARK VINA RESULT:      -7.9      6.919     10.560
REMARK  9 active torsions:
REMARK  status: ('A' for Active; 'I' for Inactive)
REMARK    1  A    between atoms: C_2  and  O_3 
REMARK    2  A    between atoms: O_3  and  C_4 
REMARK    3  A    between atoms: C_4  and  C_5 
REMARK    4  A    between atoms: C_8  and  N_9 
REMARK       I    between atoms: N_9  and  C_10 
REMARK    5  A    between atoms: C_10  and  C_11 
REMARK       I    between atoms: C_11  and  N_12 
REMARK    6  A    between atoms: N_12  and  C_13 
REMARK    7  A    between atoms: C_13  and  C_14 
REMARK    8  A    between atoms: C_14  and  C_15 
REMARK    9  A    between atoms: C_18  and  O_19 
ROOT
HETATM    1  C   UNL     1      41.990 -12.981   2.374  1.00  0.00     0.309 C 
HETATM    2  N   UNL     1      42.043 -12.563   1.066  1.00  0.00    -0.352 N 
HETATM    3  O   UNL     1      41.304 -12.498   3.265  1.00  0.00    -0.262 OA
HETATM    4  H   UNL     1      42.685 -13.067   0.456  1.00  0.00     0.162 HD
ENDROOT
BRANCH   1   5
HETATM    5  C   UNL     1      42.946 -14.150   2.697  1.00  0.00     0.313 C 
HETATM    6  N   UNL     1      42.415 -15.361   2.306  1.00  0.00    -0.319 N 
HETATM    7  H   UNL     1      41.509 -15.289   1.846  1.00  0.00     0.169 HD
HETATM    8  O   UNL     1      44.007 -13.908   3.253  1.00  0.00    -0.262 OA
BRANCH   6   9
HETATM    9  C   UNL     1      42.946 -16.644   2.512  1.00  0.00     0.035 A 
HETATM   10  C   UNL     1      43.620 -17.370   1.529  1.00  0.00     0.030 A 
HETATM   11  C   UNL     1      44.155 -18.631   1.822  1.00  0.00     0.020 A 
HETATM   12  C   UNL     1      44.020 -19.182   3.102  1.00  0.00     0.039 A 
HETATM   13  C   UNL     1      43.332 -18.461   4.084  1.00  0.00     0.020 A 
HETATM   14  C   UNL     1      42.800 -17.200   3.788  1.00  0.00     0.030 A 
BRANCH  12  15
HETATM   15  C   UNL     1      44.630 -20.513   3.365  1.00  0.00     0.293 C 
HETATM   16  O   UNL     1      44.657 -21.416   2.543  1.00  0.00    -0.259 OA
BRANCH  15  17
HETATM   17  O   UNL     1      45.146 -20.562   4.618  1.00  0.00    -0.318 OA
BRANCH  17  18
HETATM   18  C   UNL     1      44.741 -21.685   5.415  1.00  0.00     0.174 C 
HETATM   19  C   UNL     1      43.872 -21.226   6.570  1.00  0.00     0.034 C 
ENDBRANCH  17  18
ENDBRANCH  15  17
ENDBRANCH  12  15
ENDBRANCH   6   9
ENDBRANCH   1   5
BRANCH   2  20
HETATM   20  C   UNL     1      41.318 -11.410   0.574  1.00  0.00     0.137 C 
BRANCH  20  21
HETATM   21  C   UNL     1      41.630 -11.013  -0.893  1.00  0.00     0.003 C 
HETATM   22  C   UNL     1      41.015  -9.653  -1.318  1.00  0.00     0.016 C 
HETATM   23  C   UNL     1      41.799  -9.244  -2.565  1.00  0.00     0.001 C 
HETATM   24  C   UNL     1      43.180  -9.878  -2.405  1.00  0.00     0.001 C 
HETATM   25  C   UNL     1      43.126 -10.652  -1.087  1.00  0.00     0.016 C 
BRANCH  21  26
HETATM   26  C   UNL     1      41.138 -12.173  -1.787  1.00  0.00    -0.048 A 
HETATM   27  C   UNL     1      42.053 -13.104  -2.313  1.00  0.00     0.011 A 
HETATM   28  C   UNL     1      41.632 -14.151  -3.140  1.00  0.00     0.037 A 
HETATM   29  C   UNL     1      40.292 -14.292  -3.486  1.00  0.00     0.068 A 
HETATM   30  C   UNL     1      39.373 -13.365  -3.001  1.00  0.00     0.037 A 
HETATM   31  C   UNL     1      39.793 -12.317  -2.169  1.00  0.00     0.011 A 
BRANCH  29  32
HETATM   32  O   UNL     1      40.014 -15.354  -4.300  1.00  0.00    -0.356 OA
HETATM   33  C   UNL     1      38.885 -16.146  -3.960  1.00  0.00     0.210 C 
ENDBRANCH  29  32
ENDBRANCH  21  26
ENDBRANCH  20  21
ENDBRANCH   2  20
TORSDOF 9
ENDMDL
MODEL 3
REMARK VINA RESULT:      -7.7      7.365     11.329
REMARK  9 active torsions:
REMARK  status: ('A' for Active; 'I' for Inactive)
REMARK    1  A    between atoms: C_2  and  O_3 
REMARK    2  A    between atoms: O_3  and  C_4 
REMARK    3  A    between atoms: C_4  and  C_5 
REMARK    4  A    between atoms: C_8  and  N_9 
REMARK       I    between atoms: N_9  and  C_10 
REMARK    5  A    between atoms: C_10  and  C_11 
REMARK       I    between atoms: C_11  and  N_12 
REMARK    6  A    between atoms: N_12  and  C_13 
REMARK    7  A    between atoms: C_13  and  C_14 
REMARK    8  A    between atoms: C_14  and  C_15 
REMARK    9  A    between atoms: C_18  and  O_19 
ROOT
HETATM    1  C   UNL     1      41.532 -13.100   0.944  1.00  0.00     0.309 C 
HETATM    2  N   UNL     1      40.535 -13.796   0.305  1.00  0.00    -0.352 N 
HETATM    3  O   UNL     1      41.774 -11.905   0.830  1.00  0.00    -0.262 OA
HETATM    4  H   UNL     1      40.484 -14.794   0.499  1.00  0.00     0.162 HD
ENDROOT
BRANCH   1   5
HETATM    5  C   UNL     1      42.428 -13.977   1.846  1.00  0.00     0.313 C 
HETATM    6  N   UNL     1      42.227 -15.320   1.608  1.00  0.00    -0.319 N 
HETATM    7  H   UNL     1      41.557 -15.515   0.865  1.00  0.00     0.169 HD
HETATM    8  O   UNL     1      43.168 -13.431   2.651  1.00  0.00    -0.262 OA
BRANCH   6   9
HETATM    9  C   UNL     1      42.789 -16.411   2.288  1.00  0.00     0.035 A 
HETATM   10  C   UNL     1      42.590 -16.663   3.647  1.00  0.00     0.030 A 
HETATM   11  C   UNL     1      43.154 -17.796   4.247  1.00  0.00     0.020 A 
HETATM   12  C   UNL     1      43.926 -18.690   3.495  1.00  0.00     0.039 A 
HETATM   13  C   UNL     1      44.138 -18.431   2.137  1.00  0.00     0.020 A 
HETATM   14  C   UNL     1      43.571 -17.298   1.540  1.00  0.00     0.030 A 
BRANCH  12  15
HETATM   15  C   UNL     1      44.480 -19.890   4.178  1.00  0.00     0.293 C 
HETATM   16  O   UNL     1      44.353 -20.103   5.374  1.00  0.00    -0.259 OA
BRANCH  15  17
HETATM   17  O   UNL     1      45.119 -20.691   3.290  1.00  0.00    -0.318 OA
BRANCH  17  18
HETATM   18  C   UNL     1      44.456 -21.925   2.975  1.00  0.00     0.174 C 
HETATM   19  C   UNL     1      44.032 -21.938   1.518  1.00  0.00     0.034 C 
ENDBRANCH  17  18
ENDBRANCH  15  17
ENDBRANCH  12  15
ENDBRANCH   6   9
ENDBRANCH   1   5
BRANCH   2  20
HETATM   20  C   UNL     1      39.653 -13.194  -0.675  1.00  0.00     0.137 C 
BRANCH  20  21
HETATM   21  C   UNL     1      39.740 -13.801  -2.100  1.00  0.00     0.003 C 
HETATM   22  C   UNL     1      40.502 -15.152  -2.160  1.00  0.00     0.016 C 
HETATM   23  C   UNL     1      40.078 -15.779  -3.489  1.00  0.00     0.001 C 
HETATM   24  C   UNL     1      38.674 -15.241  -3.764  1.00  0.00     0.001 C 
HETATM   25  C   UNL     1      38.359 -14.301  -2.599  1.00  0.00     0.016 C 
BRANCH  21  26
HETATM   26  C   UNL     1      40.391 -12.730  -3.005  1.00  0.00    -0.048 A 
HETATM   27  C   UNL     1      39.590 -11.858  -3.765  1.00  0.00     0.011 A 
HETATM   28  C   UNL     1      40.157 -10.894  -4.605  1.00  0.00     0.037 A 
HETATM   29  C   UNL     1      41.538 -10.783  -4.731  1.00  0.00     0.068 A 
HETATM   30  C   UNL     1      42.350 -11.655  -4.011  1.00  0.00     0.037 A 
HETATM   31  C   UNL     1      41.782 -12.619  -3.166  1.00  0.00     0.011 A 
BRANCH  29  32
HETATM   32  O   UNL     1      41.962  -9.803  -5.584  1.00  0.00    -0.356 OA
HETATM   33  C   UNL     1      42.303  -8.551  -5.006  1.00  0.00     0.210 C 
ENDBRANCH  29  32
ENDBRANCH  21  26
ENDBRANCH  20  21
ENDBRANCH   2  20
TORSDOF 9
ENDMDL
MODEL 4
REMARK VINA RESULT:      -7.7      2.942     10.421
REMARK  9 active torsions:
REMARK  status: ('A' for Active; 'I' for Inactive)
REMARK    1  A    between atoms: C_2  and  O_3 
REMARK    2  A    between atoms: O_3  and  C_4 
REMARK    3  A    between atoms: C_4  and  C_5 
REMARK    4  A    between atoms: C_8  and  N_9 
REMARK       I    between atoms: N_9  and  C_10 
REMARK    5  A    between atoms: C_10  and  C_11 
REMARK       I    between atoms: C_11  and  N_12 
REMARK    6  A    between atoms: N_12  and  C_13 
REMARK    7  A    between atoms: C_13  and  C_14 
REMARK    8  A    between atoms: C_14  and  C_15 
REMARK    9  A    between atoms: C_18  and  O_19 
ROOT
HETATM    1  C   UNL     1      39.457 -12.691   6.060  1.00  0.00     0.309 C 
HETATM    2  N   UNL     1      40.032 -12.396   7.273  1.00  0.00    -0.352 N 
HETATM    3  O   UNL     1      38.546 -12.079   5.518  1.00  0.00    -0.262 OA
HETATM    4  H   UNL     1      40.770 -13.022   7.587  1.00  0.00     0.162 HD
ENDROOT
BRANCH   1   5
HETATM    5  C   UNL     1      40.032 -13.956   5.387  1.00  0.00     0.313 C 
HETATM    6  N   UNL     1      40.847 -14.661   6.246  1.00  0.00    -0.319 N 
HETATM    7  H   UNL     1      40.913 -14.261   7.180  1.00  0.00     0.169 HD
HETATM    8  O   UNL     1      39.745 -14.187   4.222  1.00  0.00    -0.262 OA
BRANCH   6   9
HETATM    9  C   UNL     1      41.612 -15.805   5.968  1.00  0.00     0.035 A 
HETATM   10  C   UNL     1      41.062 -17.031   5.586  1.00  0.00     0.030 A 
HETATM   11  C   UNL     1      41.894 -18.118   5.289  1.00  0.00     0.020 A 
HETATM   12  C   UNL     1      43.286 -17.993   5.372  1.00  0.00     0.039 A 
HETATM   13  C   UNL     1      43.837 -16.770   5.768  1.00  0.00     0.020 A 
HETATM   14  C   UNL     1      43.002 -15.685   6.063  1.00  0.00     0.030 A 
BRANCH  12  15
HETATM   15  C   UNL     1      44.122 -19.173   5.020  1.00  0.00     0.293 C 
HETATM   16  O   UNL     1      44.500 -19.998   5.836  1.00  0.00    -0.259 OA
BRANCH  15  17
HETATM   17  O   UNL     1      44.381 -19.192   3.689  1.00  0.00    -0.318 OA
BRANCH  17  18
HETATM   18  C   UNL     1      44.512 -20.494   3.099  1.00  0.00     0.174 C 
HETATM   19  C   UNL     1      43.576 -20.630   1.912  1.00  0.00     0.034 C 
ENDBRANCH  17  18
ENDBRANCH  15  17
ENDBRANCH  12  15
ENDBRANCH   6   9
ENDBRANCH   1   5
BRANCH   2  20
HETATM   20  C   UNL     1      39.568 -11.322   8.127  1.00  0.00     0.137 C 
BRANCH  20  21
HETATM   21  C   UNL     1      40.404 -10.016   8.055  1.00  0.00     0.003 C 
HETATM   22  C   UNL     1      41.153  -9.825   6.710  1.00  0.00     0.016 C 
HETATM   23  C   UNL     1      41.501  -8.336   6.667  1.00  0.00     0.001 C 
HETATM   24  C   UNL     1      40.413  -7.639   7.483  1.00  0.00     0.001 C 
HETATM   25  C   UNL     1      39.500  -8.757   7.989  1.00  0.00     0.016 C 
BRANCH  21  26
HETATM   26  C   UNL     1      41.373 -10.037   9.259  1.00  0.00    -0.048 A 
HETATM   27  C   UNL     1      41.031  -9.389  10.460  1.00  0.00     0.011 A 
HETATM   28  C   UNL     1      41.901  -9.379  11.556  1.00  0.00     0.037 A 
HETATM   29  C   UNL     1      43.147  -9.994  11.481  1.00  0.00     0.068 A 
HETATM   30  C   UNL     1      43.519 -10.615  10.292  1.00  0.00     0.037 A 
HETATM   31  C   UNL     1      42.645 -10.629   9.195  1.00  0.00     0.011 A 
BRANCH  29  32
HETATM   32  O   UNL     1      43.900  -9.910  12.619  1.00  0.00    -0.356 OA
HETATM   33  C   UNL     1      43.249  -9.427  13.786  1.00  0.00     0.210 C 
ENDBRANCH  29  32
ENDBRANCH  21  26
ENDBRANCH  20  21
ENDBRANCH   2  20
TORSDOF 9
ENDMDL
MODEL 5
REMARK VINA RESULT:      -7.7      1.465     10.646
REMARK  9 active torsions:
REMARK  status: ('A' for Active; 'I' for Inactive)
REMARK    1  A    between atoms: C_2  and  O_3 
REMARK    2  A    between atoms: O_3  and  C_4 
REMARK    3  A    between atoms: C_4  and  C_5 
REMARK    4  A    between atoms: C_8  and  N_9 
REMARK       I    between atoms: N_9  and  C_10 
REMARK    5  A    between atoms: C_10  and  C_11 
REMARK       I    between atoms: C_11  and  N_12 
REMARK    6  A    between atoms: N_12  and  C_13 
REMARK    7  A    between atoms: C_13  and  C_14 
REMARK    8  A    between atoms: C_14  and  C_15 
REMARK    9  A    between atoms: C_18  and  O_19 
ROOT
HETATM    1  C   UNL     1      44.683 -12.676   8.636  1.00  0.00     0.309 C 
HETATM    2  N   UNL     1      43.646 -11.784   8.494  1.00  0.00    -0.352 N 
HETATM    3  O   UNL     1      45.467 -12.737   9.573  1.00  0.00    -0.262 OA
HETATM    4  H   UNL     1      43.099 -11.859   7.639  1.00  0.00     0.162 HD
ENDROOT
BRANCH   1   5
HETATM    5  C   UNL     1      44.847 -13.639   7.440  1.00  0.00     0.313 C 
HETATM    6  N   UNL     1      43.964 -14.695   7.515  1.00  0.00    -0.319 N 
HETATM    7  H   UNL     1      43.333 -14.654   8.314  1.00  0.00     0.169 HD
HETATM    8  O   UNL     1      45.706 -13.400   6.604  1.00  0.00    -0.262 OA
BRANCH   6   9
HETATM    9  C   UNL     1      43.875 -15.809   6.666  1.00  0.00     0.035 A 
HETATM   10  C   UNL     1      43.029 -15.873   5.557  1.00  0.00     0.030 A 
HETATM   11  C   UNL     1      43.024 -17.007   4.735  1.00  0.00     0.020 A 
HETATM   12  C   UNL     1      43.865 -18.091   5.013  1.00  0.00     0.039 A 
HETATM   13  C   UNL     1      44.704 -18.034   6.131  1.00  0.00     0.020 A 
HETATM   14  C   UNL     1      44.707 -16.898   6.950  1.00  0.00     0.030 A 
BRANCH  12  15
HETATM   15  C   UNL     1      43.837 -19.259   4.090  1.00  0.00     0.293 C 
HETATM   16  O   UNL     1      44.407 -20.314   4.321  1.00  0.00    -0.259 OA
BRANCH  15  17
HETATM   17  O   UNL     1      43.094 -18.979   2.991  1.00  0.00    -0.318 OA
BRANCH  17  18
HETATM   18  C   UNL     1      43.804 -18.978   1.743  1.00  0.00     0.174 C 
HETATM   19  C   UNL     1      43.543 -17.688   0.989  1.00  0.00     0.034 C 
ENDBRANCH  17  18
ENDBRANCH  15  17
ENDBRANCH  12  15
ENDBRANCH   6   9
ENDBRANCH   1   5
BRANCH   2  20
HETATM   20  C   UNL     1      43.384 -10.720   9.441  1.00  0.00     0.137 C 
BRANCH  20  21
HETATM   21  C   UNL     1      41.907 -10.247   9.508  1.00  0.00     0.003 C 
HETATM   22  C   UNL     1      41.600  -9.024   8.604  1.00  0.00     0.016 C 
HETATM   23  C   UNL     1      40.078  -9.023   8.455  1.00  0.00     0.001 C 
HETATM   24  C   UNL     1      39.654 -10.486   8.589  1.00  0.00     0.001 C 
HETATM   25  C   UNL     1      40.945 -11.265   8.841  1.00  0.00     0.016 C 
BRANCH  21  26
HETATM   26  C   UNL     1      41.594  -9.961  10.994  1.00  0.00    -0.048 A 
HETATM   27  C   UNL     1      41.820  -8.682  11.536  1.00  0.00     0.011 A 
HETATM   28  C   UNL     1      41.562  -8.406  12.883  1.00  0.00     0.037 A 
HETATM   29  C   UNL     1      41.093  -9.400  13.737  1.00  0.00     0.068 A 
HETATM   30  C   UNL     1      40.891 -10.680  13.229  1.00  0.00     0.037 A 
HETATM   31  C   UNL     1      41.145 -10.957  11.878  1.00  0.00     0.011 A 
BRANCH  29  32
HETATM   32  O   UNL     1      40.883  -9.000  15.027  1.00  0.00    -0.356 OA
HETATM   33  C   UNL     1      41.915  -9.281  15.962  1.00  0.00     0.210 C 
ENDBRANCH  29  32
ENDBRANCH  21  26
ENDBRANCH  20  21
ENDBRANCH   2  20
TORSDOF 9
ENDMDL
MODEL 6
REMARK VINA RESULT:      -7.6      2.896      9.391
REMARK  9 active torsions:
REMARK  status: ('A' for Active; 'I' for Inactive)
REMARK    1  A    between atoms: C_2  and  O_3 
REMARK    2  A    between atoms: O_3  and  C_4 
REMARK    3  A    between atoms: C_4  and  C_5 
REMARK    4  A    between atoms: C_8  and  N_9 
REMARK       I    between atoms: N_9  and  C_10 
REMARK    5  A    between atoms: C_10  and  C_11 
REMARK       I    between atoms: C_11  and  N_12 
REMARK    6  A    between atoms: N_12  and  C_13 
REMARK    7  A    between atoms: C_13  and  C_14 
REMARK    8  A    between atoms: C_14  and  C_15 
REMARK    9  A    between atoms: C_18  and  O_19 
ROOT
HETATM    1  C   UNL     1      39.744 -10.697   9.620  1.00  0.00     0.309 C 
HETATM    2  N   UNL     1      40.281 -11.359  10.698  1.00  0.00    -0.352 N 
HETATM    3  O   UNL     1      39.222  -9.590   9.631  1.00  0.00    -0.262 OA
HETATM    4  H   UNL     1      40.661 -12.286  10.515  1.00  0.00     0.162 HD
ENDROOT
BRANCH   1   5
HETATM    5  C   UNL     1      39.798 -11.500   8.302  1.00  0.00     0.313 C 
HETATM    6  N   UNL     1      41.008 -11.342   7.661  1.00  0.00    -0.319 N 
HETATM    7  H   UNL     1      41.673 -10.758   8.166  1.00  0.00     0.169 HD
HETATM    8  O   UNL     1      38.816 -12.143   7.962  1.00  0.00    -0.262 OA
BRANCH   6   9
HETATM    9  C   UNL     1      41.394 -11.840   6.406  1.00  0.00     0.035 A 
HETATM   10  C   UNL     1      40.926 -11.330   5.194  1.00  0.00     0.030 A 
HETATM   11  C   UNL     1      41.386 -11.856   3.980  1.00  0.00     0.020 A 
HETATM   12  C   UNL     1      42.319 -12.901   3.965  1.00  0.00     0.039 A 
HETATM   13  C   UNL     1      42.777 -13.422   5.180  1.00  0.00     0.020 A 
HETATM   14  C   UNL     1      42.315 -12.892   6.391  1.00  0.00     0.030 A 
BRANCH  12  15
HETATM   15  C   UNL     1      42.792 -13.404   2.647  1.00  0.00     0.293 C 
HETATM   16  O   UNL     1      42.544 -12.851   1.587  1.00  0.00    -0.259 OA
BRANCH  15  17
HETATM   17  O   UNL     1      43.529 -14.531   2.805  1.00  0.00    -0.318 OA
BRANCH  17  18
HETATM   18  C   UNL     1      42.930 -15.740   2.312  1.00  0.00     0.174 C 
HETATM   19  C   UNL     1      43.438 -16.936   3.096  1.00  0.00     0.034 C 
ENDBRANCH  17  18
ENDBRANCH  15  17
ENDBRANCH  12  15
ENDBRANCH   6   9
ENDBRANCH   1   5
BRANCH   2  20
HETATM   20  C   UNL     1      40.231 -10.839  12.049  1.00  0.00     0.137 C 
BRANCH  20  21
HETATM   21  C   UNL     1      41.559 -10.226  12.567  1.00  0.00     0.003 C 
HETATM   22  C   UNL     1      41.593  -8.675  12.520  1.00  0.00     0.016 C 
HETATM   23  C   UNL     1      42.726  -8.282  13.469  1.00  0.00     0.001 C 
HETATM   24  C   UNL     1      42.794  -9.400  14.509  1.00  0.00     0.001 C 
HETATM   25  C   UNL     1      41.718 -10.407  14.100  1.00  0.00     0.016 C 
BRANCH  21  26
HETATM   26  C   UNL     1      42.699 -10.854  11.734  1.00  0.00    -0.048 A 
HETATM   27  C   UNL     1      43.302 -12.057  12.145  1.00  0.00     0.011 A 
HETATM   28  C   UNL     1      44.349 -12.634  11.418  1.00  0.00     0.037 A 
HETATM   29  C   UNL     1      44.841 -12.019  10.270  1.00  0.00     0.068 A 
HETATM   30  C   UNL     1      44.279 -10.813   9.861  1.00  0.00     0.037 A 
HETATM   31  C   UNL     1      43.228 -10.237  10.588  1.00  0.00     0.011 A 
BRANCH  29  32
HETATM   32  O   UNL     1      45.864 -12.684   9.654  1.00  0.00    -0.356 OA
HETATM   33  C   UNL     1      46.218 -12.250   8.348  1.00  0.00     0.210 C 
ENDBRANCH  29  32
ENDBRANCH  21  26
ENDBRANCH  20  21
ENDBRANCH   2  20
TORSDOF 9
ENDMDL
MODEL 7
REMARK VINA RESULT:      -7.6      7.705     11.456
REMARK  9 active torsions:
REMARK  status: ('A' for Active; 'I' for Inactive)
REMARK    1  A    between atoms: C_2  and  O_3 
REMARK    2  A    between atoms: O_3  and  C_4 
REMARK    3  A    between atoms: C_4  and  C_5 
REMARK    4  A    between atoms: C_8  and  N_9 
REMARK       I    between atoms: N_9  and  C_10 
REMARK    5  A    between atoms: C_10  and  C_11 
REMARK       I    between atoms: C_11  and  N_12 
REMARK    6  A    between atoms: N_12  and  C_13 
REMARK    7  A    between atoms: C_13  and  C_14 
REMARK    8  A    between atoms: C_14  and  C_15 
REMARK    9  A    between atoms: C_18  and  O_19 
ROOT
HETATM    1  C   UNL     1      40.462 -14.330   1.737  1.00  0.00     0.309 C 
HETATM    2  N   UNL     1      39.692 -14.731   0.672  1.00  0.00    -0.352 N 
HETATM    3  O   UNL     1      40.753 -13.178   2.033  1.00  0.00    -0.262 OA
HETATM    4  H   UNL     1      39.563 -15.735   0.560  1.00  0.00     0.162 HD
ENDROOT
BRANCH   1   5
HETATM    5  C   UNL     1      41.020 -15.497   2.580  1.00  0.00     0.313 C 
HETATM    6  N   UNL     1      42.017 -16.174   1.910  1.00  0.00    -0.319 N 
HETATM    7  H   UNL     1      42.244 -15.783   0.997  1.00  0.00     0.169 HD
HETATM    8  O   UNL     1      40.540 -15.711   3.683  1.00  0.00    -0.262 OA
BRANCH   6   9
HETATM    9  C   UNL     1      42.695 -17.335   2.314  1.00  0.00     0.035 A 
HETATM   10  C   UNL     1      43.480 -17.413   3.466  1.00  0.00     0.030 A 
HETATM   11  C   UNL     1      44.095 -18.619   3.823  1.00  0.00     0.020 A 
HETATM   12  C   UNL     1      43.935 -19.762   3.030  1.00  0.00     0.039 A 
HETATM   13  C   UNL     1      43.161 -19.682   1.869  1.00  0.00     0.020 A 
HETATM   14  C   UNL     1      42.545 -18.474   1.516  1.00  0.00     0.030 A 
BRANCH  12  15
HETATM   15  C   UNL     1      44.591 -21.023   3.472  1.00  0.00     0.293 C 
HETATM   16  O   UNL     1      44.633 -22.035   2.789  1.00  0.00    -0.259 OA
BRANCH  15  17
HETATM   17  O   UNL     1      45.127 -20.873   4.708  1.00  0.00    -0.318 OA
BRANCH  17  18
HETATM   18  C   UNL     1      44.678 -21.810   5.699  1.00  0.00     0.174 C 
HETATM   19  C   UNL     1      43.794 -21.116   6.719  1.00  0.00     0.034 C 
ENDBRANCH  17  18
ENDBRANCH  15  17
ENDBRANCH  12  15
ENDBRANCH   6   9
ENDBRANCH   1   5
BRANCH   2  20
HETATM   20  C   UNL     1      39.164 -13.810  -0.313  1.00  0.00     0.137 C 
BRANCH  20  21
HETATM   21  C   UNL     1      39.731 -13.984  -1.748  1.00  0.00     0.003 C 
HETATM   22  C   UNL     1      40.896 -13.016  -2.083  1.00  0.00     0.016 C 
HETATM   23  C   UNL     1      41.588 -13.644  -3.293  1.00  0.00     0.001 C 
HETATM   24  C   UNL     1      41.347 -15.148  -3.166  1.00  0.00     0.001 C 
HETATM   25  C   UNL     1      40.500 -15.323  -1.905  1.00  0.00     0.016 C 
BRANCH  21  26
HETATM   26  C   UNL     1      38.543 -13.818  -2.723  1.00  0.00    -0.048 A 
HETATM   27  C   UNL     1      38.071 -12.536  -3.058  1.00  0.00     0.011 A 
HETATM   28  C   UNL     1      36.985 -12.363  -3.923  1.00  0.00     0.037 A 
HETATM   29  C   UNL     1      36.323 -13.461  -4.464  1.00  0.00     0.068 A 
HETATM   30  C   UNL     1      36.754 -14.739  -4.122  1.00  0.00     0.037 A 
HETATM   31  C   UNL     1      37.845 -14.914  -3.258  1.00  0.00     0.011 A 
BRANCH  29  32
HETATM   32  O   UNL     1      35.279 -13.155  -5.292  1.00  0.00    -0.356 OA
HETATM   33  C   UNL     1      35.396 -13.558  -6.649  1.00  0.00     0.210 C 
ENDBRANCH  29  32
ENDBRANCH  21  26
ENDBRANCH  20  21
ENDBRANCH   2  20
TORSDOF 9
ENDMDL
MODEL 8
REMARK VINA RESULT:      -7.6      1.850      2.618
REMARK  9 active torsions:
REMARK  status: ('A' for Active; 'I' for Inactive)
REMARK    1  A    between atoms: C_2  and  O_3 
REMARK    2  A    between atoms: O_3  and  C_4 
REMARK    3  A    between atoms: C_4  and  C_5 
REMARK    4  A    between atoms: C_8  and  N_9 
REMARK       I    between atoms: N_9  and  C_10 
REMARK    5  A    between atoms: C_10  and  C_11 
REMARK       I    between atoms: C_11  and  N_12 
REMARK    6  A    between atoms: N_12  and  C_13 
REMARK    7  A    between atoms: C_13  and  C_14 
REMARK    8  A    between atoms: C_14  and  C_15 
REMARK    9  A    between atoms: C_18  and  O_19 
ROOT
HETATM    1  C   UNL     1      43.704 -13.838   5.826  1.00  0.00     0.309 C 
HETATM    2  N   UNL     1      43.442 -13.613   4.495  1.00  0.00    -0.352 N 
HETATM    3  O   UNL     1      44.319 -14.785   6.297  1.00  0.00    -0.262 OA
HETATM    4  H   UNL     1      42.898 -12.781   4.276  1.00  0.00     0.162 HD
ENDROOT
BRANCH   1   5
HETATM    5  C   UNL     1      43.100 -12.775   6.770  1.00  0.00     0.313 C 
HETATM    6  N   UNL     1      43.947 -12.490   7.819  1.00  0.00    -0.319 N 
HETATM    7  H   UNL     1      44.834 -12.991   7.786  1.00  0.00     0.169 HD
HETATM    8  O   UNL     1      41.988 -12.333   6.525  1.00  0.00    -0.262 OA
BRANCH   6   9
HETATM    9  C   UNL     1      43.709 -11.649   8.918  1.00  0.00     0.035 A 
HETATM   10  C   UNL     1      42.657 -10.733   8.979  1.00  0.00     0.030 A 
HETATM   11  C   UNL     1      42.463  -9.955  10.127  1.00  0.00     0.020 A 
HETATM   12  C   UNL     1      43.320 -10.082  11.227  1.00  0.00     0.039 A 
HETATM   13  C   UNL     1      44.382 -10.989  11.161  1.00  0.00     0.020 A 
HETATM   14  C   UNL     1      44.573 -11.767  10.012  1.00  0.00     0.030 A 
BRANCH  12  15
HETATM   15  C   UNL     1      43.050  -9.248  12.430  1.00  0.00     0.293 C 
HETATM   16  O   UNL     1      42.661  -8.092  12.375  1.00  0.00    -0.259 OA
BRANCH  15  17
HETATM   17  O   UNL     1      43.286  -9.956  13.562  1.00  0.00    -0.318 OA
BRANCH  17  18
HETATM   18  C   UNL     1      42.131 -10.263  14.358  1.00  0.00     0.174 C 
HETATM   19  C   UNL     1      42.146  -9.456  15.642  1.00  0.00     0.034 C 
ENDBRANCH  17  18
ENDBRANCH  15  17
ENDBRANCH  12  15
ENDBRANCH   6   9
ENDBRANCH   1   5
BRANCH   2  20
HETATM   20  C   UNL     1      43.814 -14.543   3.449  1.00  0.00     0.137 C 
BRANCH  20  21
HETATM   21  C   UNL     1      42.657 -15.427   2.912  1.00  0.00     0.003 C 
HETATM   22  C   UNL     1      41.323 -15.249   3.684  1.00  0.00     0.016 C 
HETATM   23  C   UNL     1      40.253 -15.812   2.747  1.00  0.00     0.001 C 
HETATM   24  C   UNL     1      40.798 -15.603   1.334  1.00  0.00     0.001 C 
HETATM   25  C   UNL     1      42.172 -14.957   1.515  1.00  0.00     0.016 C 
BRANCH  21  26
HETATM   26  C   UNL     1      43.155 -16.890   2.949  1.00  0.00    -0.048 A 
HETATM   27  C   UNL     1      43.624 -17.513   1.778  1.00  0.00     0.011 A 
HETATM   28  C   UNL     1      44.062 -18.841   1.785  1.00  0.00     0.037 A 
HETATM   29  C   UNL     1      44.027 -19.597   2.952  1.00  0.00     0.068 A 
HETATM   30  C   UNL     1      43.539 -19.010   4.116  1.00  0.00     0.037 A 
HETATM   31  C   UNL     1      43.103 -17.677   4.112  1.00  0.00     0.011 A 
BRANCH  29  32
HETATM   32  O   UNL     1      44.481 -20.880   2.823  1.00  0.00    -0.356 OA
HETATM   33  C   UNL     1      43.858 -21.685   1.831  1.00  0.00     0.210 C 
ENDBRANCH  29  32
ENDBRANCH  21  26
ENDBRANCH  20  21
ENDBRANCH   2  20
TORSDOF 9
ENDMDL
MODEL 9
REMARK VINA RESULT:      -7.5      7.474     11.506
REMARK  9 active torsions:
REMARK  status: ('A' for Active; 'I' for Inactive)
REMARK    1  A    between atoms: C_2  and  O_3 
REMARK    2  A    between atoms: O_3  and  C_4 
REMARK    3  A    between atoms: C_4  and  C_5 
REMARK    4  A    between atoms: C_8  and  N_9 
REMARK       I    between atoms: N_9  and  C_10 
REMARK    5  A    between atoms: C_10  and  C_11 
REMARK       I    between atoms: C_11  and  N_12 
REMARK    6  A    between atoms: N_12  and  C_13 
REMARK    7  A    between atoms: C_13  and  C_14 
REMARK    8  A    between atoms: C_14  and  C_15 
REMARK    9  A    between atoms: C_18  and  O_19 
ROOT
HETATM    1  C   UNL     1      40.886 -13.357   1.211  1.00  0.00     0.309 C 
HETATM    2  N   UNL     1      40.007 -14.105   0.465  1.00  0.00    -0.352 N 
HETATM    3  O   UNL     1      40.973 -12.136   1.225  1.00  0.00    -0.262 OA
HETATM    4  H   UNL     1      40.082 -15.116   0.559  1.00  0.00     0.162 HD
ENDROOT
BRANCH   1   5
HETATM    5  C   UNL     1      41.861 -14.201   2.061  1.00  0.00     0.313 C 
HETATM    6  N   UNL     1      41.762 -15.543   1.762  1.00  0.00    -0.319 N 
HETATM    7  H   UNL     1      41.098 -15.756   1.019  1.00  0.00     0.169 HD
HETATM    8  O   UNL     1      42.569 -13.636   2.882  1.00  0.00    -0.262 OA
BRANCH   6   9
HETATM    9  C   UNL     1      42.418 -16.617   2.384  1.00  0.00     0.035 A 
HETATM   10  C   UNL     1      42.003 -17.185   3.591  1.00  0.00     0.030 A 
HETATM   11  C   UNL     1      42.689 -18.280   4.130  1.00  0.00     0.020 A 
HETATM   12  C   UNL     1      43.800 -18.820   3.470  1.00  0.00     0.039 A 
HETATM   13  C   UNL     1      44.225 -18.244   2.269  1.00  0.00     0.020 A 
HETATM   14  C   UNL     1      43.536 -17.149   1.732  1.00  0.00     0.030 A 
BRANCH  12  15
HETATM   15  C   UNL     1      44.474 -20.001   4.076  1.00  0.00     0.293 C 
HETATM   16  O   UNL     1      44.431 -20.262   5.268  1.00  0.00    -0.259 OA
BRANCH  15  17
HETATM   17  O   UNL     1      45.114 -20.723   3.124  1.00  0.00    -0.318 OA
BRANCH  17  18
HETATM   18  C   UNL     1      44.514 -21.984   2.790  1.00  0.00     0.174 C 
HETATM   19  C   UNL     1      43.675 -21.852   1.532  1.00  0.00     0.034 C 
ENDBRANCH  17  18
ENDBRANCH  15  17
ENDBRANCH  12  15
ENDBRANCH   6   9
ENDBRANCH   1   5
BRANCH   2  20
HETATM   20  C   UNL     1      39.084 -13.523  -0.487  1.00  0.00     0.137 C 
BRANCH  20  21
HETATM   21  C   UNL     1      39.587 -13.488  -1.955  1.00  0.00     0.003 C 
HETATM   22  C   UNL     1      40.479 -12.262  -2.282  1.00  0.00     0.016 C 
HETATM   23  C   UNL     1      41.221 -12.650  -3.562  1.00  0.00     0.001 C 
HETATM   24  C   UNL     1      41.336 -14.174  -3.519  1.00  0.00     0.001 C 
HETATM   25  C   UNL     1      40.630 -14.603  -2.233  1.00  0.00     0.016 C 
BRANCH  21  26
HETATM   26  C   UNL     1      38.336 -13.552  -2.860  1.00  0.00    -0.048 A 
HETATM   27  C   UNL     1      37.889 -14.783  -3.373  1.00  0.00     0.011 A 
HETATM   28  C   UNL     1      36.771 -14.862  -4.209  1.00  0.00     0.037 A 
HETATM   29  C   UNL     1      36.076 -13.714  -4.579  1.00  0.00     0.068 A 
HETATM   30  C   UNL     1      36.518 -12.481  -4.107  1.00  0.00     0.037 A 
HETATM   31  C   UNL     1      37.637 -12.402  -3.265  1.00  0.00     0.011 A 
BRANCH  29  32
HETATM   32  O   UNL     1      35.005 -13.928  -5.400  1.00  0.00    -0.356 OA
HETATM   33  C   UNL     1      35.203 -13.697  -6.788  1.00  0.00     0.210 C 
ENDBRANCH  29  32
ENDBRANCH  21  26
ENDBRANCH  20  21
ENDBRANCH   2  20
TORSDOF 9
ENDMDL
MODEL 10
REMARK VINA RESULT:      -7.5      7.738     12.340
REMARK  9 active torsions:
REMARK  status: ('A' for Active; 'I' for Inactive)
REMARK    1  A    between atoms: C_2  and  O_3 
REMARK    2  A    between atoms: O_3  and  C_4 
REMARK    3  A    between atoms: C_4  and  C_5 
REMARK    4  A    between atoms: C_8  and  N_9 
REMARK       I    between atoms: N_9  and  C_10 
REMARK    5  A    between atoms: C_10  and  C_11 
REMARK       I    between atoms: C_11  and  N_12 
REMARK    6  A    between atoms: N_12  and  C_13 
REMARK    7  A    between atoms: C_13  and  C_14 
REMARK    8  A    between atoms: C_14  and  C_15 
REMARK    9  A    between atoms: C_18  and  O_19 
ROOT
HETATM    1  C   UNL     1      40.640 -14.672   0.284  1.00  0.00     0.309 C 
HETATM    2  N   UNL     1      40.478 -15.944   0.779  1.00  0.00    -0.352 N 
HETATM    3  O   UNL     1      41.093 -13.708   0.887  1.00  0.00    -0.262 OA
HETATM    4  H   UNL     1      40.067 -16.627   0.146  1.00  0.00     0.162 HD
ENDROOT
BRANCH   1   5
HETATM    5  C   UNL     1      40.142 -14.498  -1.167  1.00  0.00     0.313 C 
HETATM    6  N   UNL     1      38.802 -14.175  -1.208  1.00  0.00    -0.319 N 
HETATM    7  H   UNL     1      38.371 -14.072  -0.290  1.00  0.00     0.169 HD
HETATM    8  O   UNL     1      40.928 -14.674  -2.086  1.00  0.00    -0.262 OA
BRANCH   6   9
HETATM    9  C   UNL     1      37.983 -14.027  -2.338  1.00  0.00     0.035 A 
HETATM   10  C   UNL     1      37.625 -15.083  -3.179  1.00  0.00     0.030 A 
HETATM   11  C   UNL     1      36.772 -14.862  -4.268  1.00  0.00     0.020 A 
HETATM   12  C   UNL     1      36.268 -13.582  -4.530  1.00  0.00     0.039 A 
HETATM   13  C   UNL     1      36.638 -12.521  -3.696  1.00  0.00     0.020 A 
HETATM   14  C   UNL     1      37.490 -12.746  -2.608  1.00  0.00     0.030 A 
BRANCH  12  15
HETATM   15  C   UNL     1      35.345 -13.411  -5.684  1.00  0.00     0.293 C 
HETATM   16  O   UNL     1      35.078 -14.305  -6.472  1.00  0.00    -0.259 OA
BRANCH  15  17
HETATM   17  O   UNL     1      34.855 -12.147  -5.718  1.00  0.00    -0.318 OA
BRANCH  17  18
HETATM   18  C   UNL     1      33.426 -12.035  -5.807  1.00  0.00     0.174 C 
HETATM   19  C   UNL     1      32.804 -12.118  -4.425  1.00  0.00     0.034 C 
ENDBRANCH  17  18
ENDBRANCH  15  17
ENDBRANCH  12  15
ENDBRANCH   6   9
ENDBRANCH   1   5
BRANCH   2  20
HETATM   20  C   UNL     1      40.771 -16.301   2.152  1.00  0.00     0.137 C 
BRANCH  20  21
HETATM   21  C   UNL     1      42.122 -17.033   2.369  1.00  0.00     0.003 C 
HETATM   22  C   UNL     1      42.129 -18.498   1.858  1.00  0.00     0.016 C 
HETATM   23  C   UNL     1      43.609 -18.859   1.732  1.00  0.00     0.001 C 
HETATM   24  C   UNL     1      44.328 -17.541   1.445  1.00  0.00     0.001 C 
HETATM   25  C   UNL     1      43.236 -16.470   1.448  1.00  0.00     0.016 C 
BRANCH  21  26
HETATM   26  C   UNL     1      42.443 -16.946   3.878  1.00  0.00    -0.048 A 
HETATM   27  C   UNL     1      42.034 -17.968   4.753  1.00  0.00     0.011 A 
HETATM   28  C   UNL     1      42.297 -17.901   6.126  1.00  0.00     0.037 A 
HETATM   29  C   UNL     1      42.956 -16.804   6.672  1.00  0.00     0.068 A 
HETATM   30  C   UNL     1      43.343 -15.766   5.828  1.00  0.00     0.037 A 
HETATM   31  C   UNL     1      43.084 -15.835   4.452  1.00  0.00     0.011 A 
BRANCH  29  32
HETATM   32  O   UNL     1      43.149 -16.861   8.023  1.00  0.00    -0.356 OA
HETATM   33  C   UNL     1      43.837 -17.998   8.527  1.00  0.00     0.210 C 
ENDBRANCH  29  32
ENDBRANCH  21  26
ENDBRANCH  20  21
ENDBRANCH   2  20
TORSDOF 9
ENDMDL
