MODEL 1
REMARK VINA RESULT:      -7.7      0.000      0.000
REMARK  8 active torsions:
REMARK  status: ('A' for Active; 'I' for Inactive)
REMARK    1  A    between atoms: C_2  and  O_3 
REMARK    2  A    between atoms: O_3  and  C_4 
REMARK    3  A    between atoms: C_4  and  C_5 
REMARK    4  A    between atoms: N_7  and  C_9 
REMARK    5  A    between atoms: C_9  and  C_10 
REMARK       I    between atoms: C_10  and  N_11 
REMARK    6  A    between atoms: N_11  and  C_12 
REMARK    7  A    between atoms: C_20  and  C_21 
REMARK       I    between atoms: C_21  and  N_22 
REMARK    8  A    between atoms: N_22  and  C_23 
ROOT
HETATM    1  C   UNL     1      42.757 -16.591   3.876  1.00  0.00     0.093 C 
HETATM    2  S   UNL     1      43.785 -17.466   4.896  1.00  0.00    -0.075 SA
HETATM    3  C   UNL     1      43.859 -18.745   3.786  1.00  0.00    -0.008 C 
HETATM    4  C   UNL     1      43.001 -18.579   2.708  1.00  0.00    -0.026 C 
HETATM    5  C   UNL     1      42.884 -19.661   1.662  1.00  0.00     0.041 C 
HETATM    6  C   UNL     1      43.538 -20.987   2.085  1.00  0.00     0.005 C 
HETATM    7  C   UNL     1      44.895 -20.760   2.759  1.00  0.00     0.005 C 
HETATM    8  C   UNL     1      44.736 -19.935   4.039  1.00  0.00     0.047 C 
HETATM    9  C   UNL     1      42.299 -17.299   2.772  1.00  0.00     0.073 C 
ENDROOT
BRANCH   1  10
HETATM   10  N   UNL     1      42.537 -15.304   4.326  1.00  0.00    -0.319 N 
HETATM   11  C   UNL     1      41.440 -15.045   5.116  1.00  0.00     0.248 C 
HETATM   12  O   UNL     1      40.494 -15.811   5.307  1.00  0.00    -0.271 OA
HETATM   13  H   UNL     1      42.934 -14.567   3.756  1.00  0.00     0.169 HD
BRANCH  11  14
HETATM   14  C   UNL     1      41.418 -13.657   5.760  1.00  0.00     0.337 C 
BRANCH  14  15
HETATM   15  N   UNL     1      41.323 -12.579   4.680  1.00  0.00    -0.062 N 
HETATM   16  C   UNL     1      40.473 -13.009   3.497  1.00  0.00     0.249 C 
HETATM   17  C   UNL     1      40.680 -12.042   2.337  1.00  0.00     0.111 C 
HETATM   18  C   UNL     1      40.478 -10.581   2.759  1.00  0.00     0.018 C 
HETATM   19  C   UNL     1      41.177 -10.203   4.069  1.00  0.00     0.029 C 
HETATM   20  C   UNL     1      40.960 -11.220   5.183  1.00  0.00     0.235 C 
HETATM   21  H   UNL     1      42.299 -12.531   4.308  1.00  0.00     0.280 HD
BRANCH  17  22
HETATM   22  C   UNL     1      42.072 -12.295   1.806  1.00  0.00     0.264 C 
HETATM   23  O   UNL     1      42.749 -13.246   2.180  1.00  0.00    -0.265 OA
BRANCH  22  24
HETATM   24  O   UNL     1      42.385 -11.430   0.814  1.00  0.00    -0.322 OA
BRANCH  24  25
HETATM   25  C   UNL     1      42.300 -11.985  -0.507  1.00  0.00     0.174 C 
HETATM   26  C   UNL     1      41.322 -11.153  -1.313  1.00  0.00     0.034 C 
ENDBRANCH  24  25
ENDBRANCH  22  24
ENDBRANCH  17  22
ENDBRANCH  14  15
ENDBRANCH  11  14
ENDBRANCH   1  10
BRANCH   9  27
HETATM   27  C   UNL     1      41.208 -16.777   1.912  1.00  0.00     0.259 C 
HETATM   28  N   UNL     1      41.592 -15.834   0.979  1.00  0.00    -0.323 N 
HETATM   29  H   UNL     1      42.544 -15.505   1.039  1.00  0.00     0.169 HD
HETATM   30  O   UNL     1      40.055 -17.187   2.051  1.00  0.00    -0.267 OA
BRANCH  28  31
HETATM   31  C   UNL     1      40.818 -15.270  -0.057  1.00  0.00     0.035 A 
HETATM   32  C   UNL     1      39.686 -14.477   0.147  1.00  0.00     0.031 A 
HETATM   33  C   UNL     1      38.966 -13.970  -0.942  1.00  0.00     0.026 A 
HETATM   34  C   UNL     1      39.367 -14.265  -2.241  1.00  0.00     0.034 A 
HETATM   35 CL   UNL     1      38.479 -13.643  -3.574  1.00  0.00    -0.084 Cl
HETATM   36  C   UNL     1      40.487 -15.059  -2.462  1.00  0.00     0.026 A 
HETATM   37  C   UNL     1      41.214 -15.554  -1.373  1.00  0.00     0.031 A 
ENDBRANCH  28  31
ENDBRANCH   9  27
TORSDOF 8
ENDMDL
MODEL 2
REMARK VINA RESULT:      -7.5      3.338      4.969
REMARK  8 active torsions:
REMARK  status: ('A' for Active; 'I' for Inactive)
REMARK    1  A    between atoms: C_2  and  O_3 
REMARK    2  A    between atoms: O_3  and  C_4 
REMARK    3  A    between atoms: C_4  and  C_5 
REMARK    4  A    between atoms: N_7  and  C_9 
REMARK    5  A    between atoms: C_9  and  C_10 
REMARK       I    between atoms: C_10  and  N_11 
REMARK    6  A    between atoms: N_11  and  C_12 
REMARK    7  A    between atoms: C_20  and  C_21 
REMARK       I    between atoms: C_21  and  N_22 
REMARK    8  A    between atoms: N_22  and  C_23 
ROOT
HETATM    1  C   UNL     1      41.434 -15.607   5.310  1.00  0.00     0.093 C 
HETATM    2  S   UNL     1      41.997 -16.530   6.611  1.00  0.00    -0.075 SA
HETATM    3  C   UNL     1      42.864 -17.544   5.566  1.00  0.00    -0.008 C 
HETATM    4  C   UNL     1      42.621 -17.279   4.226  1.00  0.00    -0.026 C 
HETATM    5  C   UNL     1      43.253 -18.138   3.158  1.00  0.00     0.041 C 
HETATM    6  C   UNL     1      43.881 -19.428   3.711  1.00  0.00     0.005 C 
HETATM    7  C   UNL     1      44.661 -19.170   5.003  1.00  0.00     0.005 C 
HETATM    8  C   UNL     1      43.734 -18.641   6.103  1.00  0.00     0.047 C 
HETATM    9  C   UNL     1      41.726 -16.135   4.059  1.00  0.00     0.073 C 
ENDROOT
BRANCH   1  10
HETATM   10  N   UNL     1      40.761 -14.473   5.719  1.00  0.00    -0.319 N 
HETATM   11  C   UNL     1      41.438 -13.277   5.791  1.00  0.00     0.248 C 
HETATM   12  O   UNL     1      42.661 -13.137   5.725  1.00  0.00    -0.271 OA
HETATM   13  H   UNL     1      39.952 -14.632   6.309  1.00  0.00     0.169 HD
BRANCH  11  14
HETATM   14  C   UNL     1      40.558 -12.046   6.014  1.00  0.00     0.337 C 
BRANCH  14  15
HETATM   15  N   UNL     1      40.745 -11.517   7.437  1.00  0.00    -0.062 N 
HETATM   16  C   UNL     1      41.575 -10.245   7.483  1.00  0.00     0.249 C 
HETATM   17  C   UNL     1      41.991  -9.955   8.921  1.00  0.00     0.111 C 
HETATM   18  C   UNL     1      40.796  -9.964   9.882  1.00  0.00     0.018 C 
HETATM   19  C   UNL     1      39.846 -11.151   9.694  1.00  0.00     0.029 C 
HETATM   20  C   UNL     1      39.488 -11.411   8.236  1.00  0.00     0.235 C 
HETATM   21  H   UNL     1      41.347 -12.248   7.883  1.00  0.00     0.280 HD
BRANCH  17  22
HETATM   22  C   UNL     1      43.025 -10.995   9.289  1.00  0.00     0.264 C 
HETATM   23  O   UNL     1      43.783 -11.482   8.459  1.00  0.00    -0.265 OA
BRANCH  22  24
HETATM   24  O   UNL     1      43.067 -11.194  10.627  1.00  0.00    -0.322 OA
BRANCH  24  25
HETATM   25  C   UNL     1      44.112 -10.477  11.302  1.00  0.00     0.174 C 
HETATM   26  C   UNL     1      43.552  -9.924  12.597  1.00  0.00     0.034 C 
ENDBRANCH  24  25
ENDBRANCH  22  24
ENDBRANCH  17  22
ENDBRANCH  14  15
ENDBRANCH  11  14
ENDBRANCH   1  10
BRANCH   9  27
HETATM   27  C   UNL     1      41.106 -15.595   2.823  1.00  0.00     0.259 C 
HETATM   28  N   UNL     1      41.975 -15.382   1.771  1.00  0.00    -0.323 N 
HETATM   29  H   UNL     1      42.957 -15.504   1.968  1.00  0.00     0.169 HD
HETATM   30  O   UNL     1      39.896 -15.369   2.781  1.00  0.00    -0.267 OA
BRANCH  28  31
HETATM   31  C   UNL     1      41.662 -15.017   0.445  1.00  0.00     0.035 A 
HETATM   32  C   UNL     1      41.289 -15.920  -0.554  1.00  0.00     0.031 A 
HETATM   33  C   UNL     1      41.011 -15.472  -1.852  1.00  0.00     0.026 A 
HETATM   34  C   UNL     1      41.118 -14.120  -2.159  1.00  0.00     0.034 A 
HETATM   35 CL   UNL     1      40.778 -13.575  -3.754  1.00  0.00    -0.084 Cl
HETATM   36  C   UNL     1      41.495 -13.208  -1.180  1.00  0.00     0.026 A 
HETATM   37  C   UNL     1      41.760 -13.655   0.120  1.00  0.00     0.031 A 
ENDBRANCH  28  31
ENDBRANCH   9  27
TORSDOF 8
ENDMDL
MODEL 3
REMARK VINA RESULT:      -7.4      1.650      2.189
REMARK  8 active torsions:
REMARK  status: ('A' for Active; 'I' for Inactive)
REMARK    1  A    between atoms: C_2  and  O_3 
REMARK    2  A    between atoms: O_3  and  C_4 
REMARK    3  A    between atoms: C_4  and  C_5 
REMARK    4  A    between atoms: N_7  and  C_9 
REMARK    5  A    between atoms: C_9  and  C_10 
REMARK       I    between atoms: C_10  and  N_11 
REMARK    6  A    between atoms: N_11  and  C_12 
REMARK    7  A    between atoms: C_20  and  C_21 
REMARK       I    between atoms: C_21  and  N_22 
REMARK    8  A    between atoms: N_22  and  C_23 
ROOT
HETATM    1  C   UNL     1      41.886 -16.875   4.514  1.00  0.00     0.093 C 
HETATM    2  S   UNL     1      42.572 -17.842   5.721  1.00  0.00    -0.075 SA
HETATM    3  C   UNL     1      43.344 -18.808   4.561  1.00  0.00    -0.008 C 
HETATM    4  C   UNL     1      42.976 -18.494   3.260  1.00  0.00    -0.026 C 
HETATM    5  C   UNL     1      43.512 -19.306   2.107  1.00  0.00     0.041 C 
HETATM    6  C   UNL     1      44.195 -20.610   2.550  1.00  0.00     0.005 C 
HETATM    7  C   UNL     1      45.090 -20.394   3.773  1.00  0.00     0.005 C 
HETATM    8  C   UNL     1      44.267 -19.916   4.973  1.00  0.00     0.047 C 
HETATM    9  C   UNL     1      42.064 -17.353   3.221  1.00  0.00     0.073 C 
ENDROOT
BRANCH   1  10
HETATM   10  N   UNL     1      41.248 -15.764   5.026  1.00  0.00    -0.319 N 
HETATM   11  C   UNL     1      41.885 -14.544   4.990  1.00  0.00     0.248 C 
HETATM   12  O   UNL     1      43.075 -14.361   4.728  1.00  0.00    -0.271 OA
HETATM   13  H   UNL     1      40.551 -15.948   5.738  1.00  0.00     0.169 HD
BRANCH  11  14
HETATM   14  C   UNL     1      41.009 -13.343   5.352  1.00  0.00     0.337 C 
BRANCH  14  15
HETATM   15  N   UNL     1      40.530 -12.641   4.081  1.00  0.00    -0.062 N 
HETATM   16  C   UNL     1      39.075 -12.212   4.162  1.00  0.00     0.249 C 
HETATM   17  C   UNL     1      38.576 -11.819   2.777  1.00  0.00     0.111 C 
HETATM   18  C   UNL     1      39.498 -10.797   2.099  1.00  0.00     0.018 C 
HETATM   19  C   UNL     1      40.989 -11.132   2.196  1.00  0.00     0.029 C 
HETATM   20  C   UNL     1      41.424 -11.546   3.596  1.00  0.00     0.235 C 
HETATM   21  H   UNL     1      40.547 -13.406   3.368  1.00  0.00     0.280 HD
BRANCH  17  22
HETATM   22  C   UNL     1      38.462 -13.099   1.980  1.00  0.00     0.264 C 
HETATM   23  O   UNL     1      39.066 -14.118   2.294  1.00  0.00    -0.265 OA
BRANCH  22  24
HETATM   24  O   UNL     1      37.540 -12.985   0.996  1.00  0.00    -0.322 OA
BRANCH  24  25
HETATM   25  C   UNL     1      37.899 -13.633  -0.233  1.00  0.00     0.174 C 
HETATM   26  C   UNL     1      37.708 -12.646  -1.367  1.00  0.00     0.034 C 
ENDBRANCH  24  25
ENDBRANCH  22  24
ENDBRANCH  17  22
ENDBRANCH  14  15
ENDBRANCH  11  14
ENDBRANCH   1  10
BRANCH   9  27
HETATM   27  C   UNL     1      41.329 -16.772   2.070  1.00  0.00     0.259 C 
HETATM   28  N   UNL     1      42.041 -15.863   1.313  1.00  0.00    -0.323 N 
HETATM   29  H   UNL     1      42.946 -15.594   1.668  1.00  0.00     0.169 HD
HETATM   30  O   UNL     1      40.166 -17.108   1.840  1.00  0.00    -0.267 OA
BRANCH  28  31
HETATM   31  C   UNL     1      41.665 -15.262   0.093  1.00  0.00     0.035 A 
HETATM   32  C   UNL     1      41.229 -15.967  -1.032  1.00  0.00     0.031 A 
HETATM   33  C   UNL     1      40.889 -15.290  -2.210  1.00  0.00     0.026 A 
HETATM   34  C   UNL     1      40.997 -13.905  -2.272  1.00  0.00     0.034 A 
HETATM   35 CL   UNL     1      40.581 -13.078  -3.721  1.00  0.00    -0.084 Cl
HETATM   36  C   UNL     1      41.436 -13.187  -1.165  1.00  0.00     0.026 A 
HETATM   37  C   UNL     1      41.762 -13.864   0.016  1.00  0.00     0.031 A 
ENDBRANCH  28  31
ENDBRANCH   9  27
TORSDOF 8
ENDMDL
MODEL 4
REMARK VINA RESULT:      -7.4      4.354      7.349
REMARK  8 active torsions:
REMARK  status: ('A' for Active; 'I' for Inactive)
REMARK    1  A    between atoms: C_2  and  O_3 
REMARK    2  A    between atoms: O_3  and  C_4 
REMARK    3  A    between atoms: C_4  and  C_5 
REMARK    4  A    between atoms: N_7  and  C_9 
REMARK    5  A    between atoms: C_9  and  C_10 
REMARK       I    between atoms: C_10  and  N_11 
REMARK    6  A    between atoms: N_11  and  C_12 
REMARK    7  A    between atoms: C_20  and  C_21 
REMARK       I    between atoms: C_21  and  N_22 
REMARK    8  A    between atoms: N_22  and  C_23 
ROOT
HETATM    1  C   UNL     1      41.920 -13.944   5.137  1.00  0.00     0.093 C 
HETATM    2  S   UNL     1      41.035 -12.525   5.395  1.00  0.00    -0.075 SA
HETATM    3  C   UNL     1      40.267 -12.686   3.893  1.00  0.00    -0.008 C 
HETATM    4  C   UNL     1      40.776 -13.729   3.131  1.00  0.00    -0.026 C 
HETATM    5  C   UNL     1      40.258 -13.967   1.734  1.00  0.00     0.041 C 
HETATM    6  C   UNL     1      39.405 -12.806   1.197  1.00  0.00     0.005 C 
HETATM    7  C   UNL     1      38.436 -12.277   2.259  1.00  0.00     0.005 C 
HETATM    8  C   UNL     1      39.200 -11.723   3.466  1.00  0.00     0.047 C 
HETATM    9  C   UNL     1      41.804 -14.472   3.858  1.00  0.00     0.073 C 
ENDROOT
BRANCH   1  10
HETATM   10  N   UNL     1      42.626 -14.336   6.256  1.00  0.00    -0.319 N 
HETATM   11  C   UNL     1      43.957 -13.999   6.366  1.00  0.00     0.248 C 
HETATM   12  O   UNL     1      44.662 -13.548   5.462  1.00  0.00    -0.271 OA
HETATM   13  H   UNL     1      42.273 -15.158   6.731  1.00  0.00     0.169 HD
BRANCH  11  14
HETATM   14  C   UNL     1      44.581 -14.263   7.738  1.00  0.00     0.337 C 
BRANCH  14  15
HETATM   15  N   UNL     1      44.833 -12.940   8.462  1.00  0.00    -0.062 N 
HETATM   16  C   UNL     1      44.291 -12.938   9.881  1.00  0.00     0.249 C 
HETATM   17  C   UNL     1      44.283 -11.515  10.427  1.00  0.00     0.111 C 
HETATM   18  C   UNL     1      45.647 -10.829  10.272  1.00  0.00     0.018 C 
HETATM   19  C   UNL     1      46.287 -11.005   8.891  1.00  0.00     0.029 C 
HETATM   20  C   UNL     1      46.240 -12.441   8.384  1.00  0.00     0.235 C 
HETATM   21  H   UNL     1      44.226 -12.266   7.941  1.00  0.00     0.280 HD
BRANCH  17  22
HETATM   22  C   UNL     1      43.188 -10.776   9.692  1.00  0.00     0.264 C 
HETATM   23  O   UNL     1      43.124 -10.755   8.469  1.00  0.00    -0.265 OA
BRANCH  22  24
HETATM   24  O   UNL     1      42.267 -10.281  10.552  1.00  0.00    -0.322 OA
BRANCH  24  25
HETATM   25  C   UNL     1      40.930 -10.749  10.325  1.00  0.00     0.174 C 
HETATM   26  C   UNL     1      40.336 -11.161  11.657  1.00  0.00     0.034 C 
ENDBRANCH  24  25
ENDBRANCH  22  24
ENDBRANCH  17  22
ENDBRANCH  14  15
ENDBRANCH  11  14
ENDBRANCH   1  10
BRANCH   9  27
HETATM   27  C   UNL     1      42.692 -15.562   3.383  1.00  0.00     0.259 C 
HETATM   28  N   UNL     1      42.380 -16.823   3.850  1.00  0.00    -0.323 N 
HETATM   29  H   UNL     1      41.656 -16.876   4.551  1.00  0.00     0.169 HD
HETATM   30  O   UNL     1      43.630 -15.315   2.623  1.00  0.00    -0.267 OA
BRANCH  28  31
HETATM   31  C   UNL     1      42.945 -18.058   3.467  1.00  0.00     0.035 A 
HETATM   32  C   UNL     1      43.827 -18.799   4.257  1.00  0.00     0.031 A 
HETATM   33  C   UNL     1      44.355 -20.010   3.791  1.00  0.00     0.026 A 
HETATM   34  C   UNL     1      44.013 -20.478   2.526  1.00  0.00     0.034 A 
HETATM   35 CL   UNL     1      44.665 -21.963   1.957  1.00  0.00    -0.084 Cl
HETATM   36  C   UNL     1      43.142 -19.749   1.724  1.00  0.00     0.026 A 
HETATM   37  C   UNL     1      42.605 -18.546   2.196  1.00  0.00     0.031 A 
ENDBRANCH  28  31
ENDBRANCH   9  27
TORSDOF 8
ENDMDL
MODEL 5
REMARK VINA RESULT:      -7.3      2.679      5.325
REMARK  8 active torsions:
REMARK  status: ('A' for Active; 'I' for Inactive)
REMARK    1  A    between atoms: C_2  and  O_3 
REMARK    2  A    between atoms: O_3  and  C_4 
REMARK    3  A    between atoms: C_4  and  C_5 
REMARK    4  A    between atoms: N_7  and  C_9 
REMARK    5  A    between atoms: C_9  and  C_10 
REMARK       I    between atoms: C_10  and  N_11 
REMARK    6  A    between atoms: N_11  and  C_12 
REMARK    7  A    between atoms: C_20  and  C_21 
REMARK       I    between atoms: C_21  and  N_22 
REMARK    8  A    between atoms: N_22  and  C_23 
ROOT
HETATM    1  C   UNL     1      43.312 -17.069   2.038  1.00  0.00     0.093 C 
HETATM    2  S   UNL     1      44.108 -18.554   1.882  1.00  0.00    -0.075 SA
HETATM    3  C   UNL     1      44.118 -18.768   3.564  1.00  0.00    -0.008 C 
HETATM    4  C   UNL     1      43.649 -17.660   4.255  1.00  0.00    -0.026 C 
HETATM    5  C   UNL     1      43.660 -17.650   5.765  1.00  0.00     0.041 C 
HETATM    6  C   UNL     1      44.487 -18.796   6.372  1.00  0.00     0.005 C 
HETATM    7  C   UNL     1      44.237 -20.122   5.648  1.00  0.00     0.005 C 
HETATM    8  C   UNL     1      44.655 -20.026   4.177  1.00  0.00     0.047 C 
HETATM    9  C   UNL     1      43.197 -16.611   3.344  1.00  0.00     0.073 C 
ENDROOT
BRANCH   1  10
HETATM   10  N   UNL     1      42.915 -16.553   0.821  1.00  0.00    -0.319 N 
HETATM   11  C   UNL     1      41.596 -16.660   0.442  1.00  0.00     0.248 C 
HETATM   12  O   UNL     1      40.744 -17.363   0.990  1.00  0.00    -0.271 OA
HETATM   13  H   UNL     1      43.639 -16.486   0.116  1.00  0.00     0.169 HD
BRANCH  11  14
HETATM   14  C   UNL     1      41.209 -15.850  -0.797  1.00  0.00     0.337 C 
BRANCH  14  15
HETATM   15  N   UNL     1      40.233 -14.737  -0.412  1.00  0.00    -0.062 N 
HETATM   16  C   UNL     1      40.926 -13.548   0.230  1.00  0.00     0.249 C 
HETATM   17  C   UNL     1      39.889 -12.634   0.873  1.00  0.00     0.111 C 
HETATM   18  C   UNL     1      38.766 -12.258  -0.103  1.00  0.00     0.018 C 
HETATM   19  C   UNL     1      38.204 -13.439  -0.900  1.00  0.00     0.029 C 
HETATM   20  C   UNL     1      39.285 -14.334  -1.494  1.00  0.00     0.235 C 
HETATM   21  H   UNL     1      39.672 -15.170   0.358  1.00  0.00     0.280 HD
BRANCH  17  22
HETATM   22  C   UNL     1      39.366 -13.362   2.090  1.00  0.00     0.264 C 
HETATM   23  O   UNL     1      39.646 -14.533   2.318  1.00  0.00    -0.265 OA
BRANCH  22  24
HETATM   24  O   UNL     1      38.687 -12.525   2.909  1.00  0.00    -0.322 OA
BRANCH  24  25
HETATM   25  C   UNL     1      39.293 -11.235   3.076  1.00  0.00     0.174 C 
HETATM   26  C   UNL     1      38.273 -10.305   3.700  1.00  0.00     0.034 C 
ENDBRANCH  24  25
ENDBRANCH  22  24
ENDBRANCH  17  22
ENDBRANCH  14  15
ENDBRANCH  11  14
ENDBRANCH   1  10
BRANCH   9  27
HETATM   27  C   UNL     1      42.751 -15.227   3.646  1.00  0.00     0.259 C 
HETATM   28  N   UNL     1      41.843 -15.112   4.679  1.00  0.00    -0.323 N 
HETATM   29  H   UNL     1      41.481 -15.974   5.058  1.00  0.00     0.169 HD
HETATM   30  O   UNL     1      43.190 -14.276   2.997  1.00  0.00    -0.267 OA
BRANCH  28  31
HETATM   31  C   UNL     1      41.354 -13.933   5.280  1.00  0.00     0.035 A 
HETATM   32  C   UNL     1      42.095 -12.757   5.427  1.00  0.00     0.031 A 
HETATM   33  C   UNL     1      41.535 -11.636   6.052  1.00  0.00     0.026 A 
HETATM   34  C   UNL     1      40.236 -11.689   6.546  1.00  0.00     0.034 A 
HETATM   35 CL   UNL     1      39.555 -10.311   7.315  1.00  0.00    -0.084 Cl
HETATM   36  C   UNL     1      39.487 -12.853   6.415  1.00  0.00     0.026 A 
HETATM   37  C   UNL     1      40.042 -13.969   5.779  1.00  0.00     0.031 A 
ENDBRANCH  28  31
ENDBRANCH   9  27
TORSDOF 8
ENDMDL
MODEL 6
REMARK VINA RESULT:      -7.3      3.163      6.693
REMARK  8 active torsions:
REMARK  status: ('A' for Active; 'I' for Inactive)
REMARK    1  A    between atoms: C_2  and  O_3 
REMARK    2  A    between atoms: O_3  and  C_4 
REMARK    3  A    between atoms: C_4  and  C_5 
REMARK    4  A    between atoms: N_7  and  C_9 
REMARK    5  A    between atoms: C_9  and  C_10 
REMARK       I    between atoms: C_10  and  N_11 
REMARK    6  A    between atoms: N_11  and  C_12 
REMARK    7  A    between atoms: C_20  and  C_21 
REMARK       I    between atoms: C_21  and  N_22 
REMARK    8  A    between atoms: N_22  and  C_23 
ROOT
HETATM    1  C   UNL     1      39.296 -13.034   1.782  1.00  0.00     0.093 C 
HETATM    2  S   UNL     1      38.514 -11.631   2.313  1.00  0.00    -0.075 SA
HETATM    3  C   UNL     1      39.119 -11.841   3.882  1.00  0.00    -0.008 C 
HETATM    4  C   UNL     1      39.795 -13.043   4.047  1.00  0.00    -0.026 C 
HETATM    5  C   UNL     1      40.333 -13.427   5.404  1.00  0.00     0.041 C 
HETATM    6  C   UNL     1      39.797 -12.542   6.541  1.00  0.00     0.005 C 
HETATM    7  C   UNL     1      39.781 -11.062   6.150  1.00  0.00     0.005 C 
HETATM    8  C   UNL     1      38.855 -10.825   4.952  1.00  0.00     0.047 C 
HETATM    9  C   UNL     1      39.873 -13.791   2.794  1.00  0.00     0.073 C 
ENDROOT
BRANCH   1  10
HETATM   10  N   UNL     1      39.217 -13.197   0.413  1.00  0.00    -0.319 N 
HETATM   11  C   UNL     1      38.088 -13.763  -0.134  1.00  0.00     0.248 C 
HETATM   12  O   UNL     1      37.197 -14.341   0.491  1.00  0.00    -0.271 OA
HETATM   13  H   UNL     1      40.105 -13.271  -0.070  1.00  0.00     0.169 HD
BRANCH  11  14
HETATM   14  C   UNL     1      37.993 -13.676  -1.659  1.00  0.00     0.337 C 
BRANCH  14  15
HETATM   15  N   UNL     1      39.267 -13.052  -2.229  1.00  0.00    -0.062 N 
HETATM   16  C   UNL     1      40.257 -14.093  -2.723  1.00  0.00     0.249 C 
HETATM   17  C   UNL     1      41.610 -13.438  -2.974  1.00  0.00     0.111 C 
HETATM   18  C   UNL     1      41.496 -12.200  -3.873  1.00  0.00     0.018 C 
HETATM   19  C   UNL     1      40.359 -11.247  -3.490  1.00  0.00     0.029 C 
HETATM   20  C   UNL     1      39.039 -11.960  -3.223  1.00  0.00     0.235 C 
HETATM   21  H   UNL     1      39.720 -12.628  -1.387  1.00  0.00     0.280 HD
BRANCH  17  22
HETATM   22  C   UNL     1      42.187 -13.105  -1.617  1.00  0.00     0.264 C 
HETATM   23  O   UNL     1      41.884 -13.732  -0.609  1.00  0.00    -0.265 OA
BRANCH  22  24
HETATM   24  O   UNL     1      43.135 -12.144  -1.709  1.00  0.00    -0.322 OA
BRANCH  24  25
HETATM   25  C   UNL     1      42.972 -11.058  -0.784  1.00  0.00     0.174 C 
HETATM   26  C   UNL     1      43.721  -9.856  -1.322  1.00  0.00     0.034 C 
ENDBRANCH  24  25
ENDBRANCH  22  24
ENDBRANCH  17  22
ENDBRANCH  14  15
ENDBRANCH  11  14
ENDBRANCH   1  10
BRANCH   9  27
HETATM   27  C   UNL     1      40.382 -15.162   2.545  1.00  0.00     0.259 C 
HETATM   28  N   UNL     1      41.705 -15.371   2.883  1.00  0.00    -0.323 N 
HETATM   29  H   UNL     1      42.232 -14.557   3.160  1.00  0.00     0.169 HD
HETATM   30  O   UNL     1      39.642 -16.026   2.072  1.00  0.00    -0.267 OA
BRANCH  28  31
HETATM   31  C   UNL     1      42.418 -16.589   2.894  1.00  0.00     0.035 A 
HETATM   32  C   UNL     1      42.382 -17.513   3.942  1.00  0.00     0.031 A 
HETATM   33  C   UNL     1      43.136 -18.692   3.877  1.00  0.00     0.026 A 
HETATM   34  C   UNL     1      43.940 -18.945   2.771  1.00  0.00     0.034 A 
HETATM   35 CL   UNL     1      44.865 -20.392   2.697  1.00  0.00    -0.084 Cl
HETATM   36  C   UNL     1      43.993 -18.033   1.722  1.00  0.00     0.026 A 
HETATM   37  C   UNL     1      43.229 -16.862   1.782  1.00  0.00     0.031 A 
ENDBRANCH  28  31
ENDBRANCH   9  27
TORSDOF 8
ENDMDL
MODEL 7
REMARK VINA RESULT:      -7.2      3.087      7.339
REMARK  8 active torsions:
REMARK  status: ('A' for Active; 'I' for Inactive)
REMARK    1  A    between atoms: C_2  and  O_3 
REMARK    2  A    between atoms: O_3  and  C_4 
REMARK    3  A    between atoms: C_4  and  C_5 
REMARK    4  A    between atoms: N_7  and  C_9 
REMARK    5  A    between atoms: C_9  and  C_10 
REMARK       I    between atoms: C_10  and  N_11 
REMARK    6  A    between atoms: N_11  and  C_12 
REMARK    7  A    between atoms: C_20  and  C_21 
REMARK       I    between atoms: C_21  and  N_22 
REMARK    8  A    between atoms: N_22  and  C_23 
ROOT
HETATM    1  C   UNL     1      41.027 -14.666  -0.362  1.00  0.00     0.093 C 
HETATM    2  S   UNL     1      40.735 -14.760  -2.026  1.00  0.00    -0.075 SA
HETATM    3  C   UNL     1      41.481 -13.259  -2.280  1.00  0.00    -0.008 C 
HETATM    4  C   UNL     1      41.826 -12.618  -1.099  1.00  0.00    -0.026 C 
HETATM    5  C   UNL     1      42.431 -11.235  -1.139  1.00  0.00     0.041 C 
HETATM    6  C   UNL     1      42.321 -10.565  -2.518  1.00  0.00     0.005 C 
HETATM    7  C   UNL     1      42.646 -11.542  -3.652  1.00  0.00     0.005 C 
HETATM    8  C   UNL     1      41.655 -12.711  -3.664  1.00  0.00     0.047 C 
HETATM    9  C   UNL     1      41.520 -13.441   0.069  1.00  0.00     0.073 C 
ENDROOT
BRANCH   1  10
HETATM   10  N   UNL     1      40.712 -15.838   0.296  1.00  0.00    -0.319 N 
HETATM   11  C   UNL     1      41.723 -16.601   0.835  1.00  0.00     0.248 C 
HETATM   12  O   UNL     1      42.928 -16.458   0.616  1.00  0.00    -0.271 OA
HETATM   13  H   UNL     1      39.842 -16.277   0.018  1.00  0.00     0.169 HD
BRANCH  11  14
HETATM   14  C   UNL     1      41.262 -17.739   1.747  1.00  0.00     0.337 C 
BRANCH  14  15
HETATM   15  N   UNL     1      42.195 -17.856   2.953  1.00  0.00    -0.062 N 
HETATM   16  C   UNL     1      41.476 -17.634   4.273  1.00  0.00     0.249 C 
HETATM   17  C   UNL     1      42.496 -17.445   5.389  1.00  0.00     0.111 C 
HETATM   18  C   UNL     1      43.535 -18.573   5.419  1.00  0.00     0.018 C 
HETATM   19  C   UNL     1      44.114 -18.934   4.047  1.00  0.00     0.029 C 
HETATM   20  C   UNL     1      43.051 -19.081   2.965  1.00  0.00     0.235 C 
HETATM   21  H   UNL     1      42.825 -17.028   2.846  1.00  0.00     0.280 HD
BRANCH  17  22
HETATM   22  C   UNL     1      43.132 -16.091   5.168  1.00  0.00     0.264 C 
HETATM   23  O   UNL     1      43.196 -15.575   4.059  1.00  0.00    -0.265 OA
BRANCH  22  24
HETATM   24  O   UNL     1      43.483 -15.516   6.342  1.00  0.00    -0.322 OA
BRANCH  24  25
HETATM   25  C   UNL     1      43.830 -14.127   6.241  1.00  0.00     0.174 C 
HETATM   26  C   UNL     1      45.072 -13.884   7.075  1.00  0.00     0.034 C 
ENDBRANCH  24  25
ENDBRANCH  22  24
ENDBRANCH  17  22
ENDBRANCH  14  15
ENDBRANCH  11  14
ENDBRANCH   1  10
BRANCH   9  27
HETATM   27  C   UNL     1      41.602 -13.100   1.511  1.00  0.00     0.259 C 
HETATM   28  N   UNL     1      40.389 -13.000   2.163  1.00  0.00    -0.323 N 
HETATM   29  H   UNL     1      39.563 -13.056   1.587  1.00  0.00     0.169 HD
HETATM   30  O   UNL     1      42.696 -12.930   2.050  1.00  0.00    -0.267 OA
BRANCH  28  31
HETATM   31  C   UNL     1      40.155 -12.833   3.545  1.00  0.00     0.035 A 
HETATM   32  C   UNL     1      40.212 -13.865   4.484  1.00  0.00     0.031 A 
HETATM   33  C   UNL     1      39.949 -13.613   5.837  1.00  0.00     0.026 A 
HETATM   34  C   UNL     1      39.616 -12.328   6.254  1.00  0.00     0.034 A 
HETATM   35 CL   UNL     1      39.293 -12.024   7.914  1.00  0.00    -0.084 Cl
HETATM   36  C   UNL     1      39.548 -11.290   5.331  1.00  0.00     0.026 A 
HETATM   37  C   UNL     1      39.824 -11.541   3.982  1.00  0.00     0.031 A 
ENDBRANCH  28  31
ENDBRANCH   9  27
TORSDOF 8
ENDMDL
MODEL 8
REMARK VINA RESULT:      -7.2      2.461      4.844
REMARK  8 active torsions:
REMARK  status: ('A' for Active; 'I' for Inactive)
REMARK    1  A    between atoms: C_2  and  O_3 
REMARK    2  A    between atoms: O_3  and  C_4 
REMARK    3  A    between atoms: C_4  and  C_5 
REMARK    4  A    between atoms: N_7  and  C_9 
REMARK    5  A    between atoms: C_9  and  C_10 
REMARK       I    between atoms: C_10  and  N_11 
REMARK    6  A    between atoms: N_11  and  C_12 
REMARK    7  A    between atoms: C_20  and  C_21 
REMARK       I    between atoms: C_21  and  N_22 
REMARK    8  A    between atoms: N_22  and  C_23 
ROOT
HETATM    1  C   UNL     1      43.349 -17.037   2.024  1.00  0.00     0.093 C 
HETATM    2  S   UNL     1      44.000 -18.598   1.975  1.00  0.00    -0.075 SA
HETATM    3  C   UNL     1      44.076 -18.661   3.667  1.00  0.00    -0.008 C 
HETATM    4  C   UNL     1      43.744 -17.456   4.271  1.00  0.00    -0.026 C 
HETATM    5  C   UNL     1      43.832 -17.313   5.771  1.00  0.00     0.041 C 
HETATM    6  C   UNL     1      44.584 -18.472   6.447  1.00  0.00     0.005 C 
HETATM    7  C   UNL     1      44.180 -19.828   5.862  1.00  0.00     0.005 C 
HETATM    8  C   UNL     1      44.530 -19.904   4.372  1.00  0.00     0.047 C 
HETATM    9  C   UNL     1      43.341 -16.455   3.286  1.00  0.00     0.073 C 
ENDROOT
BRANCH   1  10
HETATM   10  N   UNL     1      42.938 -16.597   0.782  1.00  0.00    -0.319 N 
HETATM   11  C   UNL     1      41.591 -16.503   0.512  1.00  0.00     0.248 C 
HETATM   12  O   UNL     1      40.684 -16.972   1.203  1.00  0.00    -0.271 OA
HETATM   13  H   UNL     1      43.595 -16.744   0.026  1.00  0.00     0.169 HD
BRANCH  11  14
HETATM   14  C   UNL     1      41.239 -15.780  -0.789  1.00  0.00     0.337 C 
BRANCH  14  15
HETATM   15  N   UNL     1      40.922 -14.312  -0.504  1.00  0.00    -0.062 N 
HETATM   16  C   UNL     1      41.328 -13.393  -1.644  1.00  0.00     0.249 C 
HETATM   17  C   UNL     1      41.286 -11.943  -1.176  1.00  0.00     0.111 C 
HETATM   18  C   UNL     1      39.944 -11.584  -0.525  1.00  0.00     0.018 C 
HETATM   19  C   UNL     1      39.436 -12.620   0.482  1.00  0.00     0.029 C 
HETATM   20  C   UNL     1      39.529 -14.053  -0.028  1.00  0.00     0.235 C 
HETATM   21  H   UNL     1      41.575 -14.076   0.278  1.00  0.00     0.280 HD
BRANCH  17  22
HETATM   22  C   UNL     1      42.447 -11.762  -0.224  1.00  0.00     0.264 C 
HETATM   23  O   UNL     1      42.389 -12.116   0.948  1.00  0.00    -0.265 OA
BRANCH  22  24
HETATM   24  O   UNL     1      43.542 -11.294  -0.867  1.00  0.00    -0.322 OA
BRANCH  24  25
HETATM   25  C   UNL     1      43.294 -10.163  -1.715  1.00  0.00     0.174 C 
HETATM   26  C   UNL     1      43.661  -8.906  -0.953  1.00  0.00     0.034 C 
ENDBRANCH  24  25
ENDBRANCH  22  24
ENDBRANCH  17  22
ENDBRANCH  14  15
ENDBRANCH  11  14
ENDBRANCH   1  10
BRANCH   9  27
HETATM   27  C   UNL     1      43.037 -15.015   3.475  1.00  0.00     0.259 C 
HETATM   28  N   UNL     1      41.883 -14.744   4.184  1.00  0.00    -0.323 N 
HETATM   29  H   UNL     1      41.298 -15.534   4.411  1.00  0.00     0.169 HD
HETATM   30  O   UNL     1      43.789 -14.154   3.017  1.00  0.00    -0.267 OA
BRANCH  28  31
HETATM   31  C   UNL     1      41.416 -13.493   4.639  1.00  0.00     0.035 A 
HETATM   32  C   UNL     1      41.936 -12.811   5.743  1.00  0.00     0.031 A 
HETATM   33  C   UNL     1      41.400 -11.579   6.136  1.00  0.00     0.026 A 
HETATM   34  C   UNL     1      40.332 -11.028   5.435  1.00  0.00     0.034 A 
HETATM   35 CL   UNL     1      39.675  -9.516   5.923  1.00  0.00    -0.084 Cl
HETATM   36  C   UNL     1      39.797 -11.696   4.339  1.00  0.00     0.026 A 
HETATM   37  C   UNL     1      40.342 -12.921   3.939  1.00  0.00     0.031 A 
ENDBRANCH  28  31
ENDBRANCH   9  27
TORSDOF 8
ENDMDL
MODEL 9
REMARK VINA RESULT:      -7.1      2.844      5.519
REMARK  8 active torsions:
REMARK  status: ('A' for Active; 'I' for Inactive)
REMARK    1  A    between atoms: C_2  and  O_3 
REMARK    2  A    between atoms: O_3  and  C_4 
REMARK    3  A    between atoms: C_4  and  C_5 
REMARK    4  A    between atoms: N_7  and  C_9 
REMARK    5  A    between atoms: C_9  and  C_10 
REMARK       I    between atoms: C_10  and  N_11 
REMARK    6  A    between atoms: N_11  and  C_12 
REMARK    7  A    between atoms: C_20  and  C_21 
REMARK       I    between atoms: C_21  and  N_22 
REMARK    8  A    between atoms: N_22  and  C_23 
ROOT
HETATM    1  C   UNL     1      41.108 -16.952   2.787  1.00  0.00     0.093 C 
HETATM    2  S   UNL     1      41.938 -17.900   1.658  1.00  0.00    -0.075 SA
HETATM    3  C   UNL     1      42.919 -18.557   2.874  1.00  0.00    -0.008 C 
HETATM    4  C   UNL     1      42.720 -17.962   4.113  1.00  0.00    -0.026 C 
HETATM    5  C   UNL     1      43.566 -18.374   5.293  1.00  0.00     0.041 C 
HETATM    6  C   UNL     1      44.783 -19.227   4.899  1.00  0.00     0.005 C 
HETATM    7  C   UNL     1      44.420 -20.283   3.851  1.00  0.00     0.005 C 
HETATM    8  C   UNL     1      43.926 -19.622   2.560  1.00  0.00     0.047 C 
HETATM    9  C   UNL     1      41.655 -16.963   4.063  1.00  0.00     0.073 C 
ENDROOT
BRANCH   1  10
HETATM   10  N   UNL     1      40.015 -16.312   2.237  1.00  0.00    -0.319 N 
HETATM   11  C   UNL     1      40.162 -15.039   1.735  1.00  0.00     0.248 C 
HETATM   12  O   UNL     1      41.138 -14.306   1.906  1.00  0.00    -0.271 OA
HETATM   13  H   UNL     1      39.111 -16.620   2.576  1.00  0.00     0.169 HD
BRANCH  11  14
HETATM   14  C   UNL     1      38.969 -14.515   0.934  1.00  0.00     0.337 C 
BRANCH  14  15
HETATM   15  N   UNL     1      39.388 -14.233  -0.509  1.00  0.00    -0.062 N 
HETATM   16  C   UNL     1      40.447 -15.200  -1.010  1.00  0.00     0.249 C 
HETATM   17  C   UNL     1      41.046 -14.678  -2.311  1.00  0.00     0.111 C 
HETATM   18  C   UNL     1      39.967 -14.332  -3.346  1.00  0.00     0.018 C 
HETATM   19  C   UNL     1      38.794 -13.523  -2.785  1.00  0.00     0.029 C 
HETATM   20  C   UNL     1      38.256 -14.073  -1.470  1.00  0.00     0.235 C 
HETATM   21  H   UNL     1      39.878 -13.311  -0.437  1.00  0.00     0.280 HD
BRANCH  17  22
HETATM   22  C   UNL     1      41.891 -13.479  -1.947  1.00  0.00     0.264 C 
HETATM   23  O   UNL     1      42.023 -13.103  -0.789  1.00  0.00    -0.265 OA
BRANCH  22  24
HETATM   24  O   UNL     1      42.547 -12.994  -3.027  1.00  0.00    -0.322 OA
BRANCH  24  25
HETATM   25  C   UNL     1      42.630 -11.562  -3.078  1.00  0.00     0.174 C 
HETATM   26  C   UNL     1      41.511 -11.050  -3.963  1.00  0.00     0.034 C 
ENDBRANCH  24  25
ENDBRANCH  22  24
ENDBRANCH  17  22
ENDBRANCH  14  15
ENDBRANCH  11  14
ENDBRANCH   1  10
BRANCH   9  27
HETATM   27  C   UNL     1      41.209 -16.008   5.109  1.00  0.00     0.259 C 
HETATM   28  N   UNL     1      41.527 -14.685   4.875  1.00  0.00    -0.323 N 
HETATM   29  H   UNL     1      42.124 -14.500   4.083  1.00  0.00     0.169 HD
HETATM   30  O   UNL     1      40.596 -16.411   6.099  1.00  0.00    -0.267 OA
BRANCH  28  31
HETATM   31  C   UNL     1      41.118 -13.550   5.606  1.00  0.00     0.035 A 
HETATM   32  C   UNL     1      41.984 -12.556   6.068  1.00  0.00     0.031 A 
HETATM   33  C   UNL     1      41.494 -11.468   6.801  1.00  0.00     0.026 A 
HETATM   34  C   UNL     1      40.136 -11.377   7.088  1.00  0.00     0.034 A 
HETATM   35 CL   UNL     1      39.539 -10.042   7.991  1.00  0.00    -0.084 Cl
HETATM   36  C   UNL     1      39.260 -12.361   6.643  1.00  0.00     0.026 A 
HETATM   37  C   UNL     1      39.750 -13.441   5.899  1.00  0.00     0.031 A 
ENDBRANCH  28  31
ENDBRANCH   9  27
TORSDOF 8
ENDMDL
MODEL 10
REMARK VINA RESULT:      -7.1      3.233      5.817
REMARK  8 active torsions:
REMARK  status: ('A' for Active; 'I' for Inactive)
REMARK    1  A    between atoms: C_2  and  O_3 
REMARK    2  A    between atoms: O_3  and  C_4 
REMARK    3  A    between atoms: C_4  and  C_5 
REMARK    4  A    between atoms: N_7  and  C_9 
REMARK    5  A    between atoms: C_9  and  C_10 
REMARK       I    between atoms: C_10  and  N_11 
REMARK    6  A    between atoms: N_11  and  C_12 
REMARK    7  A    between atoms: C_20  and  C_21 
REMARK       I    between atoms: C_21  and  N_22 
REMARK    8  A    between atoms: N_22  and  C_23 
ROOT
HETATM    1  C   UNL     1      42.944 -17.133   2.833  1.00  0.00     0.093 C 
HETATM    2  S   UNL     1      43.402 -18.143   1.555  1.00  0.00    -0.075 SA
HETATM    3  C   UNL     1      43.873 -19.360   2.637  1.00  0.00    -0.008 C 
HETATM    4  C   UNL     1      43.819 -18.959   3.964  1.00  0.00    -0.026 C 
HETATM    5  C   UNL     1      44.278 -19.895   5.056  1.00  0.00     0.041 C 
HETATM    6  C   UNL     1      45.047 -21.115   4.524  1.00  0.00     0.005 C 
HETATM    7  C   UNL     1      44.379 -21.709   3.281  1.00  0.00     0.005 C 
HETATM    8  C   UNL     1      44.353 -20.690   2.137  1.00  0.00     0.047 C 
HETATM    9  C   UNL     1      43.297 -17.600   4.093  1.00  0.00     0.073 C 
ENDROOT
BRANCH   1  10
HETATM   10  N   UNL     1      42.295 -15.994   2.400  1.00  0.00    -0.319 N 
HETATM   11  C   UNL     1      40.919 -15.978   2.355  1.00  0.00     0.248 C 
HETATM   12  O   UNL     1      40.184 -16.961   2.469  1.00  0.00    -0.271 OA
HETATM   13  H   UNL     1      42.827 -15.396   1.779  1.00  0.00     0.169 HD
BRANCH  11  14
HETATM   14  C   UNL     1      40.294 -14.605   2.100  1.00  0.00     0.337 C 
BRANCH  14  15
HETATM   15  N   UNL     1      40.716 -14.084   0.726  1.00  0.00    -0.062 N 
HETATM   16  C   UNL     1      39.569 -14.060  -0.269  1.00  0.00     0.249 C 
HETATM   17  C   UNL     1      40.113 -13.845  -1.676  1.00  0.00     0.111 C 
HETATM   18  C   UNL     1      41.042 -12.626  -1.757  1.00  0.00     0.018 C 
HETATM   19  C   UNL     1      42.074 -12.547  -0.628  1.00  0.00     0.029 C 
HETATM   20  C   UNL     1      41.480 -12.799   0.752  1.00  0.00     0.235 C 
HETATM   21  H   UNL     1      41.361 -14.831   0.377  1.00  0.00     0.280 HD
BRANCH  17  22
HETATM   22  C   UNL     1      40.816 -15.124  -2.069  1.00  0.00     0.264 C 
HETATM   23  O   UNL     1      41.229 -15.921  -1.235  1.00  0.00    -0.265 OA
BRANCH  22  24
HETATM   24  O   UNL     1      40.803 -15.301  -3.410  1.00  0.00    -0.322 OA
BRANCH  24  25
HETATM   25  C   UNL     1      39.504 -15.187  -4.011  1.00  0.00     0.174 C 
HETATM   26  C   UNL     1      38.897 -16.572  -4.103  1.00  0.00     0.034 C 
ENDBRANCH  24  25
ENDBRANCH  22  24
ENDBRANCH  17  22
ENDBRANCH  14  15
ENDBRANCH  11  14
ENDBRANCH   1  10
BRANCH   9  27
HETATM   27  C   UNL     1      43.195 -16.739   5.298  1.00  0.00     0.259 C 
HETATM   28  N   UNL     1      43.908 -15.558   5.242  1.00  0.00    -0.323 N 
HETATM   29  H   UNL     1      44.516 -15.438   4.445  1.00  0.00     0.169 HD
HETATM   30  O   UNL     1      42.508 -17.091   6.258  1.00  0.00    -0.267 OA
BRANCH  28  31
HETATM   31  C   UNL     1      43.892 -14.488   6.161  1.00  0.00     0.035 A 
HETATM   32  C   UNL     1      44.816 -14.325   7.196  1.00  0.00     0.031 A 
HETATM   33  C   UNL     1      44.716 -13.238   8.075  1.00  0.00     0.026 A 
HETATM   34  C   UNL     1      43.684 -12.317   7.929  1.00  0.00     0.034 A 
HETATM   35 CL   UNL     1      43.564 -10.987   9.011  1.00  0.00    -0.084 Cl
HETATM   36  C   UNL     1      42.752 -12.468   6.908  1.00  0.00     0.026 A 
HETATM   37  C   UNL     1      42.860 -13.547   6.023  1.00  0.00     0.031 A 
ENDBRANCH  28  31
ENDBRANCH   9  27
TORSDOF 8
ENDMDL
