MODEL 1
REMARK VINA RESULT:      -8.4      0.000      0.000
REMARK  8 active torsions:
REMARK  status: ('A' for Active; 'I' for Inactive)
REMARK    1  A    between atoms: C_2  and  C_3 
REMARK    2  A    between atoms: C_4  and  N_5 
REMARK    3  A    between atoms: N_5  and  S_6 
REMARK    4  A    between atoms: S_6  and  C_7 
REMARK    5  A    between atoms: C_13  and  C_14 
REMARK       I    between atoms: C_14  and  N_15 
REMARK    6  A    between atoms: N_15  and  C_16 
REMARK    7  A    between atoms: C_16  and  C_17 
REMARK    8  A    between atoms: C_17  and  O_18 
ROOT
HETATM    1  C   UNL     1      42.744 -16.172   4.708  1.00  0.00     0.081 A 
HETATM    2  C   UNL     1      42.455 -16.116   3.343  1.00  0.00     0.043 A 
HETATM    3  C   UNL     1      42.312 -14.867   2.730  1.00  0.00     0.043 A 
HETATM    4  C   UNL     1      42.505 -13.677   3.456  1.00  0.00     0.046 A 
HETATM    5  N   UNL     1      42.340 -12.441   2.824  1.00  0.00    -0.364 N 
HETATM    6  C   UNL     1      42.064 -12.370   1.483  1.00  0.00     0.109 A 
HETATM    7  C   UNL     1      41.851 -13.422   0.674  1.00  0.00     0.098 A 
HETATM    8  C   UNL     1      41.946 -14.775   1.290  1.00  0.00     0.201 A 
HETATM    9  O   UNL     1      41.724 -15.797   0.644  1.00  0.00    -0.286 OA
HETATM   10  C   UNL     1      42.799 -13.754   4.821  1.00  0.00     0.032 A 
HETATM   11  C   UNL     1      42.925 -14.997   5.448  1.00  0.00     0.027 A 
HETATM   12  H   UNL     1      42.616 -11.593   3.308  1.00  0.00     0.165 HD
ENDROOT
BRANCH   1  13
HETATM   13  S   UNL     1      42.971 -17.750   5.493  1.00  0.00     0.263 S 
HETATM   14  O   UNL     1      41.944 -18.633   4.975  1.00  0.00    -0.200 OA
HETATM   15  O   UNL     1      43.117 -17.537   6.914  1.00  0.00    -0.200 OA
BRANCH  13  16
HETATM   16  N   UNL     1      44.423 -18.302   4.819  1.00  0.00    -0.280 N 
HETATM   17  H   UNL     1      44.779 -17.625   4.147  1.00  0.00     0.179 HD
BRANCH  16  18
HETATM   18  C   UNL     1      44.504 -19.677   4.447  1.00  0.00     0.049 A 
HETATM   19  C   UNL     1      44.337 -20.087   3.113  1.00  0.00    -0.031 A 
HETATM   20  C   UNL     1      44.385 -21.461   2.824  1.00  0.00     0.009 A 
HETATM   21  C   UNL     1      44.580 -22.401   3.838  1.00  0.00     0.001 A 
HETATM   22  C   UNL     1      44.741 -21.981   5.154  1.00  0.00     0.002 A 
HETATM   23  C   UNL     1      44.704 -20.621   5.458  1.00  0.00     0.030 A 
BRANCH  19  24
HETATM   24  C   UNL     1      44.136 -19.116   1.974  1.00  0.00     0.036 C 
HETATM   25  C   UNL     1      42.679 -19.053   1.537  1.00  0.00     0.010 C 
ENDBRANCH  19  24
ENDBRANCH  16  18
ENDBRANCH  13  16
ENDBRANCH   1  13
BRANCH   7  26
HETATM   26  C   UNL     1      41.521 -13.158  -0.755  1.00  0.00     0.257 C 
HETATM   27  N   UNL     1      41.854 -14.155  -1.633  1.00  0.00    -0.355 N 
HETATM   28  H   UNL     1      42.418 -14.936  -1.295  1.00  0.00     0.162 HD
HETATM   29  O   UNL     1      40.980 -12.112  -1.110  1.00  0.00    -0.267 OA
BRANCH  27  30
HETATM   30  C   UNL     1      41.651 -14.035  -3.064  1.00  0.00     0.149 C 
BRANCH  30  31
HETATM   31  C   UNL     1      40.227 -14.401  -3.483  1.00  0.00     0.186 C 
BRANCH  31  32
HETATM   32  O   UNL     1      40.185 -15.790  -3.828  1.00  0.00    -0.394 OA
HETATM   33  C   UNL     1      38.925 -16.153  -4.380  1.00  0.00     0.201 C 
ENDBRANCH  31  32
ENDBRANCH  30  31
ENDBRANCH  27  30
ENDBRANCH   7  26
TORSDOF 8
ENDMDL
MODEL 2
REMARK VINA RESULT:      -8.3      4.133      6.304
REMARK  8 active torsions:
REMARK  status: ('A' for Active; 'I' for Inactive)
REMARK    1  A    between atoms: C_2  and  C_3 
REMARK    2  A    between atoms: C_4  and  N_5 
REMARK    3  A    between atoms: N_5  and  S_6 
REMARK    4  A    between atoms: S_6  and  C_7 
REMARK    5  A    between atoms: C_13  and  C_14 
REMARK       I    between atoms: C_14  and  N_15 
REMARK    6  A    between atoms: N_15  and  C_16 
REMARK    7  A    between atoms: C_16  and  C_17 
REMARK    8  A    between atoms: C_17  and  O_18 
ROOT
HETATM    1  C   UNL     1      43.037 -17.890   5.848  1.00  0.00     0.081 A 
HETATM    2  C   UNL     1      43.233 -16.540   6.148  1.00  0.00     0.043 A 
HETATM    3  C   UNL     1      42.247 -15.615   5.789  1.00  0.00     0.043 A 
HETATM    4  C   UNL     1      41.049 -16.034   5.181  1.00  0.00     0.046 A 
HETATM    5  N   UNL     1      40.086 -15.087   4.816  1.00  0.00    -0.364 N 
HETATM    6  C   UNL     1      40.260 -13.760   5.111  1.00  0.00     0.109 A 
HETATM    7  C   UNL     1      41.352 -13.224   5.683  1.00  0.00     0.098 A 
HETATM    8  C   UNL     1      42.453 -14.163   6.043  1.00  0.00     0.201 A 
HETATM    9  O   UNL     1      43.509 -13.766   6.528  1.00  0.00    -0.286 OA
HETATM   10  C   UNL     1      40.870 -17.390   4.893  1.00  0.00     0.032 A 
HETATM   11  C   UNL     1      41.858 -18.320   5.230  1.00  0.00     0.027 A 
HETATM   12  H   UNL     1      39.171 -15.400   4.510  1.00  0.00     0.165 HD
ENDROOT
BRANCH   1  13
HETATM   13  S   UNL     1      44.261 -19.083   6.335  1.00  0.00     0.263 S 
HETATM   14  O   UNL     1      43.583 -20.358   6.463  1.00  0.00    -0.200 OA
HETATM   15  O   UNL     1      45.022 -18.535   7.435  1.00  0.00    -0.200 OA
BRANCH  13  16
HETATM   16  N   UNL     1      45.226 -19.222   4.952  1.00  0.00    -0.280 N 
HETATM   17  H   UNL     1      45.583 -18.308   4.678  1.00  0.00     0.179 HD
BRANCH  16  18
HETATM   18  C   UNL     1      44.767 -20.071   3.901  1.00  0.00     0.049 A 
HETATM   19  C   UNL     1      44.161 -19.547   2.747  1.00  0.00    -0.031 A 
HETATM   20  C   UNL     1      43.691 -20.442   1.771  1.00  0.00     0.009 A 
HETATM   21  C   UNL     1      43.810 -21.822   1.948  1.00  0.00     0.001 A 
HETATM   22  C   UNL     1      44.410 -22.327   3.098  1.00  0.00     0.002 A 
HETATM   23  C   UNL     1      44.888 -21.453   4.071  1.00  0.00     0.030 A 
BRANCH  19  24
HETATM   24  C   UNL     1      44.016 -18.065   2.495  1.00  0.00     0.036 C 
HETATM   25  C   UNL     1      43.668 -17.772   1.042  1.00  0.00     0.010 C 
ENDBRANCH  19  24
ENDBRANCH  16  18
ENDBRANCH  13  16
ENDBRANCH   1  13
BRANCH   7  26
HETATM   26  C   UNL     1      41.388 -11.750   5.894  1.00  0.00     0.257 C 
HETATM   27  N   UNL     1      41.340 -11.338   7.199  1.00  0.00    -0.355 N 
HETATM   28  H   UNL     1      41.145 -12.030   7.924  1.00  0.00     0.162 HD
HETATM   29  O   UNL     1      41.464 -10.965   4.950  1.00  0.00    -0.267 OA
BRANCH  27  30
HETATM   30  C   UNL     1      41.310  -9.936   7.574  1.00  0.00     0.149 C 
BRANCH  30  31
HETATM   31  C   UNL     1      41.926  -9.690   8.952  1.00  0.00     0.186 C 
BRANCH  31  32
HETATM   32  O   UNL     1      41.314 -10.570   9.901  1.00  0.00    -0.394 OA
HETATM   33  C   UNL     1      42.255 -11.049  10.853  1.00  0.00     0.201 C 
ENDBRANCH  31  32
ENDBRANCH  30  31
ENDBRANCH  27  30
ENDBRANCH   7  26
TORSDOF 8
ENDMDL
MODEL 3
REMARK VINA RESULT:      -8.2      1.750      1.864
REMARK  8 active torsions:
REMARK  status: ('A' for Active; 'I' for Inactive)
REMARK    1  A    between atoms: C_2  and  C_3 
REMARK    2  A    between atoms: C_4  and  N_5 
REMARK    3  A    between atoms: N_5  and  S_6 
REMARK    4  A    between atoms: S_6  and  C_7 
REMARK    5  A    between atoms: C_13  and  C_14 
REMARK       I    between atoms: C_14  and  N_15 
REMARK    6  A    between atoms: N_15  and  C_16 
REMARK    7  A    between atoms: C_16  and  C_17 
REMARK    8  A    between atoms: C_17  and  O_18 
ROOT
HETATM    1  C   UNL     1      41.283 -15.923   4.863  1.00  0.00     0.081 A 
HETATM    2  C   UNL     1      41.133 -15.823   3.478  1.00  0.00     0.043 A 
HETATM    3  C   UNL     1      40.411 -14.748   2.949  1.00  0.00     0.043 A 
HETATM    4  C   UNL     1      39.882 -13.749   3.787  1.00  0.00     0.046 A 
HETATM    5  N   UNL     1      39.150 -12.693   3.235  1.00  0.00    -0.364 N 
HETATM    6  C   UNL     1      39.001 -12.577   1.877  1.00  0.00     0.109 A 
HETATM    7  C   UNL     1      39.447 -13.458   0.965  1.00  0.00     0.098 A 
HETATM    8  C   UNL     1      40.184 -14.647   1.482  1.00  0.00     0.201 A 
HETATM    9  O   UNL     1      40.592 -15.531   0.733  1.00  0.00    -0.286 OA
HETATM   10  C   UNL     1      40.048 -13.864   5.171  1.00  0.00     0.032 A 
HETATM   11  C   UNL     1      40.751 -14.944   5.711  1.00  0.00     0.027 A 
HETATM   12  H   UNL     1      38.893 -11.905   3.820  1.00  0.00     0.165 HD
ENDROOT
BRANCH   1  13
HETATM   13  S   UNL     1      42.233 -17.259   5.549  1.00  0.00     0.263 S 
HETATM   14  O   UNL     1      41.468 -18.473   5.344  1.00  0.00    -0.200 OA
HETATM   15  O   UNL     1      42.674 -16.875   6.870  1.00  0.00    -0.200 OA
BRANCH  13  16
HETATM   16  N   UNL     1      43.548 -17.370   4.489  1.00  0.00    -0.280 N 
HETATM   17  H   UNL     1      43.477 -16.659   3.763  1.00  0.00     0.179 HD
BRANCH  16  18
HETATM   18  C   UNL     1      43.960 -18.671   4.072  1.00  0.00     0.049 A 
HETATM   19  C   UNL     1      43.605 -19.184   2.813  1.00  0.00    -0.031 A 
HETATM   20  C   UNL     1      44.007 -20.489   2.484  1.00  0.00     0.009 A 
HETATM   21  C   UNL     1      44.729 -21.267   3.391  1.00  0.00     0.001 A 
HETATM   22  C   UNL     1      45.071 -20.748   4.635  1.00  0.00     0.002 A 
HETATM   23  C   UNL     1      44.688 -19.451   4.974  1.00  0.00     0.030 A 
BRANCH  19  24
HETATM   24  C   UNL     1      42.837 -18.385   1.786  1.00  0.00     0.036 C 
HETATM   25  C   UNL     1      43.756 -17.494   0.962  1.00  0.00     0.010 C 
ENDBRANCH  19  24
ENDBRANCH  16  18
ENDBRANCH  13  16
ENDBRANCH   1  13
BRANCH   7  26
HETATM   26  C   UNL     1      39.159 -13.194  -0.472  1.00  0.00     0.257 C 
HETATM   27  N   UNL     1      38.856 -14.295  -1.227  1.00  0.00    -0.355 N 
HETATM   28  H   UNL     1      38.978 -15.221  -0.813  1.00  0.00     0.162 HD
HETATM   29  O   UNL     1      39.189 -12.056  -0.937  1.00  0.00    -0.267 OA
BRANCH  27  30
HETATM   30  C   UNL     1      38.604 -14.219  -2.654  1.00  0.00     0.149 C 
BRANCH  30  31
HETATM   31  C   UNL     1      39.894 -14.253  -3.475  1.00  0.00     0.186 C 
BRANCH  31  32
HETATM   32  O   UNL     1      40.088 -15.577  -3.983  1.00  0.00    -0.394 OA
HETATM   33  C   UNL     1      38.857 -16.174  -4.371  1.00  0.00     0.201 C 
ENDBRANCH  31  32
ENDBRANCH  30  31
ENDBRANCH  27  30
ENDBRANCH   7  26
TORSDOF 8
ENDMDL
MODEL 4
REMARK VINA RESULT:      -7.8      3.624      6.855
REMARK  8 active torsions:
REMARK  status: ('A' for Active; 'I' for Inactive)
REMARK    1  A    between atoms: C_2  and  C_3 
REMARK    2  A    between atoms: C_4  and  N_5 
REMARK    3  A    between atoms: N_5  and  S_6 
REMARK    4  A    between atoms: S_6  and  C_7 
REMARK    5  A    between atoms: C_13  and  C_14 
REMARK       I    between atoms: C_14  and  N_15 
REMARK    6  A    between atoms: N_15  and  C_16 
REMARK    7  A    between atoms: C_16  and  C_17 
REMARK    8  A    between atoms: C_17  and  O_18 
ROOT
HETATM    1  C   UNL     1      41.327 -15.090   2.826  1.00  0.00     0.081 A 
HETATM    2  C   UNL     1      41.956 -14.472   3.908  1.00  0.00     0.043 A 
HETATM    3  C   UNL     1      41.351 -13.357   4.499  1.00  0.00     0.043 A 
HETATM    4  C   UNL     1      40.103 -12.889   4.049  1.00  0.00     0.046 A 
HETATM    5  N   UNL     1      39.527 -11.763   4.645  1.00  0.00    -0.364 N 
HETATM    6  C   UNL     1      40.127 -11.150   5.715  1.00  0.00     0.109 A 
HETATM    7  C   UNL     1      41.317 -11.488   6.240  1.00  0.00     0.098 A 
HETATM    8  C   UNL     1      42.025 -12.642   5.616  1.00  0.00     0.201 A 
HETATM    9  O   UNL     1      43.138 -13.000   5.995  1.00  0.00    -0.286 OA
HETATM   10  C   UNL     1      39.487 -13.525   2.967  1.00  0.00     0.032 A 
HETATM   11  C   UNL     1      40.093 -14.627   2.358  1.00  0.00     0.027 A 
HETATM   12  H   UNL     1      38.570 -11.513   4.419  1.00  0.00     0.165 HD
ENDROOT
BRANCH   1  13
HETATM   13  S   UNL     1      42.062 -16.532   2.092  1.00  0.00     0.263 S 
HETATM   14  O   UNL     1      43.496 -16.323   2.087  1.00  0.00    -0.200 OA
HETATM   15  O   UNL     1      41.354 -16.834   0.869  1.00  0.00    -0.200 OA
BRANCH  13  16
HETATM   16  N   UNL     1      41.785 -17.731   3.254  1.00  0.00    -0.280 N 
HETATM   17  H   UNL     1      41.005 -17.467   3.853  1.00  0.00     0.179 HD
BRANCH  16  18
HETATM   18  C   UNL     1      42.919 -18.310   3.898  1.00  0.00     0.049 A 
HETATM   19  C   UNL     1      43.587 -19.418   3.351  1.00  0.00    -0.031 A 
HETATM   20  C   UNL     1      44.670 -19.965   4.060  1.00  0.00     0.009 A 
HETATM   21  C   UNL     1      45.067 -19.431   5.287  1.00  0.00     0.001 A 
HETATM   22  C   UNL     1      44.394 -18.335   5.819  1.00  0.00     0.002 A 
HETATM   23  C   UNL     1      43.324 -17.775   5.124  1.00  0.00     0.030 A 
BRANCH  19  24
HETATM   24  C   UNL     1      43.212 -20.031   2.022  1.00  0.00     0.036 C 
HETATM   25  C   UNL     1      43.852 -21.399   1.831  1.00  0.00     0.010 C 
ENDBRANCH  19  24
ENDBRANCH  16  18
ENDBRANCH  13  16
ENDBRANCH   1  13
BRANCH   7  26
HETATM   26  C   UNL     1      41.841 -10.684   7.380  1.00  0.00     0.257 C 
HETATM   27  N   UNL     1      42.152 -11.392   8.510  1.00  0.00    -0.355 N 
HETATM   28  H   UNL     1      41.885 -12.376   8.560  1.00  0.00     0.162 HD
HETATM   29  O   UNL     1      41.986  -9.465   7.296  1.00  0.00    -0.267 OA
BRANCH  27  30
HETATM   30  C   UNL     1      42.621 -10.754   9.726  1.00  0.00     0.149 C 
BRANCH  30  31
HETATM   31  C   UNL     1      44.032 -11.200  10.110  1.00  0.00     0.186 C 
BRANCH  31  32
HETATM   32  O   UNL     1      44.895 -11.039   8.979  1.00  0.00    -0.394 OA
HETATM   33  C   UNL     1      45.700 -12.193   8.768  1.00  0.00     0.201 C 
ENDBRANCH  31  32
ENDBRANCH  30  31
ENDBRANCH  27  30
ENDBRANCH   7  26
TORSDOF 8
ENDMDL
MODEL 5
REMARK VINA RESULT:      -7.7      3.152      9.151
REMARK  8 active torsions:
REMARK  status: ('A' for Active; 'I' for Inactive)
REMARK    1  A    between atoms: C_2  and  C_3 
REMARK    2  A    between atoms: C_4  and  N_5 
REMARK    3  A    between atoms: N_5  and  S_6 
REMARK    4  A    between atoms: S_6  and  C_7 
REMARK    5  A    between atoms: C_13  and  C_14 
REMARK       I    between atoms: C_14  and  N_15 
REMARK    6  A    between atoms: N_15  and  C_16 
REMARK    7  A    between atoms: C_16  and  C_17 
REMARK    8  A    between atoms: C_17  and  O_18 
ROOT
HETATM    1  C   UNL     1      40.262 -14.719  -0.433  1.00  0.00     0.081 A 
HETATM    2  C   UNL     1      41.248 -15.662  -0.132  1.00  0.00     0.043 A 
HETATM    3  C   UNL     1      41.317 -16.181   1.165  1.00  0.00     0.043 A 
HETATM    4  C   UNL     1      40.381 -15.805   2.146  1.00  0.00     0.046 A 
HETATM    5  N   UNL     1      40.482 -16.326   3.440  1.00  0.00    -0.364 N 
HETATM    6  C   UNL     1      41.439 -17.258   3.749  1.00  0.00     0.109 A 
HETATM    7  C   UNL     1      42.395 -17.701   2.914  1.00  0.00     0.098 A 
HETATM    8  C   UNL     1      42.393 -17.143   1.532  1.00  0.00     0.201 A 
HETATM    9  O   UNL     1      43.251 -17.450   0.709  1.00  0.00    -0.286 OA
HETATM   10  C   UNL     1      39.399 -14.864   1.824  1.00  0.00     0.032 A 
HETATM   11  C   UNL     1      39.333 -14.324   0.536  1.00  0.00     0.027 A 
HETATM   12  H   UNL     1      39.730 -16.166   4.102  1.00  0.00     0.165 HD
ENDROOT
BRANCH   1  13
HETATM   13  S   UNL     1      40.134 -14.081  -2.086  1.00  0.00     0.263 S 
HETATM   14  O   UNL     1      38.767 -14.293  -2.518  1.00  0.00    -0.200 OA
HETATM   15  O   UNL     1      41.243 -14.592  -2.860  1.00  0.00    -0.200 OA
BRANCH  13  16
HETATM   16  N   UNL     1      40.283 -12.410  -1.860  1.00  0.00    -0.280 N 
HETATM   17  H   UNL     1      39.443 -12.039  -1.419  1.00  0.00     0.179 HD
BRANCH  16  18
HETATM   18  C   UNL     1      40.842 -11.641  -2.924  1.00  0.00     0.049 A 
HETATM   19  C   UNL     1      42.133 -11.093  -2.832  1.00  0.00    -0.031 A 
HETATM   20  C   UNL     1      42.605 -10.309  -3.898  1.00  0.00     0.009 A 
HETATM   21  C   UNL     1      41.806 -10.065  -5.017  1.00  0.00     0.001 A 
HETATM   22  C   UNL     1      40.529 -10.611  -5.093  1.00  0.00     0.002 A 
HETATM   23  C   UNL     1      40.049 -11.399  -4.048  1.00  0.00     0.030 A 
BRANCH  19  24
HETATM   24  C   UNL     1      43.047 -11.333  -1.653  1.00  0.00     0.036 C 
HETATM   25  C   UNL     1      43.658 -10.036  -1.141  1.00  0.00     0.010 C 
ENDBRANCH  19  24
ENDBRANCH  16  18
ENDBRANCH  13  16
ENDBRANCH   1  13
BRANCH   7  26
HETATM   26  C   UNL     1      43.382 -18.689   3.431  1.00  0.00     0.257 C 
HETATM   27  N   UNL     1      43.864 -19.582   2.510  1.00  0.00    -0.355 N 
HETATM   28  H   UNL     1      43.431 -19.613   1.587  1.00  0.00     0.162 HD
HETATM   29  O   UNL     1      43.739 -18.689   4.608  1.00  0.00    -0.267 OA
BRANCH  27  30
HETATM   30  C   UNL     1      44.789 -20.643   2.862  1.00  0.00     0.149 C 
BRANCH  30  31
HETATM   31  C   UNL     1      44.370 -21.995   2.286  1.00  0.00     0.186 C 
BRANCH  31  32
HETATM   32  O   UNL     1      44.723 -23.027   3.214  1.00  0.00    -0.394 OA
HETATM   33  C   UNL     1      44.735 -22.544   4.552  1.00  0.00     0.201 C 
ENDBRANCH  31  32
ENDBRANCH  30  31
ENDBRANCH  27  30
ENDBRANCH   7  26
TORSDOF 8
ENDMDL
MODEL 6
REMARK VINA RESULT:      -7.6      3.934      7.749
REMARK  8 active torsions:
REMARK  status: ('A' for Active; 'I' for Inactive)
REMARK    1  A    between atoms: C_2  and  C_3 
REMARK    2  A    between atoms: C_4  and  N_5 
REMARK    3  A    between atoms: N_5  and  S_6 
REMARK    4  A    between atoms: S_6  and  C_7 
REMARK    5  A    between atoms: C_13  and  C_14 
REMARK       I    between atoms: C_14  and  N_15 
REMARK    6  A    between atoms: N_15  and  C_16 
REMARK    7  A    between atoms: C_16  and  C_17 
REMARK    8  A    between atoms: C_17  and  O_18 
ROOT
HETATM    1  C   UNL     1      42.294 -14.785   3.526  1.00  0.00     0.081 A 
HETATM    2  C   UNL     1      43.113 -14.637   4.647  1.00  0.00     0.043 A 
HETATM    3  C   UNL     1      42.857 -13.591   5.541  1.00  0.00     0.043 A 
HETATM    4  C   UNL     1      41.763 -12.727   5.349  1.00  0.00     0.046 A 
HETATM    5  N   UNL     1      41.539 -11.679   6.248  1.00  0.00    -0.364 N 
HETATM    6  C   UNL     1      42.329 -11.525   7.358  1.00  0.00     0.109 A 
HETATM    7  C   UNL     1      43.405 -12.272   7.659  1.00  0.00     0.098 A 
HETATM    8  C   UNL     1      43.748 -13.371   6.713  1.00  0.00     0.201 A 
HETATM    9  O   UNL     1      44.737 -14.080   6.876  1.00  0.00    -0.286 OA
HETATM   10  C   UNL     1      40.952 -12.896   4.223  1.00  0.00     0.032 A 
HETATM   11  C   UNL     1      41.210 -13.925   3.314  1.00  0.00     0.027 A 
HETATM   12  H   UNL     1      40.676 -11.148   6.190  1.00  0.00     0.165 HD
ENDROOT
BRANCH   1  13
HETATM   13  S   UNL     1      42.579 -16.134   2.404  1.00  0.00     0.263 S 
HETATM   14  O   UNL     1      44.015 -16.259   2.246  1.00  0.00    -0.200 OA
HETATM   15  O   UNL     1      41.719 -15.963   1.255  1.00  0.00    -0.200 OA
BRANCH  13  16
HETATM   16  N   UNL     1      42.106 -17.485   3.308  1.00  0.00    -0.280 N 
HETATM   17  H   UNL     1      41.767 -17.194   4.224  1.00  0.00     0.179 HD
BRANCH  16  18
HETATM   18  C   UNL     1      42.944 -18.638   3.272  1.00  0.00     0.049 A 
HETATM   19  C   UNL     1      43.808 -18.950   4.336  1.00  0.00    -0.031 A 
HETATM   20  C   UNL     1      44.639 -20.077   4.215  1.00  0.00     0.009 A 
HETATM   21  C   UNL     1      44.620 -20.862   3.061  1.00  0.00     0.001 A 
HETATM   22  C   UNL     1      43.762 -20.539   2.014  1.00  0.00     0.002 A 
HETATM   23  C   UNL     1      42.925 -19.430   2.121  1.00  0.00     0.030 A 
BRANCH  19  24
HETATM   24  C   UNL     1      43.863 -18.146   5.613  1.00  0.00     0.036 C 
HETATM   25  C   UNL     1      45.247 -18.188   6.246  1.00  0.00     0.010 C 
ENDBRANCH  19  24
ENDBRANCH  16  18
ENDBRANCH  13  16
ENDBRANCH   1  13
BRANCH   7  26
HETATM   26  C   UNL     1      44.175 -11.937   8.889  1.00  0.00     0.257 C 
HETATM   27  N   UNL     1      43.635 -12.385  10.065  1.00  0.00    -0.355 N 
HETATM   28  H   UNL     1      42.697 -12.786  10.051  1.00  0.00     0.162 HD
HETATM   29  O   UNL     1      45.229 -11.305   8.839  1.00  0.00    -0.267 OA
BRANCH  27  30
HETATM   30  C   UNL     1      44.230 -12.098  11.357  1.00  0.00     0.149 C 
BRANCH  30  31
HETATM   31  C   UNL     1      43.203 -11.595  12.372  1.00  0.00     0.186 C 
BRANCH  31  32
HETATM   32  O   UNL     1      41.989 -11.270  11.685  1.00  0.00    -0.394 OA
HETATM   33  C   UNL     1      41.770  -9.865  11.648  1.00  0.00     0.201 C 
ENDBRANCH  31  32
ENDBRANCH  30  31
ENDBRANCH  27  30
ENDBRANCH   7  26
TORSDOF 8
ENDMDL
MODEL 7
REMARK VINA RESULT:      -7.6      3.764      7.065
REMARK  8 active torsions:
REMARK  status: ('A' for Active; 'I' for Inactive)
REMARK    1  A    between atoms: C_2  and  C_3 
REMARK    2  A    between atoms: C_4  and  N_5 
REMARK    3  A    between atoms: N_5  and  S_6 
REMARK    4  A    between atoms: S_6  and  C_7 
REMARK    5  A    between atoms: C_13  and  C_14 
REMARK       I    between atoms: C_14  and  N_15 
REMARK    6  A    between atoms: N_15  and  C_16 
REMARK    7  A    between atoms: C_16  and  C_17 
REMARK    8  A    between atoms: C_17  and  O_18 
ROOT
HETATM    1  C   UNL     1      40.618 -14.439   2.617  1.00  0.00     0.081 A 
HETATM    2  C   UNL     1      41.287 -13.994   3.759  1.00  0.00     0.043 A 
HETATM    3  C   UNL     1      40.872 -12.804   4.367  1.00  0.00     0.043 A 
HETATM    4  C   UNL     1      39.767 -12.086   3.875  1.00  0.00     0.046 A 
HETATM    5  N   UNL     1      39.383 -10.891   4.491  1.00  0.00    -0.364 N 
HETATM    6  C   UNL     1      40.024 -10.444   5.617  1.00  0.00     0.109 A 
HETATM    7  C   UNL     1      41.092 -11.026   6.189  1.00  0.00     0.098 A 
HETATM    8  C   UNL     1      41.602 -12.272   5.551  1.00  0.00     0.201 A 
HETATM    9  O   UNL     1      42.600 -12.853   5.971  1.00  0.00    -0.286 OA
HETATM   10  C   UNL     1      39.107 -12.552   2.733  1.00  0.00     0.032 A 
HETATM   11  C   UNL     1      39.526 -13.729   2.107  1.00  0.00     0.027 A 
HETATM   12  H   UNL     1      38.507 -10.452   4.226  1.00  0.00     0.165 HD
ENDROOT
BRANCH   1  13
HETATM   13  S   UNL     1      41.105 -15.970   1.858  1.00  0.00     0.263 S 
HETATM   14  O   UNL     1      41.152 -15.738   0.427  1.00  0.00    -0.200 OA
HETATM   15  O   UNL     1      40.296 -17.032   2.409  1.00  0.00    -0.200 OA
BRANCH  13  16
HETATM   16  N   UNL     1      42.719 -16.136   2.341  1.00  0.00    -0.280 N 
HETATM   17  H   UNL     1      43.326 -15.583   1.738  1.00  0.00     0.179 HD
BRANCH  16  18
HETATM   18  C   UNL     1      43.180 -17.440   2.690  1.00  0.00     0.049 A 
HETATM   19  C   UNL     1      43.403 -17.805   4.028  1.00  0.00    -0.031 A 
HETATM   20  C   UNL     1      43.899 -19.092   4.298  1.00  0.00     0.009 A 
HETATM   21  C   UNL     1      44.179 -19.984   3.261  1.00  0.00     0.001 A 
HETATM   22  C   UNL     1      43.956 -19.608   1.940  1.00  0.00     0.002 A 
HETATM   23  C   UNL     1      43.456 -18.339   1.656  1.00  0.00     0.030 A 
BRANCH  19  24
HETATM   24  C   UNL     1      43.106 -16.888   5.191  1.00  0.00     0.036 C 
HETATM   25  C   UNL     1      41.734 -17.163   5.790  1.00  0.00     0.010 C 
ENDBRANCH  19  24
ENDBRANCH  16  18
ENDBRANCH  13  16
ENDBRANCH   1  13
BRANCH   7  26
HETATM   26  C   UNL     1      41.690 -10.379   7.391  1.00  0.00     0.257 C 
HETATM   27  N   UNL     1      41.871 -11.197   8.474  1.00  0.00    -0.355 N 
HETATM   28  H   UNL     1      41.471 -12.135   8.451  1.00  0.00     0.162 HD
HETATM   29  O   UNL     1      42.002  -9.189   7.394  1.00  0.00    -0.267 OA
BRANCH  27  30
HETATM   30  C   UNL     1      42.390 -10.712   9.740  1.00  0.00     0.149 C 
BRANCH  30  31
HETATM   31  C   UNL     1      43.742 -11.333  10.090  1.00  0.00     0.186 C 
BRANCH  31  32
HETATM   32  O   UNL     1      44.629 -11.180   8.976  1.00  0.00    -0.394 OA
HETATM   33  C   UNL     1      45.313 -12.392   8.683  1.00  0.00     0.201 C 
ENDBRANCH  31  32
ENDBRANCH  30  31
ENDBRANCH  27  30
ENDBRANCH   7  26
TORSDOF 8
ENDMDL
MODEL 8
REMARK VINA RESULT:      -7.5      3.608      6.975
REMARK  8 active torsions:
REMARK  status: ('A' for Active; 'I' for Inactive)
REMARK    1  A    between atoms: C_2  and  C_3 
REMARK    2  A    between atoms: C_4  and  N_5 
REMARK    3  A    between atoms: N_5  and  S_6 
REMARK    4  A    between atoms: S_6  and  C_7 
REMARK    5  A    between atoms: C_13  and  C_14 
REMARK       I    between atoms: C_14  and  N_15 
REMARK    6  A    between atoms: N_15  and  C_16 
REMARK    7  A    between atoms: C_16  and  C_17 
REMARK    8  A    between atoms: C_17  and  O_18 
ROOT
HETATM    1  C   UNL     1      41.421 -15.269   2.197  1.00  0.00     0.081 A 
HETATM    2  C   UNL     1      41.602 -14.765   3.487  1.00  0.00     0.043 A 
HETATM    3  C   UNL     1      40.766 -13.739   3.938  1.00  0.00     0.043 A 
HETATM    4  C   UNL     1      39.722 -13.248   3.132  1.00  0.00     0.046 A 
HETATM    5  N   UNL     1      38.910 -12.210   3.600  1.00  0.00    -0.364 N 
HETATM    6  C   UNL     1      39.070 -11.711   4.867  1.00  0.00     0.109 A 
HETATM    7  C   UNL     1      40.026 -12.082   5.737  1.00  0.00     0.098 A 
HETATM    8  C   UNL     1      40.972 -13.141   5.286  1.00  0.00     0.201 A 
HETATM    9  O   UNL     1      41.907 -13.516   5.989  1.00  0.00    -0.286 OA
HETATM   10  C   UNL     1      39.553 -13.770   1.846  1.00  0.00     0.032 A 
HETATM   11  C   UNL     1      40.396 -14.782   1.378  1.00  0.00     0.027 A 
HETATM   12  H   UNL     1      38.076 -11.957   3.081  1.00  0.00     0.165 HD
ENDROOT
BRANCH   1  13
HETATM   13  S   UNL     1      42.447 -16.602   1.624  1.00  0.00     0.263 S 
HETATM   14  O   UNL     1      43.799 -16.315   2.060  1.00  0.00    -0.200 OA
HETATM   15  O   UNL     1      42.153 -16.838   0.229  1.00  0.00    -0.200 OA
BRANCH  13  16
HETATM   16  N   UNL     1      41.934 -17.908   2.571  1.00  0.00    -0.280 N 
HETATM   17  H   UNL     1      41.223 -17.605   3.233  1.00  0.00     0.179 HD
BRANCH  16  18
HETATM   18  C   UNL     1      42.929 -18.803   3.065  1.00  0.00     0.049 A 
HETATM   19  C   UNL     1      43.357 -18.758   4.403  1.00  0.00    -0.031 A 
HETATM   20  C   UNL     1      44.372 -19.639   4.812  1.00  0.00     0.009 A 
HETATM   21  C   UNL     1      44.954 -20.531   3.909  1.00  0.00     0.001 A 
HETATM   22  C   UNL     1      44.522 -20.563   2.587  1.00  0.00     0.002 A 
HETATM   23  C   UNL     1      43.511 -19.702   2.167  1.00  0.00     0.030 A 
BRANCH  19  24
HETATM   24  C   UNL     1      42.756 -17.824   5.427  1.00  0.00     0.036 C 
HETATM   25  C   UNL     1      43.741 -16.743   5.850  1.00  0.00     0.010 C 
ENDBRANCH  19  24
ENDBRANCH  16  18
ENDBRANCH  13  16
ENDBRANCH   1  13
BRANCH   7  26
HETATM   26  C   UNL     1      40.078 -11.401   7.061  1.00  0.00     0.257 C 
HETATM   27  N   UNL     1      41.331 -11.213   7.580  1.00  0.00    -0.355 N 
HETATM   28  H   UNL     1      42.125 -11.658   7.117  1.00  0.00     0.162 HD
HETATM   29  O   UNL     1      39.056 -11.032   7.637  1.00  0.00    -0.267 OA
BRANCH  27  30
HETATM   30  C   UNL     1      41.554 -10.616   8.884  1.00  0.00     0.149 C 
BRANCH  30  31
HETATM   31  C   UNL     1      42.997 -10.783   9.361  1.00  0.00     0.186 C 
BRANCH  31  32
HETATM   32  O   UNL     1      42.990 -11.195  10.733  1.00  0.00    -0.394 OA
HETATM   33  C   UNL     1      44.012 -12.148  10.997  1.00  0.00     0.201 C 
ENDBRANCH  31  32
ENDBRANCH  30  31
ENDBRANCH  27  30
ENDBRANCH   7  26
TORSDOF 8
ENDMDL
MODEL 9
REMARK VINA RESULT:      -7.4      4.120      7.019
REMARK  8 active torsions:
REMARK  status: ('A' for Active; 'I' for Inactive)
REMARK    1  A    between atoms: C_2  and  C_3 
REMARK    2  A    between atoms: C_4  and  N_5 
REMARK    3  A    between atoms: N_5  and  S_6 
REMARK    4  A    between atoms: S_6  and  C_7 
REMARK    5  A    between atoms: C_13  and  C_14 
REMARK       I    between atoms: C_14  and  N_15 
REMARK    6  A    between atoms: N_15  and  C_16 
REMARK    7  A    between atoms: C_16  and  C_17 
REMARK    8  A    between atoms: C_17  and  O_18 
ROOT
HETATM    1  C   UNL     1      41.582 -15.289   2.931  1.00  0.00     0.081 A 
HETATM    2  C   UNL     1      40.967 -14.831   4.098  1.00  0.00     0.043 A 
HETATM    3  C   UNL     1      41.033 -13.468   4.410  1.00  0.00     0.043 A 
HETATM    4  C   UNL     1      41.662 -12.557   3.542  1.00  0.00     0.046 A 
HETATM    5  N   UNL     1      41.728 -11.203   3.884  1.00  0.00    -0.364 N 
HETATM    6  C   UNL     1      41.123 -10.736   5.022  1.00  0.00     0.109 A 
HETATM    7  C   UNL     1      40.495 -11.493   5.938  1.00  0.00     0.098 A 
HETATM    8  C   UNL     1      40.438 -12.959   5.676  1.00  0.00     0.201 A 
HETATM    9  O   UNL     1      39.927 -13.740   6.474  1.00  0.00    -0.286 OA
HETATM   10  C   UNL     1      42.266 -13.035   2.375  1.00  0.00     0.032 A 
HETATM   11  C   UNL     1      42.224 -14.397   2.065  1.00  0.00     0.027 A 
HETATM   12  H   UNL     1      42.053 -10.530   3.197  1.00  0.00     0.165 HD
ENDROOT
BRANCH   1  13
HETATM   13  S   UNL     1      41.471 -17.010   2.500  1.00  0.00     0.263 S 
HETATM   14  O   UNL     1      40.853 -17.080   1.190  1.00  0.00    -0.200 OA
HETATM   15  O   UNL     1      40.913 -17.728   3.622  1.00  0.00    -0.200 OA
BRANCH  13  16
HETATM   16  N   UNL     1      43.090 -17.444   2.259  1.00  0.00    -0.280 N 
HETATM   17  H   UNL     1      43.242 -17.710   1.287  1.00  0.00     0.179 HD
BRANCH  16  18
HETATM   18  C   UNL     1      43.717 -18.255   3.251  1.00  0.00     0.049 A 
HETATM   19  C   UNL     1      43.940 -19.627   3.043  1.00  0.00    -0.031 A 
HETATM   20  C   UNL     1      44.523 -20.375   4.079  1.00  0.00     0.009 A 
HETATM   21  C   UNL     1      44.861 -19.776   5.294  1.00  0.00     0.001 A 
HETATM   22  C   UNL     1      44.631 -18.417   5.487  1.00  0.00     0.002 A 
HETATM   23  C   UNL     1      44.062 -17.658   4.466  1.00  0.00     0.030 A 
BRANCH  19  24
HETATM   24  C   UNL     1      43.607 -20.327   1.746  1.00  0.00     0.036 C 
HETATM   25  C   UNL     1      44.012 -21.794   1.778  1.00  0.00     0.010 C 
ENDBRANCH  19  24
ENDBRANCH  16  18
ENDBRANCH  13  16
ENDBRANCH   1  13
BRANCH   7  26
HETATM   26  C   UNL     1      39.927 -10.821   7.141  1.00  0.00     0.257 C 
HETATM   27  N   UNL     1      40.429 -11.240   8.344  1.00  0.00    -0.355 N 
HETATM   28  H   UNL     1      41.038 -12.058   8.362  1.00  0.00     0.162 HD
HETATM   29  O   UNL     1      39.070  -9.944   7.045  1.00  0.00    -0.267 OA
BRANCH  27  30
HETATM   30  C   UNL     1      39.945 -10.727   9.612  1.00  0.00     0.149 C 
BRANCH  30  31
HETATM   31  C   UNL     1      40.641  -9.427  10.018  1.00  0.00     0.186 C 
BRANCH  31  32
HETATM   32  O   UNL     1      40.420  -9.195  11.414  1.00  0.00    -0.394 OA
HETATM   33  C   UNL     1      39.182  -9.748  11.845  1.00  0.00     0.201 C 
ENDBRANCH  31  32
ENDBRANCH  30  31
ENDBRANCH  27  30
ENDBRANCH   7  26
TORSDOF 8
ENDMDL
MODEL 10
REMARK VINA RESULT:      -7.3      2.510      2.931
REMARK  8 active torsions:
REMARK  status: ('A' for Active; 'I' for Inactive)
REMARK    1  A    between atoms: C_2  and  C_3 
REMARK    2  A    between atoms: C_4  and  N_5 
REMARK    3  A    between atoms: N_5  and  S_6 
REMARK    4  A    between atoms: S_6  and  C_7 
REMARK    5  A    between atoms: C_13  and  C_14 
REMARK       I    between atoms: C_14  and  N_15 
REMARK    6  A    between atoms: N_15  and  C_16 
REMARK    7  A    between atoms: C_16  and  C_17 
REMARK    8  A    between atoms: C_17  and  O_18 
ROOT
HETATM    1  C   UNL     1      43.441 -15.948   6.094  1.00  0.00     0.081 A 
HETATM    2  C   UNL     1      42.553 -16.033   5.019  1.00  0.00     0.043 A 
HETATM    3  C   UNL     1      42.200 -14.864   4.336  1.00  0.00     0.043 A 
HETATM    4  C   UNL     1      42.765 -13.624   4.685  1.00  0.00     0.046 A 
HETATM    5  N   UNL     1      42.383 -12.467   3.998  1.00  0.00    -0.364 N 
HETATM    6  C   UNL     1      41.519 -12.535   2.936  1.00  0.00     0.109 A 
HETATM    7  C   UNL     1      40.904 -13.649   2.500  1.00  0.00     0.098 A 
HETATM    8  C   UNL     1      41.211 -14.914   3.225  1.00  0.00     0.201 A 
HETATM    9  O   UNL     1      40.667 -15.976   2.932  1.00  0.00    -0.286 OA
HETATM   10  C   UNL     1      43.656 -13.560   5.761  1.00  0.00     0.032 A 
HETATM   11  C   UNL     1      44.000 -14.719   6.462  1.00  0.00     0.027 A 
HETATM   12  H   UNL     1      42.892 -11.603   4.154  1.00  0.00     0.165 HD
ENDROOT
BRANCH   1  13
HETATM   13  S   UNL     1      43.932 -17.429   6.945  1.00  0.00     0.263 S 
HETATM   14  O   UNL     1      43.414 -17.334   8.295  1.00  0.00    -0.200 OA
HETATM   15  O   UNL     1      45.340 -17.648   6.706  1.00  0.00    -0.200 OA
BRANCH  13  16
HETATM   16  N   UNL     1      43.004 -18.626   6.188  1.00  0.00    -0.280 N 
HETATM   17  H   UNL     1      42.159 -18.809   6.727  1.00  0.00     0.179 HD
BRANCH  16  18
HETATM   18  C   UNL     1      43.686 -19.762   5.659  1.00  0.00     0.049 A 
HETATM   19  C   UNL     1      44.082 -19.818   4.312  1.00  0.00    -0.031 A 
HETATM   20  C   UNL     1      44.710 -20.985   3.846  1.00  0.00     0.009 A 
HETATM   21  C   UNL     1      44.923 -22.073   4.696  1.00  0.00     0.001 A 
HETATM   22  C   UNL     1      44.522 -22.005   6.026  1.00  0.00     0.002 A 
HETATM   23  C   UNL     1      43.906 -20.851   6.507  1.00  0.00     0.030 A 
BRANCH  19  24
HETATM   24  C   UNL     1      43.890 -18.669   3.350  1.00  0.00     0.036 C 
HETATM   25  C   UNL     1      43.631 -19.159   1.932  1.00  0.00     0.010 C 
ENDBRANCH  19  24
ENDBRANCH  16  18
ENDBRANCH  13  16
ENDBRANCH   1  13
BRANCH   7  26
HETATM   26  C   UNL     1      39.960 -13.532   1.353  1.00  0.00     0.257 C 
HETATM   27  N   UNL     1      38.641 -13.751   1.649  1.00  0.00    -0.355 N 
HETATM   28  H   UNL     1      38.399 -14.108   2.573  1.00  0.00     0.162 HD
HETATM   29  O   UNL     1      40.352 -13.251   0.222  1.00  0.00    -0.267 OA
BRANCH  27  30
HETATM   30  C   UNL     1      37.601 -13.729   0.637  1.00  0.00     0.149 C 
BRANCH  30  31
HETATM   31  C   UNL     1      36.865 -12.390   0.587  1.00  0.00     0.186 C 
BRANCH  31  32
HETATM   32  O   UNL     1      37.542 -11.520  -0.327  1.00  0.00    -0.394 OA
HETATM   33  C   UNL     1      36.957 -10.224  -0.345  1.00  0.00     0.201 C 
ENDBRANCH  31  32
ENDBRANCH  30  31
ENDBRANCH  27  30
ENDBRANCH   7  26
TORSDOF 8
ENDMDL
