MODEL 1
REMARK VINA RESULT:      -8.8      0.000      0.000
REMARK  6 active torsions:
REMARK  status: ('A' for Active; 'I' for Inactive)
REMARK       I    between atoms: C_2  and  N_3 
REMARK    1  A    between atoms: N_3  and  C_4 
REMARK    2  A    between atoms: C_7  and  N_8 
REMARK       I    between atoms: N_8  and  C_9 
REMARK    3  A    between atoms: C_9  and  C_10 
REMARK    4  A    between atoms: C_10  and  S_11 
REMARK    5  A    between atoms: S_11  and  C_12 
REMARK    6  A    between atoms: C_15  and  C_16 
ROOT
HETATM    1  N   UNL     1      44.042 -12.925   8.574  1.00  0.00    -0.327 N 
HETATM    2  C   UNL     1      45.185 -13.138   7.824  1.00  0.00     0.231 C 
HETATM    3  O   UNL     1      46.293 -12.651   8.035  1.00  0.00    -0.272 OA
HETATM    4  H   UNL     1      43.248 -13.527   8.344  1.00  0.00     0.169 HD
ENDROOT
BRANCH   2   5
HETATM    5  C   UNL     1      44.952 -14.055   6.632  1.00  0.00     0.185 C 
BRANCH   5   6
HETATM    6  S   UNL     1      43.958 -15.501   7.094  1.00  0.00    -0.083 SA
BRANCH   6   7
HETATM    7  C   UNL     1      43.751 -16.275   5.570  1.00  0.00     0.167 A 
HETATM    8  N   UNL     1      43.266 -15.756   4.469  1.00  0.00    -0.235 NA
HETATM    9  C   UNL     1      43.294 -16.792   3.564  1.00  0.00     0.149 A 
HETATM   10  C   UNL     1      43.776 -17.963   4.130  1.00  0.00     0.062 A 
HETATM   11  N   UNL     1      44.078 -17.587   5.421  1.00  0.00    -0.333 N 
HETATM   12  H   UNL     1      44.473 -18.166   6.147  1.00  0.00     0.168 HD
BRANCH  10  13
HETATM   13  C   UNL     1      43.964 -19.308   3.584  1.00  0.00    -0.008 A 
HETATM   14  C   UNL     1      43.468 -19.634   2.312  1.00  0.00     0.014 A 
HETATM   15  C   UNL     1      43.628 -20.917   1.784  1.00  0.00     0.001 A 
HETATM   16  C   UNL     1      44.288 -21.897   2.518  1.00  0.00     0.000 A 
HETATM   17  C   UNL     1      44.788 -21.594   3.782  1.00  0.00     0.001 A 
HETATM   18  C   UNL     1      44.625 -20.309   4.312  1.00  0.00     0.014 A 
ENDBRANCH  10  13
ENDBRANCH   6   7
ENDBRANCH   5   6
ENDBRANCH   2   5
BRANCH   1  19
HETATM   19  C   UNL     1      43.873 -12.072   9.680  1.00  0.00     0.034 A 
HETATM   20  C   UNL     1      43.390 -10.769   9.598  1.00  0.00     0.032 A 
HETATM   21  C   UNL     1      43.216  -9.996  10.758  1.00  0.00     0.032 A 
HETATM   22  C   UNL     1      43.526 -10.516  12.014  1.00  0.00     0.034 A 
HETATM   23  C   UNL     1      44.025 -11.821  12.093  1.00  0.00     0.032 A 
HETATM   24  C   UNL     1      44.194 -12.592  10.938  1.00  0.00     0.032 A 
BRANCH  22  25
HETATM   25  N   UNL     1      43.357  -9.818  13.227  1.00  0.00    -0.328 N 
HETATM   26  C   UNL     1      42.321  -9.945  14.135  1.00  0.00     0.218 C 
HETATM   27  C   UNL     1      42.497  -9.060  15.345  1.00  0.00     0.117 C 
HETATM   28  O   UNL     1      41.330 -10.658  14.028  1.00  0.00    -0.274 OA
HETATM   29  H   UNL     1      44.086  -9.157  13.458  1.00  0.00     0.169 HD
ENDBRANCH  22  25
ENDBRANCH   1  19
TORSDOF 6
ENDMDL
MODEL 2
REMARK VINA RESULT:      -8.6      5.508      9.361
REMARK  6 active torsions:
REMARK  status: ('A' for Active; 'I' for Inactive)
REMARK       I    between atoms: C_2  and  N_3 
REMARK    1  A    between atoms: N_3  and  C_4 
REMARK    2  A    between atoms: C_7  and  N_8 
REMARK       I    between atoms: N_8  and  C_9 
REMARK    3  A    between atoms: C_9  and  C_10 
REMARK    4  A    between atoms: C_10  and  S_11 
REMARK    5  A    between atoms: S_11  and  C_12 
REMARK    6  A    between atoms: C_15  and  C_16 
ROOT
HETATM    1  N   UNL     1      43.136 -14.587   2.811  1.00  0.00    -0.327 N 
HETATM    2  C   UNL     1      42.768 -14.306   4.114  1.00  0.00     0.231 C 
HETATM    3  O   UNL     1      41.621 -14.163   4.529  1.00  0.00    -0.272 OA
HETATM    4  H   UNL     1      44.123 -14.821   2.675  1.00  0.00     0.169 HD
ENDROOT
BRANCH   2   5
HETATM    5  C   UNL     1      43.959 -14.153   5.050  1.00  0.00     0.185 C 
BRANCH   5   6
HETATM    6  S   UNL     1      43.674 -15.003   6.627  1.00  0.00    -0.083 SA
BRANCH   6   7
HETATM    7  C   UNL     1      44.185 -16.603   6.250  1.00  0.00     0.167 A 
HETATM    8  N   UNL     1      45.016 -17.358   6.928  1.00  0.00    -0.235 NA
HETATM    9  C   UNL     1      45.098 -18.517   6.191  1.00  0.00     0.149 A 
HETATM   10  C   UNL     1      44.329 -18.456   5.038  1.00  0.00     0.062 A 
HETATM   11  N   UNL     1      43.739 -17.214   5.119  1.00  0.00    -0.333 N 
HETATM   12  H   UNL     1      43.089 -16.805   4.465  1.00  0.00     0.168 HD
BRANCH  10  13
HETATM   13  C   UNL     1      44.121 -19.413   3.950  1.00  0.00    -0.008 A 
HETATM   14  C   UNL     1      44.730 -20.676   3.990  1.00  0.00     0.014 A 
HETATM   15  C   UNL     1      44.551 -21.595   2.952  1.00  0.00     0.001 A 
HETATM   16  C   UNL     1      43.758 -21.265   1.857  1.00  0.00     0.000 A 
HETATM   17  C   UNL     1      43.145 -20.017   1.799  1.00  0.00     0.001 A 
HETATM   18  C   UNL     1      43.327 -19.096   2.837  1.00  0.00     0.014 A 
ENDBRANCH  10  13
ENDBRANCH   6   7
ENDBRANCH   5   6
ENDBRANCH   2   5
BRANCH   1  19
HETATM   19  C   UNL     1      42.311 -14.703   1.679  1.00  0.00     0.034 A 
HETATM   20  C   UNL     1      41.686 -13.629   1.050  1.00  0.00     0.032 A 
HETATM   21  C   UNL     1      40.905 -13.829  -0.101  1.00  0.00     0.032 A 
HETATM   22  C   UNL     1      40.739 -15.105  -0.636  1.00  0.00     0.034 A 
HETATM   23  C   UNL     1      41.356 -16.185   0.005  1.00  0.00     0.032 A 
HETATM   24  C   UNL     1      42.136 -15.985   1.149  1.00  0.00     0.032 A 
BRANCH  22  25
HETATM   25  N   UNL     1      39.995 -15.388  -1.800  1.00  0.00    -0.328 N 
HETATM   26  C   UNL     1      40.466 -15.493  -3.096  1.00  0.00     0.218 C 
HETATM   27  C   UNL     1      39.380 -15.848  -4.082  1.00  0.00     0.117 C 
HETATM   28  O   UNL     1      41.616 -15.314  -3.480  1.00  0.00    -0.274 OA
HETATM   29  H   UNL     1      39.004 -15.539  -1.662  1.00  0.00     0.169 HD
ENDBRANCH  22  25
ENDBRANCH   1  19
TORSDOF 6
ENDMDL
MODEL 3
REMARK VINA RESULT:      -8.3      5.370      8.800
REMARK  6 active torsions:
REMARK  status: ('A' for Active; 'I' for Inactive)
REMARK       I    between atoms: C_2  and  N_3 
REMARK    1  A    between atoms: N_3  and  C_4 
REMARK    2  A    between atoms: C_7  and  N_8 
REMARK       I    between atoms: N_8  and  C_9 
REMARK    3  A    between atoms: C_9  and  C_10 
REMARK    4  A    between atoms: C_10  and  S_11 
REMARK    5  A    between atoms: S_11  and  C_12 
REMARK    6  A    between atoms: C_15  and  C_16 
ROOT
HETATM    1  N   UNL     1      42.237 -14.601   3.859  1.00  0.00    -0.327 N 
HETATM    2  C   UNL     1      43.498 -14.154   4.209  1.00  0.00     0.231 C 
HETATM    3  O   UNL     1      44.343 -13.694   3.446  1.00  0.00    -0.272 OA
HETATM    4  H   UNL     1      41.613 -14.810   4.643  1.00  0.00     0.169 HD
ENDROOT
BRANCH   2   5
HETATM    5  C   UNL     1      43.792 -14.303   5.696  1.00  0.00     0.185 C 
BRANCH   5   6
HETATM    6  S   UNL     1      42.791 -15.622   6.438  1.00  0.00    -0.083 SA
BRANCH   6   7
HETATM    7  C   UNL     1      43.743 -17.013   6.088  1.00  0.00     0.167 A 
HETATM    8  N   UNL     1      44.860 -17.383   6.666  1.00  0.00    -0.235 NA
HETATM    9  C   UNL     1      45.219 -18.534   6.004  1.00  0.00     0.149 A 
HETATM   10  C   UNL     1      44.324 -18.854   4.994  1.00  0.00     0.062 A 
HETATM   11  N   UNL     1      43.374 -17.859   5.089  1.00  0.00    -0.333 N 
HETATM   12  H   UNL     1      42.543 -17.756   4.527  1.00  0.00     0.168 HD
BRANCH  10  13
HETATM   13  C   UNL     1      44.296 -19.947   4.021  1.00  0.00    -0.008 A 
HETATM   14  C   UNL     1      43.869 -19.714   2.704  1.00  0.00     0.014 A 
HETATM   15  C   UNL     1      43.824 -20.750   1.768  1.00  0.00     0.001 A 
HETATM   16  C   UNL     1      44.206 -22.037   2.133  1.00  0.00     0.000 A 
HETATM   17  C   UNL     1      44.632 -22.289   3.434  1.00  0.00     0.001 A 
HETATM   18  C   UNL     1      44.675 -21.251   4.372  1.00  0.00     0.014 A 
ENDBRANCH  10  13
ENDBRANCH   6   7
ENDBRANCH   5   6
ENDBRANCH   2   5
BRANCH   1  19
HETATM   19  C   UNL     1      41.671 -14.693   2.575  1.00  0.00     0.034 A 
HETATM   20  C   UNL     1      42.082 -15.599   1.600  1.00  0.00     0.032 A 
HETATM   21  C   UNL     1      41.438 -15.650   0.353  1.00  0.00     0.032 A 
HETATM   22  C   UNL     1      40.375 -14.795   0.064  1.00  0.00     0.034 A 
HETATM   23  C   UNL     1      39.973 -13.875   1.039  1.00  0.00     0.032 A 
HETATM   24  C   UNL     1      40.613 -13.827   2.283  1.00  0.00     0.032 A 
BRANCH  22  25
HETATM   25  N   UNL     1      39.659 -14.799  -1.150  1.00  0.00    -0.328 N 
HETATM   26  C   UNL     1      39.966 -14.113  -2.311  1.00  0.00     0.218 C 
HETATM   27  C   UNL     1      38.989 -14.392  -3.426  1.00  0.00     0.117 C 
HETATM   28  O   UNL     1      40.897 -13.335  -2.484  1.00  0.00    -0.274 OA
HETATM   29  H   UNL     1      38.832 -15.380  -1.169  1.00  0.00     0.169 HD
ENDBRANCH  22  25
ENDBRANCH   1  19
TORSDOF 6
ENDMDL
MODEL 4
REMARK VINA RESULT:      -8.3      6.070      8.949
REMARK  6 active torsions:
REMARK  status: ('A' for Active; 'I' for Inactive)
REMARK       I    between atoms: C_2  and  N_3 
REMARK    1  A    between atoms: N_3  and  C_4 
REMARK    2  A    between atoms: C_7  and  N_8 
REMARK       I    between atoms: N_8  and  C_9 
REMARK    3  A    between atoms: C_9  and  C_10 
REMARK    4  A    between atoms: C_10  and  S_11 
REMARK    5  A    between atoms: S_11  and  C_12 
REMARK    6  A    between atoms: C_15  and  C_16 
ROOT
HETATM    1  N   UNL     1      40.788 -16.608   3.991  1.00  0.00    -0.327 N 
HETATM    2  C   UNL     1      41.239 -16.082   5.188  1.00  0.00     0.231 C 
HETATM    3  O   UNL     1      41.784 -14.992   5.342  1.00  0.00    -0.272 OA
HETATM    4  H   UNL     1      40.225 -17.459   4.070  1.00  0.00     0.169 HD
ENDROOT
BRANCH   2   5
HETATM    5  C   UNL     1      41.021 -17.017   6.369  1.00  0.00     0.185 C 
BRANCH   5   6
HETATM    6  S   UNL     1      42.452 -17.020   7.484  1.00  0.00    -0.083 SA
BRANCH   6   7
HETATM    7  C   UNL     1      43.608 -17.894   6.555  1.00  0.00     0.167 A 
HETATM    8  N   UNL     1      44.915 -17.823   6.633  1.00  0.00    -0.235 NA
HETATM    9  C   UNL     1      45.360 -18.696   5.667  1.00  0.00     0.149 A 
HETATM   10  C   UNL     1      44.312 -19.283   4.975  1.00  0.00     0.062 A 
HETATM   11  N   UNL     1      43.196 -18.756   5.587  1.00  0.00    -0.333 N 
HETATM   12  H   UNL     1      42.231 -18.958   5.372  1.00  0.00     0.168 HD
BRANCH  10  13
HETATM   13  C   UNL     1      44.285 -20.238   3.865  1.00  0.00    -0.008 A 
HETATM   14  C   UNL     1      43.832 -19.840   2.598  1.00  0.00     0.014 A 
HETATM   15  C   UNL     1      43.788 -20.743   1.532  1.00  0.00     0.001 A 
HETATM   16  C   UNL     1      44.198 -22.060   1.716  1.00  0.00     0.000 A 
HETATM   17  C   UNL     1      44.650 -22.474   2.966  1.00  0.00     0.001 A 
HETATM   18  C   UNL     1      44.692 -21.570   4.033  1.00  0.00     0.014 A 
ENDBRANCH  10  13
ENDBRANCH   6   7
ENDBRANCH   5   6
ENDBRANCH   2   5
BRANCH   1  19
HETATM   19  C   UNL     1      40.906 -16.062   2.700  1.00  0.00     0.034 A 
HETATM   20  C   UNL     1      40.053 -15.094   2.177  1.00  0.00     0.032 A 
HETATM   21  C   UNL     1      40.264 -14.574   0.889  1.00  0.00     0.032 A 
HETATM   22  C   UNL     1      41.330 -15.018   0.108  1.00  0.00     0.034 A 
HETATM   23  C   UNL     1      42.178 -16.001   0.629  1.00  0.00     0.032 A 
HETATM   24  C   UNL     1      41.969 -16.515   1.913  1.00  0.00     0.032 A 
BRANCH  22  25
HETATM   25  N   UNL     1      41.627 -14.530  -1.182  1.00  0.00    -0.328 N 
HETATM   26  C   UNL     1      40.829 -14.591  -2.310  1.00  0.00     0.218 C 
HETATM   27  C   UNL     1      41.463 -13.926  -3.506  1.00  0.00     0.117 C 
HETATM   28  O   UNL     1      39.730 -15.125  -2.407  1.00  0.00    -0.274 OA
HETATM   29  H   UNL     1      42.525 -14.076  -1.283  1.00  0.00     0.169 HD
ENDBRANCH  22  25
ENDBRANCH   1  19
TORSDOF 6
ENDMDL
MODEL 5
REMARK VINA RESULT:      -8.2      5.048      8.861
REMARK  6 active torsions:
REMARK  status: ('A' for Active; 'I' for Inactive)
REMARK       I    between atoms: C_2  and  N_3 
REMARK    1  A    between atoms: N_3  and  C_4 
REMARK    2  A    between atoms: C_7  and  N_8 
REMARK       I    between atoms: N_8  and  C_9 
REMARK    3  A    between atoms: C_9  and  C_10 
REMARK    4  A    between atoms: C_10  and  S_11 
REMARK    5  A    between atoms: S_11  and  C_12 
REMARK    6  A    between atoms: C_15  and  C_16 
ROOT
HETATM    1  N   UNL     1      41.734 -13.846   3.978  1.00  0.00    -0.327 N 
HETATM    2  C   UNL     1      43.016 -13.553   4.406  1.00  0.00     0.231 C 
HETATM    3  O   UNL     1      44.016 -13.472   3.698  1.00  0.00    -0.272 OA
HETATM    4  H   UNL     1      40.999 -13.724   4.680  1.00  0.00     0.169 HD
ENDROOT
BRANCH   2   5
HETATM    5  C   UNL     1      43.110 -13.351   5.911  1.00  0.00     0.185 C 
BRANCH   5   6
HETATM    6  S   UNL     1      43.967 -14.734   6.713  1.00  0.00    -0.083 SA
BRANCH   6   7
HETATM    7  C   UNL     1      43.215 -16.086   5.958  1.00  0.00     0.167 A 
HETATM    8  N   UNL     1      41.955 -16.441   6.025  1.00  0.00    -0.235 NA
HETATM    9  C   UNL     1      41.886 -17.591   5.273  1.00  0.00     0.149 A 
HETATM   10  C   UNL     1      43.124 -17.955   4.766  1.00  0.00     0.062 A 
HETATM   11  N   UNL     1      43.955 -16.951   5.213  1.00  0.00    -0.333 N 
HETATM   12  H   UNL     1      44.943 -16.854   5.033  1.00  0.00     0.168 HD
BRANCH  10  13
HETATM   13  C   UNL     1      43.550 -19.092   3.947  1.00  0.00    -0.008 A 
HETATM   14  C   UNL     1      44.430 -20.052   4.469  1.00  0.00     0.014 A 
HETATM   15  C   UNL     1      44.857 -21.135   3.696  1.00  0.00     0.001 A 
HETATM   16  C   UNL     1      44.408 -21.276   2.387  1.00  0.00     0.000 A 
HETATM   17  C   UNL     1      43.534 -20.334   1.850  1.00  0.00     0.001 A 
HETATM   18  C   UNL     1      43.110 -19.249   2.624  1.00  0.00     0.014 A 
ENDBRANCH  10  13
ENDBRANCH   6   7
ENDBRANCH   5   6
ENDBRANCH   2   5
BRANCH   1  19
HETATM   19  C   UNL     1      41.303 -14.176   2.681  1.00  0.00     0.034 A 
HETATM   20  C   UNL     1      41.411 -15.445   2.117  1.00  0.00     0.032 A 
HETATM   21  C   UNL     1      40.921 -15.698   0.825  1.00  0.00     0.032 A 
HETATM   22  C   UNL     1      40.317 -14.686   0.080  1.00  0.00     0.034 A 
HETATM   23  C   UNL     1      40.222 -13.408   0.643  1.00  0.00     0.032 A 
HETATM   24  C   UNL     1      40.707 -13.157   1.930  1.00  0.00     0.032 A 
BRANCH  22  25
HETATM   25  N   UNL     1      39.777 -14.863  -1.210  1.00  0.00    -0.328 N 
HETATM   26  C   UNL     1      40.431 -14.732  -2.422  1.00  0.00     0.218 C 
HETATM   27  C   UNL     1      39.538 -15.039  -3.599  1.00  0.00     0.117 C 
HETATM   28  O   UNL     1      41.595 -14.392  -2.599  1.00  0.00    -0.274 OA
HETATM   29  H   UNL     1      38.801 -15.124  -1.244  1.00  0.00     0.169 HD
ENDBRANCH  22  25
ENDBRANCH   1  19
TORSDOF 6
ENDMDL
MODEL 6
REMARK VINA RESULT:      -7.9      3.522     11.049
REMARK  6 active torsions:
REMARK  status: ('A' for Active; 'I' for Inactive)
REMARK       I    between atoms: C_2  and  N_3 
REMARK    1  A    between atoms: N_3  and  C_4 
REMARK    2  A    between atoms: C_7  and  N_8 
REMARK       I    between atoms: N_8  and  C_9 
REMARK    3  A    between atoms: C_9  and  C_10 
REMARK    4  A    between atoms: C_10  and  S_11 
REMARK    5  A    between atoms: S_11  and  C_12 
REMARK    6  A    between atoms: C_15  and  C_16 
ROOT
HETATM    1  N   UNL     1      42.322 -14.740   4.888  1.00  0.00    -0.327 N 
HETATM    2  C   UNL     1      41.106 -14.199   5.266  1.00  0.00     0.231 C 
HETATM    3  O   UNL     1      40.020 -14.773   5.249  1.00  0.00    -0.272 OA
HETATM    4  H   UNL     1      43.142 -14.170   5.109  1.00  0.00     0.169 HD
ENDROOT
BRANCH   2   5
HETATM    5  C   UNL     1      41.212 -12.747   5.709  1.00  0.00     0.185 C 
BRANCH   5   6
HETATM    6  S   UNL     1      39.573 -11.995   5.909  1.00  0.00    -0.083 SA
BRANCH   6   7
HETATM    7  C   UNL     1      39.756 -11.166   7.407  1.00  0.00     0.167 A 
HETATM    8  N   UNL     1      38.906 -10.347   7.977  1.00  0.00    -0.235 NA
HETATM    9  C   UNL     1      39.542  -9.947   9.129  1.00  0.00     0.149 A 
HETATM   10  C   UNL     1      40.805 -10.508   9.248  1.00  0.00     0.062 A 
HETATM   11  N   UNL     1      40.902 -11.304   8.128  1.00  0.00    -0.333 N 
HETATM   12  H   UNL     1      41.678 -11.894   7.866  1.00  0.00     0.168 HD
BRANCH  10  13
HETATM   13  C   UNL     1      41.847 -10.365  10.266  1.00  0.00    -0.008 A 
HETATM   14  C   UNL     1      43.156 -10.802  10.008  1.00  0.00     0.014 A 
HETATM   15  C   UNL     1      44.158 -10.685  10.974  1.00  0.00     0.001 A 
HETATM   16  C   UNL     1      43.869 -10.127  12.216  1.00  0.00     0.000 A 
HETATM   17  C   UNL     1      42.577  -9.688  12.491  1.00  0.00     0.001 A 
HETATM   18  C   UNL     1      41.573  -9.808  11.524  1.00  0.00     0.014 A 
ENDBRANCH  10  13
ENDBRANCH   6   7
ENDBRANCH   5   6
ENDBRANCH   2   5
BRANCH   1  19
HETATM   19  C   UNL     1      42.578 -16.012   4.347  1.00  0.00     0.034 A 
HETATM   20  C   UNL     1      42.247 -17.211   4.974  1.00  0.00     0.032 A 
HETATM   21  C   UNL     1      42.506 -18.441   4.347  1.00  0.00     0.032 A 
HETATM   22  C   UNL     1      43.101 -18.488   3.087  1.00  0.00     0.034 A 
HETATM   23  C   UNL     1      43.446 -17.283   2.465  1.00  0.00     0.032 A 
HETATM   24  C   UNL     1      43.184 -16.058   3.088  1.00  0.00     0.032 A 
BRANCH  22  25
HETATM   25  N   UNL     1      43.370 -19.677   2.379  1.00  0.00    -0.328 N 
HETATM   26  C   UNL     1      44.285 -20.663   2.704  1.00  0.00     0.218 C 
HETATM   27  C   UNL     1      44.268 -21.815   1.730  1.00  0.00     0.117 C 
HETATM   28  O   UNL     1      45.065 -20.661   3.649  1.00  0.00    -0.274 OA
HETATM   29  H   UNL     1      42.821 -19.824   1.542  1.00  0.00     0.169 HD
ENDBRANCH  22  25
ENDBRANCH   1  19
TORSDOF 6
ENDMDL
MODEL 7
REMARK VINA RESULT:      -7.9      3.431     10.459
REMARK  6 active torsions:
REMARK  status: ('A' for Active; 'I' for Inactive)
REMARK       I    between atoms: C_2  and  N_3 
REMARK    1  A    between atoms: N_3  and  C_4 
REMARK    2  A    between atoms: C_7  and  N_8 
REMARK       I    between atoms: N_8  and  C_9 
REMARK    3  A    between atoms: C_9  and  C_10 
REMARK    4  A    between atoms: C_10  and  S_11 
REMARK    5  A    between atoms: S_11  and  C_12 
REMARK    6  A    between atoms: C_15  and  C_16 
ROOT
HETATM    1  N   UNL     1      41.496 -14.150   6.095  1.00  0.00    -0.327 N 
HETATM    2  C   UNL     1      41.808 -12.963   5.456  1.00  0.00     0.231 C 
HETATM    3  O   UNL     1      42.545 -12.836   4.482  1.00  0.00    -0.272 OA
HETATM    4  H   UNL     1      40.750 -14.088   6.792  1.00  0.00     0.169 HD
ENDROOT
BRANCH   2   5
HETATM    5  C   UNL     1      41.153 -11.749   6.100  1.00  0.00     0.185 C 
BRANCH   5   6
HETATM    6  S   UNL     1      39.558 -12.179   6.851  1.00  0.00    -0.083 SA
BRANCH   6   7
HETATM    7  C   UNL     1      39.588 -11.230   8.286  1.00  0.00     0.167 A 
HETATM    8  N   UNL     1      38.734 -10.304   8.651  1.00  0.00    -0.235 NA
HETATM    9  C   UNL     1      39.226  -9.844   9.851  1.00  0.00     0.149 A 
HETATM   10  C   UNL     1      40.407 -10.477  10.206  1.00  0.00     0.062 A 
HETATM   11  N   UNL     1      40.602 -11.378   9.182  1.00  0.00    -0.333 N 
HETATM   12  H   UNL     1      41.356 -12.042   9.090  1.00  0.00     0.168 HD
BRANCH  10  13
HETATM   13  C   UNL     1      41.298 -10.312  11.357  1.00  0.00    -0.008 A 
HETATM   14  C   UNL     1      42.660 -10.032  11.164  1.00  0.00     0.014 A 
HETATM   15  C   UNL     1      43.525  -9.886  12.252  1.00  0.00     0.001 A 
HETATM   16  C   UNL     1      43.043 -10.016  13.550  1.00  0.00     0.000 A 
HETATM   17  C   UNL     1      41.695 -10.294  13.761  1.00  0.00     0.001 A 
HETATM   18  C   UNL     1      40.830 -10.443  12.672  1.00  0.00     0.014 A 
ENDBRANCH  10  13
ENDBRANCH   6   7
ENDBRANCH   5   6
ENDBRANCH   2   5
BRANCH   1  19
HETATM   19  C   UNL     1      41.989 -15.439   5.827  1.00  0.00     0.034 A 
HETATM   20  C   UNL     1      41.278 -16.425   5.146  1.00  0.00     0.032 A 
HETATM   21  C   UNL     1      41.860 -17.677   4.888  1.00  0.00     0.032 A 
HETATM   22  C   UNL     1      43.159 -17.959   5.308  1.00  0.00     0.034 A 
HETATM   23  C   UNL     1      43.866 -16.973   6.004  1.00  0.00     0.032 A 
HETATM   24  C   UNL     1      43.288 -15.725   6.258  1.00  0.00     0.032 A 
BRANCH  22  25
HETATM   25  N   UNL     1      43.825 -19.179   5.066  1.00  0.00    -0.328 N 
HETATM   26  C   UNL     1      44.025 -20.219   5.955  1.00  0.00     0.218 C 
HETATM   27  C   UNL     1      44.747 -21.387   5.329  1.00  0.00     0.117 C 
HETATM   28  O   UNL     1      43.699 -20.254   7.136  1.00  0.00    -0.274 OA
HETATM   29  H   UNL     1      44.186 -19.303   4.130  1.00  0.00     0.169 HD
ENDBRANCH  22  25
ENDBRANCH   1  19
TORSDOF 6
ENDMDL
MODEL 8
REMARK VINA RESULT:      -7.8      3.729     10.998
REMARK  6 active torsions:
REMARK  status: ('A' for Active; 'I' for Inactive)
REMARK       I    between atoms: C_2  and  N_3 
REMARK    1  A    between atoms: N_3  and  C_4 
REMARK    2  A    between atoms: C_7  and  N_8 
REMARK       I    between atoms: N_8  and  C_9 
REMARK    3  A    between atoms: C_9  and  C_10 
REMARK    4  A    between atoms: C_10  and  S_11 
REMARK    5  A    between atoms: S_11  and  C_12 
REMARK    6  A    between atoms: C_15  and  C_16 
ROOT
HETATM    1  N   UNL     1      40.663 -14.891   6.290  1.00  0.00    -0.327 N 
HETATM    2  C   UNL     1      39.945 -13.947   5.578  1.00  0.00     0.231 C 
HETATM    3  O   UNL     1      39.870 -13.863   4.355  1.00  0.00    -0.272 OA
HETATM    4  H   UNL     1      40.491 -14.903   7.299  1.00  0.00     0.169 HD
ENDROOT
BRANCH   2   5
HETATM    5  C   UNL     1      39.230 -12.943   6.472  1.00  0.00     0.185 C 
BRANCH   5   6
HETATM    6  S   UNL     1      40.120 -11.363   6.534  1.00  0.00    -0.083 SA
BRANCH   6   7
HETATM    7  C   UNL     1      39.900 -10.911   8.181  1.00  0.00     0.167 A 
HETATM    8  N   UNL     1      38.798 -10.493   8.755  1.00  0.00    -0.235 NA
HETATM    9  C   UNL     1      39.166 -10.246  10.057  1.00  0.00     0.149 A 
HETATM   10  C   UNL     1      40.515 -10.490  10.271  1.00  0.00     0.062 A 
HETATM   11  N   UNL     1      40.952 -10.935   9.042  1.00  0.00    -0.333 N 
HETATM   12  H   UNL     1      41.886 -11.231   8.800  1.00  0.00     0.168 HD
BRANCH  10  13
HETATM   13  C   UNL     1      41.358 -10.350  11.459  1.00  0.00    -0.008 A 
HETATM   14  C   UNL     1      40.798 -10.449  12.742  1.00  0.00     0.014 A 
HETATM   15  C   UNL     1      41.587 -10.305  13.886  1.00  0.00     0.001 A 
HETATM   16  C   UNL     1      42.951 -10.059  13.766  1.00  0.00     0.000 A 
HETATM   17  C   UNL     1      43.526  -9.956  12.502  1.00  0.00     0.001 A 
HETATM   18  C   UNL     1      42.734 -10.099  11.357  1.00  0.00     0.014 A 
ENDBRANCH  10  13
ENDBRANCH   6   7
ENDBRANCH   5   6
ENDBRANCH   2   5
BRANCH   1  19
HETATM   19  C   UNL     1      41.503 -15.903   5.793  1.00  0.00     0.034 A 
HETATM   20  C   UNL     1      42.894 -15.835   5.788  1.00  0.00     0.032 A 
HETATM   21  C   UNL     1      43.661 -16.908   5.305  1.00  0.00     0.032 A 
HETATM   22  C   UNL     1      43.047 -18.062   4.820  1.00  0.00     0.034 A 
HETATM   23  C   UNL     1      41.649 -18.122   4.813  1.00  0.00     0.032 A 
HETATM   24  C   UNL     1      40.886 -17.055   5.297  1.00  0.00     0.032 A 
BRANCH  22  25
HETATM   25  N   UNL     1      43.743 -19.191   4.343  1.00  0.00    -0.328 N 
HETATM   26  C   UNL     1      43.866 -19.613   3.031  1.00  0.00     0.218 C 
HETATM   27  C   UNL     1      44.722 -20.848   2.896  1.00  0.00     0.117 C 
HETATM   28  O   UNL     1      43.351 -19.104   2.042  1.00  0.00    -0.274 OA
HETATM   29  H   UNL     1      44.211 -19.748   5.046  1.00  0.00     0.169 HD
ENDBRANCH  22  25
ENDBRANCH   1  19
TORSDOF 6
ENDMDL
MODEL 9
REMARK VINA RESULT:      -7.8      6.242     10.211
REMARK  6 active torsions:
REMARK  status: ('A' for Active; 'I' for Inactive)
REMARK       I    between atoms: C_2  and  N_3 
REMARK    1  A    between atoms: N_3  and  C_4 
REMARK    2  A    between atoms: C_7  and  N_8 
REMARK       I    between atoms: N_8  and  C_9 
REMARK    3  A    between atoms: C_9  and  C_10 
REMARK    4  A    between atoms: C_10  and  S_11 
REMARK    5  A    between atoms: S_11  and  C_12 
REMARK    6  A    between atoms: C_15  and  C_16 
ROOT
HETATM    1  N   UNL     1      41.370 -14.211   1.374  1.00  0.00    -0.327 N 
HETATM    2  C   UNL     1      41.856 -13.206   2.191  1.00  0.00     0.231 C 
HETATM    3  O   UNL     1      41.445 -12.049   2.241  1.00  0.00    -0.272 OA
HETATM    4  H   UNL     1      41.729 -15.148   1.572  1.00  0.00     0.169 HD
ENDROOT
BRANCH   2   5
HETATM    5  C   UNL     1      43.022 -13.655   3.060  1.00  0.00     0.185 C 
BRANCH   5   6
HETATM    6  S   UNL     1      42.508 -13.898   4.783  1.00  0.00    -0.083 SA
BRANCH   6   7
HETATM    7  C   UNL     1      42.289 -15.605   4.837  1.00  0.00     0.167 A 
HETATM    8  N   UNL     1      41.445 -16.279   5.580  1.00  0.00    -0.235 NA
HETATM    9  C   UNL     1      41.691 -17.595   5.263  1.00  0.00     0.149 A 
HETATM   10  C   UNL     1      42.714 -17.724   4.336  1.00  0.00     0.062 A 
HETATM   11  N   UNL     1      43.064 -16.418   4.070  1.00  0.00    -0.333 N 
HETATM   12  H   UNL     1      43.770 -16.097   3.425  1.00  0.00     0.168 HD
BRANCH  10  13
HETATM   13  C   UNL     1      43.338 -18.899   3.723  1.00  0.00    -0.008 A 
HETATM   14  C   UNL     1      44.283 -19.653   4.436  1.00  0.00     0.014 A 
HETATM   15  C   UNL     1      44.897 -20.768   3.860  1.00  0.00     0.001 A 
HETATM   16  C   UNL     1      44.574 -21.149   2.562  1.00  0.00     0.000 A 
HETATM   17  C   UNL     1      43.638 -20.414   1.838  1.00  0.00     0.001 A 
HETATM   18  C   UNL     1      43.026 -19.296   2.415  1.00  0.00     0.014 A 
ENDBRANCH  10  13
ENDBRANCH   6   7
ENDBRANCH   5   6
ENDBRANCH   2   5
BRANCH   1  19
HETATM   19  C   UNL     1      40.369 -14.126   0.391  1.00  0.00     0.034 A 
HETATM   20  C   UNL     1      39.003 -14.085   0.664  1.00  0.00     0.032 A 
HETATM   21  C   UNL     1      38.069 -13.962  -0.377  1.00  0.00     0.032 A 
HETATM   22  C   UNL     1      38.487 -13.881  -1.705  1.00  0.00     0.034 A 
HETATM   23  C   UNL     1      39.858 -13.937  -1.979  1.00  0.00     0.032 A 
HETATM   24  C   UNL     1      40.789 -14.055  -0.941  1.00  0.00     0.032 A 
BRANCH  22  25
HETATM   25  N   UNL     1      37.617 -13.731  -2.805  1.00  0.00    -0.328 N 
HETATM   26  C   UNL     1      37.249 -14.696  -3.725  1.00  0.00     0.218 C 
HETATM   27  C   UNL     1      36.264 -14.179  -4.745  1.00  0.00     0.117 C 
HETATM   28  O   UNL     1      37.649 -15.853  -3.781  1.00  0.00    -0.274 OA
HETATM   29  H   UNL     1      37.213 -12.811  -2.922  1.00  0.00     0.169 HD
ENDBRANCH  22  25
ENDBRANCH   1  19
TORSDOF 6
ENDMDL
MODEL 10
REMARK VINA RESULT:      -7.7      8.066     12.114
REMARK  6 active torsions:
REMARK  status: ('A' for Active; 'I' for Inactive)
REMARK       I    between atoms: C_2  and  N_3 
REMARK    1  A    between atoms: N_3  and  C_4 
REMARK    2  A    between atoms: C_7  and  N_8 
REMARK       I    between atoms: N_8  and  C_9 
REMARK    3  A    between atoms: C_9  and  C_10 
REMARK    4  A    between atoms: C_10  and  S_11 
REMARK    5  A    between atoms: S_11  and  C_12 
REMARK    6  A    between atoms: C_15  and  C_16 
ROOT
HETATM    1  N   UNL     1      38.915 -14.183  -0.603  1.00  0.00    -0.327 N 
HETATM    2  C   UNL     1      38.410 -14.374   0.671  1.00  0.00     0.231 C 
HETATM    3  O   UNL     1      37.236 -14.260   1.010  1.00  0.00    -0.272 OA
HETATM    4  H   UNL     1      39.889 -14.468  -0.735  1.00  0.00     0.169 HD
ENDROOT
BRANCH   2   5
HETATM    5  C   UNL     1      39.483 -14.734   1.689  1.00  0.00     0.185 C 
BRANCH   5   6
HETATM    6  S   UNL     1      41.054 -15.144   0.879  1.00  0.00    -0.083 SA
BRANCH   6   7
HETATM    7  C   UNL     1      41.795 -16.154   2.059  1.00  0.00     0.167 A 
HETATM    8  N   UNL     1      42.040 -15.869   3.315  1.00  0.00    -0.235 NA
HETATM    9  C   UNL     1      42.659 -16.997   3.803  1.00  0.00     0.149 A 
HETATM   10  C   UNL     1      42.816 -17.969   2.826  1.00  0.00     0.062 A 
HETATM   11  N   UNL     1      42.230 -17.397   1.718  1.00  0.00    -0.333 N 
HETATM   12  H   UNL     1      42.130 -17.809   0.802  1.00  0.00     0.168 HD
BRANCH  10  13
HETATM   13  C   UNL     1      43.427 -19.299   2.858  1.00  0.00    -0.008 A 
HETATM   14  C   UNL     1      43.150 -20.231   1.846  1.00  0.00     0.014 A 
HETATM   15  C   UNL     1      43.715 -21.509   1.870  1.00  0.00     0.001 A 
HETATM   16  C   UNL     1      44.567 -21.876   2.907  1.00  0.00     0.000 A 
HETATM   17  C   UNL     1      44.854 -20.965   3.920  1.00  0.00     0.001 A 
HETATM   18  C   UNL     1      44.286 -19.687   3.897  1.00  0.00     0.014 A 
ENDBRANCH  10  13
ENDBRANCH   6   7
ENDBRANCH   5   6
ENDBRANCH   2   5
BRANCH   1  19
HETATM   19  C   UNL     1      38.231 -13.761  -1.756  1.00  0.00     0.034 A 
HETATM   20  C   UNL     1      37.879 -12.439  -2.019  1.00  0.00     0.032 A 
HETATM   21  C   UNL     1      37.228 -12.096  -3.215  1.00  0.00     0.032 A 
HETATM   22  C   UNL     1      36.918 -13.070  -4.163  1.00  0.00     0.034 A 
HETATM   23  C   UNL     1      37.259 -14.400  -3.891  1.00  0.00     0.032 A 
HETATM   24  C   UNL     1      37.911 -14.740  -2.701  1.00  0.00     0.032 A 
BRANCH  22  25
HETATM   25  N   UNL     1      36.290 -12.807  -5.398  1.00  0.00    -0.328 N 
HETATM   26  C   UNL     1      35.327 -13.571  -6.033  1.00  0.00     0.218 C 
HETATM   27  C   UNL     1      34.856 -12.952  -7.326  1.00  0.00     0.117 C 
HETATM   28  O   UNL     1      34.874 -14.646  -5.659  1.00  0.00    -0.274 OA
HETATM   29  H   UNL     1      36.575 -11.955  -5.862  1.00  0.00     0.169 HD
ENDBRANCH  22  25
ENDBRANCH   1  19
TORSDOF 6
ENDMDL
