MODEL 1
REMARK VINA RESULT:      -8.2      0.000      0.000
REMARK  4 active torsions:
REMARK  status: ('A' for Active; 'I' for Inactive)
REMARK       I    between atoms: C_2  and  N_3 
REMARK    1  A    between atoms: N_3  and  C_4 
REMARK    2  A    between atoms: C_10  and  C_11 
REMARK    3  A    between atoms: C_14  and  C_15 
REMARK    4  A    between atoms: C_22  and  N_23 
REMARK       I    between atoms: N_23  and  C_24 
ROOT
HETATM    1  C   UNL     1      41.836 -11.321   6.675  1.00  0.00     0.010 A 
HETATM    2  C   UNL     1      41.208 -10.405   5.819  1.00  0.00     0.016 A 
HETATM    3  C   UNL     1      40.838 -10.766   4.519  1.00  0.00     0.017 A 
HETATM    4  C   UNL     1      41.093 -12.054   4.034  1.00  0.00     0.017 A 
HETATM    5  C   UNL     1      41.735 -12.967   4.884  1.00  0.00     0.017 A 
HETATM    6  C   UNL     1      42.102 -12.607   6.189  1.00  0.00     0.016 A 
ENDROOT
BRANCH   1   7
HETATM    7  C   UNL     1      42.187 -10.893   8.032  1.00  0.00     0.139 A 
HETATM    8  N   UNL     1      43.279 -11.345   8.740  1.00  0.00    -0.338 N 
HETATM    9  C   UNL     1      43.275 -10.765   9.982  1.00  0.00     0.063 A 
HETATM   10  H   UNL     1      43.953 -12.017   8.409  1.00  0.00     0.167 HD
HETATM   11  C   UNL     1      42.148  -9.955   9.976  1.00  0.00     0.088 A 
HETATM   12  C   UNL     1      44.126 -10.878  11.080  1.00  0.00     0.034 A 
HETATM   13  C   UNL     1      41.832  -9.198  11.116  1.00  0.00     0.063 A 
HETATM   14  N   UNL     1      41.493 -10.049   8.775  1.00  0.00    -0.228 NA
HETATM   15  C   UNL     1      42.662  -9.281  12.240  1.00  0.00     0.037 A 
HETATM   16  C   UNL     1      43.792 -10.116  12.208  1.00  0.00     0.032 A 
BRANCH  15  17
HETATM   17  N   UNL     1      42.435  -8.563  13.436  1.00  0.00    -0.327 N 
HETATM   18  C   UNL     1      41.827  -9.021  14.591  1.00  0.00     0.218 C 
HETATM   19  C   UNL     1      41.757  -7.969  15.670  1.00  0.00     0.117 C 
HETATM   20  O   UNL     1      41.392 -10.148  14.798  1.00  0.00    -0.274 OA
HETATM   21  H   UNL     1      42.762  -7.606  13.442  1.00  0.00     0.169 HD
ENDBRANCH  15  17
ENDBRANCH   1   7
BRANCH   4  22
HETATM   22  C   UNL     1      40.713 -12.459   2.682  1.00  0.00     0.180 A 
HETATM   23  O   UNL     1      40.752 -11.481   1.718  1.00  0.00    -0.289 OA
HETATM   24  C   UNL     1      40.348 -12.117   0.585  1.00  0.00     0.107 A 
HETATM   25  C   UNL     1      40.085 -13.435   0.907  1.00  0.00     0.095 A 
HETATM   26  C   UNL     1      40.210 -11.574  -0.682  1.00  0.00     0.042 A 
HETATM   27  N   UNL     1      40.317 -13.644   2.245  1.00  0.00    -0.221 NA
HETATM   28  C   UNL     1      39.650 -14.307  -0.101  1.00  0.00     0.064 A 
HETATM   29  C   UNL     1      39.493 -13.807  -1.409  1.00  0.00     0.037 A 
HETATM   30  C   UNL     1      39.771 -12.459  -1.681  1.00  0.00     0.032 A 
BRANCH  29  31
HETATM   31  N   UNL     1      39.054 -14.726  -2.388  1.00  0.00    -0.327 N 
HETATM   32  C   UNL     1      39.772 -15.226  -3.459  1.00  0.00     0.218 C 
HETATM   33  C   UNL     1      38.977 -16.196  -4.301  1.00  0.00     0.117 C 
HETATM   34  O   UNL     1      40.925 -14.946  -3.765  1.00  0.00    -0.274 OA
HETATM   35  H   UNL     1      38.099 -15.048  -2.290  1.00  0.00     0.169 HD
ENDBRANCH  29  31
ENDBRANCH   4  22
TORSDOF 4
ENDMDL
MODEL 2
REMARK VINA RESULT:      -8.2      1.443     12.783
REMARK  4 active torsions:
REMARK  status: ('A' for Active; 'I' for Inactive)
REMARK       I    between atoms: C_2  and  N_3 
REMARK    1  A    between atoms: N_3  and  C_4 
REMARK    2  A    between atoms: C_10  and  C_11 
REMARK    3  A    between atoms: C_14  and  C_15 
REMARK    4  A    between atoms: C_22  and  N_23 
REMARK       I    between atoms: N_23  and  C_24 
ROOT
HETATM    1  C   UNL     1      41.556 -12.039   4.297  1.00  0.00     0.010 A 
HETATM    2  C   UNL     1      41.008 -10.811   4.693  1.00  0.00     0.016 A 
HETATM    3  C   UNL     1      41.171 -10.333   5.997  1.00  0.00     0.017 A 
HETATM    4  C   UNL     1      41.883 -11.074   6.947  1.00  0.00     0.017 A 
HETATM    5  C   UNL     1      42.420 -12.310   6.557  1.00  0.00     0.017 A 
HETATM    6  C   UNL     1      42.260 -12.789   5.248  1.00  0.00     0.016 A 
ENDROOT
BRANCH   1   7
HETATM    7  C   UNL     1      41.367 -12.484   2.913  1.00  0.00     0.139 A 
HETATM    8  N   UNL     1      42.120 -12.058   1.841  1.00  0.00    -0.338 N 
HETATM    9  C   UNL     1      41.642 -12.648   0.699  1.00  0.00     0.063 A 
HETATM   10  H   UNL     1      42.877 -11.394   1.885  1.00  0.00     0.167 HD
HETATM   11  C   UNL     1      40.591 -13.439   1.139  1.00  0.00     0.088 A 
HETATM   12  C   UNL     1      42.021 -12.559  -0.639  1.00  0.00     0.034 A 
HETATM   13  C   UNL     1      39.860 -14.201   0.212  1.00  0.00     0.063 A 
HETATM   14  N   UNL     1      40.435 -13.323   2.497  1.00  0.00    -0.228 NA
HETATM   15  C   UNL     1      40.209 -14.141  -1.142  1.00  0.00     0.037 A 
HETATM   16  C   UNL     1      41.278 -13.325  -1.548  1.00  0.00     0.032 A 
BRANCH  15  17
HETATM   17  N   UNL     1      39.541 -14.866  -2.155  1.00  0.00    -0.327 N 
HETATM   18  C   UNL     1      40.100 -15.468  -3.267  1.00  0.00     0.218 C 
HETATM   19  C   UNL     1      39.075 -16.157  -4.135  1.00  0.00     0.117 C 
HETATM   20  O   UNL     1      41.287 -15.504  -3.569  1.00  0.00    -0.274 OA
HETATM   21  H   UNL     1      38.539 -14.955  -2.044  1.00  0.00     0.169 HD
ENDBRANCH  15  17
ENDBRANCH   1   7
BRANCH   4  22
HETATM   22  C   UNL     1      42.074 -10.595   8.315  1.00  0.00     0.180 A 
HETATM   23  O   UNL     1      43.254 -10.946   8.926  1.00  0.00    -0.289 OA
HETATM   24  C   UNL     1      43.162 -10.390  10.165  1.00  0.00     0.107 A 
HETATM   25  C   UNL     1      41.948  -9.734  10.249  1.00  0.00     0.095 A 
HETATM   26  C   UNL     1      44.097 -10.450  11.186  1.00  0.00     0.042 A 
HETATM   27  N   UNL     1      41.260  -9.873   9.068  1.00  0.00    -0.221 NA
HETATM   28  C   UNL     1      41.615  -9.073  11.439  1.00  0.00     0.064 A 
HETATM   29  C   UNL     1      42.529  -9.101  12.511  1.00  0.00     0.037 A 
HETATM   30  C   UNL     1      43.748  -9.784  12.372  1.00  0.00     0.032 A 
BRANCH  29  31
HETATM   31  N   UNL     1      42.146  -8.418  13.686  1.00  0.00    -0.327 N 
HETATM   32  C   UNL     1      41.946  -8.953  14.946  1.00  0.00     0.218 C 
HETATM   33  C   UNL     1      41.543  -7.917  15.968  1.00  0.00     0.117 C 
HETATM   34  O   UNL     1      42.051 -10.130  15.270  1.00  0.00    -0.274 OA
HETATM   35  H   UNL     1      41.997  -7.422  13.586  1.00  0.00     0.169 HD
ENDBRANCH  29  31
ENDBRANCH   4  22
TORSDOF 4
ENDMDL
MODEL 3
REMARK VINA RESULT:      -7.6      6.014     13.715
REMARK  4 active torsions:
REMARK  status: ('A' for Active; 'I' for Inactive)
REMARK       I    between atoms: C_2  and  N_3 
REMARK    1  A    between atoms: N_3  and  C_4 
REMARK    2  A    between atoms: C_10  and  C_11 
REMARK    3  A    between atoms: C_14  and  C_15 
REMARK    4  A    between atoms: C_22  and  N_23 
REMARK       I    between atoms: N_23  and  C_24 
ROOT
HETATM    1  C   UNL     1      38.550 -14.028  -1.083  1.00  0.00     0.010 A 
HETATM    2  C   UNL     1      39.909 -14.367  -1.162  1.00  0.00     0.016 A 
HETATM    3  C   UNL     1      40.636 -14.712  -0.019  1.00  0.00     0.017 A 
HETATM    4  C   UNL     1      40.026 -14.720   1.242  1.00  0.00     0.017 A 
HETATM    5  C   UNL     1      38.670 -14.368   1.324  1.00  0.00     0.017 A 
HETATM    6  C   UNL     1      37.939 -14.026   0.177  1.00  0.00     0.016 A 
ENDROOT
BRANCH   1   7
HETATM    7  C   UNL     1      37.833 -13.690  -2.317  1.00  0.00     0.139 A 
HETATM    8  N   UNL     1      37.686 -12.415  -2.815  1.00  0.00    -0.338 N 
HETATM    9  C   UNL     1      36.929 -12.468  -3.957  1.00  0.00     0.063 A 
HETATM   10  H   UNL     1      38.048 -11.576  -2.391  1.00  0.00     0.167 HD
HETATM   11  C   UNL     1      36.644 -13.817  -4.113  1.00  0.00     0.088 A 
HETATM   12  C   UNL     1      36.477 -11.486  -4.837  1.00  0.00     0.034 A 
HETATM   13  C   UNL     1      35.870 -14.240  -5.207  1.00  0.00     0.063 A 
HETATM   14  N   UNL     1      37.203 -14.550  -3.098  1.00  0.00    -0.228 NA
HETATM   15  C   UNL     1      35.396 -13.286  -6.115  1.00  0.00     0.037 A 
HETATM   16  C   UNL     1      35.704 -11.929  -5.919  1.00  0.00     0.032 A 
BRANCH  15  17
HETATM   17  N   UNL     1      34.611 -13.604  -7.246  1.00  0.00    -0.327 N 
HETATM   18  C   UNL     1      34.965 -14.398  -8.321  1.00  0.00     0.218 C 
HETATM   19  C   UNL     1      33.866 -14.514  -9.349  1.00  0.00     0.117 C 
HETATM   20  O   UNL     1      36.024 -14.993  -8.481  1.00  0.00    -0.274 OA
HETATM   21  H   UNL     1      33.680 -13.206  -7.261  1.00  0.00     0.169 HD
ENDBRANCH  15  17
ENDBRANCH   1   7
BRANCH   4  22
HETATM   22  C   UNL     1      40.761 -15.082   2.452  1.00  0.00     0.180 A 
HETATM   23  O   UNL     1      41.692 -14.174   2.895  1.00  0.00    -0.289 OA
HETATM   24  C   UNL     1      42.222 -14.758   4.004  1.00  0.00     0.107 A 
HETATM   25  C   UNL     1      41.596 -15.978   4.183  1.00  0.00     0.095 A 
HETATM   26  C   UNL     1      43.213 -14.253   4.830  1.00  0.00     0.042 A 
HETATM   27  N   UNL     1      40.669 -16.177   3.189  1.00  0.00    -0.221 NA
HETATM   28  C   UNL     1      41.969 -16.779   5.272  1.00  0.00     0.064 A 
HETATM   29  C   UNL     1      42.972 -16.314   6.145  1.00  0.00     0.037 A 
HETATM   30  C   UNL     1      43.577 -15.068   5.915  1.00  0.00     0.032 A 
BRANCH  29  31
HETATM   31  N   UNL     1      43.310 -17.158   7.226  1.00  0.00    -0.327 N 
HETATM   32  C   UNL     1      44.258 -18.165   7.247  1.00  0.00     0.218 C 
HETATM   33  C   UNL     1      44.349 -18.861   8.583  1.00  0.00     0.117 C 
HETATM   34  O   UNL     1      44.974 -18.520   6.317  1.00  0.00    -0.274 OA
HETATM   35  H   UNL     1      42.788 -17.006   8.080  1.00  0.00     0.169 HD
ENDBRANCH  29  31
ENDBRANCH   4  22
TORSDOF 4
ENDMDL
MODEL 4
REMARK VINA RESULT:      -7.6      1.948      2.503
REMARK  4 active torsions:
REMARK  status: ('A' for Active; 'I' for Inactive)
REMARK       I    between atoms: C_2  and  N_3 
REMARK    1  A    between atoms: N_3  and  C_4 
REMARK    2  A    between atoms: C_10  and  C_11 
REMARK    3  A    between atoms: C_14  and  C_15 
REMARK    4  A    between atoms: C_22  and  N_23 
REMARK       I    between atoms: N_23  and  C_24 
ROOT
HETATM    1  C   UNL     1      39.774 -11.212   7.445  1.00  0.00     0.010 A 
HETATM    2  C   UNL     1      40.403 -10.450   6.450  1.00  0.00     0.016 A 
HETATM    3  C   UNL     1      40.547 -10.939   5.147  1.00  0.00     0.017 A 
HETATM    4  C   UNL     1      40.071 -12.210   4.803  1.00  0.00     0.017 A 
HETATM    5  C   UNL     1      39.455 -12.979   5.801  1.00  0.00     0.017 A 
HETATM    6  C   UNL     1      39.306 -12.488   7.107  1.00  0.00     0.016 A 
ENDROOT
BRANCH   1   7
HETATM    7  C   UNL     1      39.636 -10.643   8.789  1.00  0.00     0.139 A 
HETATM    8  N   UNL     1      38.462 -10.159   9.320  1.00  0.00    -0.338 N 
HETATM    9  C   UNL     1      38.710  -9.671  10.577  1.00  0.00     0.063 A 
HETATM   10  H   UNL     1      37.571 -10.137   8.849  1.00  0.00     0.167 HD
HETATM   11  C   UNL     1      40.067  -9.891  10.766  1.00  0.00     0.088 A 
HETATM   12  C   UNL     1      37.895  -9.069  11.534  1.00  0.00     0.034 A 
HETATM   13  C   UNL     1      40.671  -9.504  11.974  1.00  0.00     0.063 A 
HETATM   14  N   UNL     1      40.618 -10.484   9.659  1.00  0.00    -0.228 NA
HETATM   15  C   UNL     1      39.888  -8.897  12.962  1.00  0.00     0.037 A 
HETATM   16  C   UNL     1      38.518  -8.688  12.731  1.00  0.00     0.032 A 
BRANCH  15  17
HETATM   17  N   UNL     1      40.395  -8.470  14.210  1.00  0.00    -0.327 N 
HETATM   18  C   UNL     1      41.283  -9.141  15.032  1.00  0.00     0.218 C 
HETATM   19  C   UNL     1      41.602  -8.376  16.294  1.00  0.00     0.117 C 
HETATM   20  O   UNL     1      41.813 -10.224  14.817  1.00  0.00    -0.274 OA
HETATM   21  H   UNL     1      40.072  -7.567  14.530  1.00  0.00     0.169 HD
ENDBRANCH  15  17
ENDBRANCH   1   7
BRANCH   4  22
HETATM   22  C   UNL     1      40.204 -12.743   3.449  1.00  0.00     0.180 A 
HETATM   23  O   UNL     1      41.262 -12.273   2.709  1.00  0.00    -0.289 OA
HETATM   24  C   UNL     1      41.139 -12.913   1.513  1.00  0.00     0.107 A 
HETATM   25  C   UNL     1      40.028 -13.732   1.581  1.00  0.00     0.095 A 
HETATM   26  C   UNL     1      41.960 -12.789   0.404  1.00  0.00     0.042 A 
HETATM   27  N   UNL     1      39.437 -13.615   2.815  1.00  0.00    -0.221 NA
HETATM   28  C   UNL     1      39.686 -14.505   0.462  1.00  0.00     0.064 A 
HETATM   29  C   UNL     1      40.487 -14.419  -0.693  1.00  0.00     0.037 A 
HETATM   30  C   UNL     1      41.604 -13.569  -0.708  1.00  0.00     0.032 A 
BRANCH  29  31
HETATM   31  N   UNL     1      40.100 -15.219  -1.791  1.00  0.00    -0.327 N 
HETATM   32  C   UNL     1      39.497 -14.808  -2.966  1.00  0.00     0.218 C 
HETATM   33  C   UNL     1      39.229 -15.946  -3.921  1.00  0.00     0.117 C 
HETATM   34  O   UNL     1      39.172 -13.664  -3.263  1.00  0.00    -0.274 OA
HETATM   35  H   UNL     1      40.284 -16.211  -1.697  1.00  0.00     0.169 HD
ENDBRANCH  29  31
ENDBRANCH   4  22
TORSDOF 4
ENDMDL
MODEL 5
REMARK VINA RESULT:      -7.4      7.017     13.250
REMARK  4 active torsions:
REMARK  status: ('A' for Active; 'I' for Inactive)
REMARK       I    between atoms: C_2  and  N_3 
REMARK    1  A    between atoms: N_3  and  C_4 
REMARK    2  A    between atoms: C_10  and  C_11 
REMARK    3  A    between atoms: C_14  and  C_15 
REMARK    4  A    between atoms: C_22  and  N_23 
REMARK       I    between atoms: N_23  and  C_24 
ROOT
HETATM    1  C   UNL     1      38.394 -13.626  -0.780  1.00  0.00     0.010 A 
HETATM    2  C   UNL     1      39.709 -14.033  -1.045  1.00  0.00     0.016 A 
HETATM    3  C   UNL     1      40.442 -14.769  -0.108  1.00  0.00     0.017 A 
HETATM    4  C   UNL     1      39.882 -15.112   1.128  1.00  0.00     0.017 A 
HETATM    5  C   UNL     1      38.571 -14.693   1.401  1.00  0.00     0.017 A 
HETATM    6  C   UNL     1      37.834 -13.959   0.460  1.00  0.00     0.016 A 
ENDROOT
BRANCH   1   7
HETATM    7  C   UNL     1      37.667 -12.871  -1.805  1.00  0.00     0.139 A 
HETATM    8  N   UNL     1      37.020 -11.675  -1.588  1.00  0.00    -0.338 N 
HETATM    9  C   UNL     1      36.418 -11.277  -2.754  1.00  0.00     0.063 A 
HETATM   10  H   UNL     1      36.970 -11.189  -0.707  1.00  0.00     0.167 HD
HETATM   11  C   UNL     1      36.740 -12.277  -3.661  1.00  0.00     0.088 A 
HETATM   12  C   UNL     1      35.640 -10.170  -3.085  1.00  0.00     0.034 A 
HETATM   13  C   UNL     1      36.277 -12.188  -4.985  1.00  0.00     0.063 A 
HETATM   14  N   UNL     1      37.503 -13.246  -3.062  1.00  0.00    -0.228 NA
HETATM   15  C   UNL     1      35.492 -11.091  -5.359  1.00  0.00     0.037 A 
HETATM   16  C   UNL     1      35.185 -10.101  -4.409  1.00  0.00     0.032 A 
BRANCH  15  17
HETATM   17  N   UNL     1      34.976 -10.905  -6.661  1.00  0.00    -0.327 N 
HETATM   18  C   UNL     1      34.171 -11.771  -7.379  1.00  0.00     0.218 C 
HETATM   19  C   UNL     1      33.812 -11.237  -8.745  1.00  0.00     0.117 C 
HETATM   20  O   UNL     1      33.736 -12.854  -7.006  1.00  0.00    -0.274 OA
HETATM   21  H   UNL     1      35.223 -10.033  -7.112  1.00  0.00     0.169 HD
ENDBRANCH  15  17
ENDBRANCH   1   7
BRANCH   4  22
HETATM   22  C   UNL     1      40.623 -15.884   2.123  1.00  0.00     0.180 A 
HETATM   23  O   UNL     1      41.454 -16.866   1.639  1.00  0.00    -0.289 OA
HETATM   24  C   UNL     1      41.997 -17.421   2.757  1.00  0.00     0.107 A 
HETATM   25  C   UNL     1      41.480 -16.758   3.855  1.00  0.00     0.095 A 
HETATM   26  C   UNL     1      42.906 -18.464   2.823  1.00  0.00     0.042 A 
HETATM   27  N   UNL     1      40.604 -15.784   3.443  1.00  0.00    -0.221 NA
HETATM   28  C   UNL     1      41.890 -17.148   5.138  1.00  0.00     0.064 A 
HETATM   29  C   UNL     1      42.814 -18.204   5.264  1.00  0.00     0.037 A 
HETATM   30  C   UNL     1      43.306 -18.844   4.115  1.00  0.00     0.032 A 
BRANCH  29  31
HETATM   31  N   UNL     1      43.196 -18.556   6.577  1.00  0.00    -0.327 N 
HETATM   32  C   UNL     1      44.436 -18.394   7.168  1.00  0.00     0.218 C 
HETATM   33  C   UNL     1      44.478 -18.886   8.595  1.00  0.00     0.117 C 
HETATM   34  O   UNL     1      45.442 -17.925   6.648  1.00  0.00    -0.274 OA
HETATM   35  H   UNL     1      42.474 -18.982   7.145  1.00  0.00     0.169 HD
ENDBRANCH  29  31
ENDBRANCH   4  22
TORSDOF 4
ENDMDL
MODEL 6
REMARK VINA RESULT:      -7.4      5.913      7.773
REMARK  4 active torsions:
REMARK  status: ('A' for Active; 'I' for Inactive)
REMARK       I    between atoms: C_2  and  N_3 
REMARK    1  A    between atoms: N_3  and  C_4 
REMARK    2  A    between atoms: C_10  and  C_11 
REMARK    3  A    between atoms: C_14  and  C_15 
REMARK    4  A    between atoms: C_22  and  N_23 
REMARK       I    between atoms: N_23  and  C_24 
ROOT
HETATM    1  C   UNL     1      40.106 -14.520   1.053  1.00  0.00     0.010 A 
HETATM    2  C   UNL     1      38.738 -14.231   1.144  1.00  0.00     0.016 A 
HETATM    3  C   UNL     1      37.971 -13.995  -0.002  1.00  0.00     0.017 A 
HETATM    4  C   UNL     1      38.555 -14.033  -1.274  1.00  0.00     0.017 A 
HETATM    5  C   UNL     1      39.928 -14.308  -1.365  1.00  0.00     0.017 A 
HETATM    6  C   UNL     1      40.696 -14.549  -0.217  1.00  0.00     0.016 A 
ENDROOT
BRANCH   1   7
HETATM    7  C   UNL     1      40.858 -14.775   2.286  1.00  0.00     0.139 A 
HETATM    8  N   UNL     1      41.813 -13.933   2.812  1.00  0.00    -0.338 N 
HETATM    9  C   UNL     1      42.334 -14.505   3.944  1.00  0.00     0.063 A 
HETATM   10  H   UNL     1      42.104 -13.056   2.411  1.00  0.00     0.167 HD
HETATM   11  C   UNL     1      41.648 -15.704   4.067  1.00  0.00     0.088 A 
HETATM   12  C   UNL     1      43.318 -14.094   4.841  1.00  0.00     0.034 A 
HETATM   13  C   UNL     1      41.937 -16.562   5.142  1.00  0.00     0.063 A 
HETATM   14  N   UNL     1      40.751 -15.855   3.041  1.00  0.00    -0.228 NA
HETATM   15  C   UNL     1      42.919 -16.187   6.066  1.00  0.00     0.037 A 
HETATM   16  C   UNL     1      43.593 -14.965   5.905  1.00  0.00     0.032 A 
BRANCH  15  17
HETATM   17  N   UNL     1      43.285 -16.974   7.181  1.00  0.00    -0.327 N 
HETATM   18  C   UNL     1      44.153 -18.051   7.202  1.00  0.00     0.218 C 
HETATM   19  C   UNL     1      44.304 -18.652   8.579  1.00  0.00     0.117 C 
HETATM   20  O   UNL     1      44.784 -18.509   6.257  1.00  0.00    -0.274 OA
HETATM   21  H   UNL     1      42.866 -16.711   8.063  1.00  0.00     0.169 HD
ENDBRANCH  15  17
ENDBRANCH   1   7
BRANCH   4  22
HETATM   22  C   UNL     1      37.776 -13.796  -2.488  1.00  0.00     0.180 A 
HETATM   23  O   UNL     1      37.632 -12.485  -2.874  1.00  0.00    -0.289 OA
HETATM   24  C   UNL     1      36.871 -12.553  -4.000  1.00  0.00     0.107 A 
HETATM   25  C   UNL     1      36.592 -13.885  -4.245  1.00  0.00     0.095 A 
HETATM   26  C   UNL     1      36.433 -11.500  -4.787  1.00  0.00     0.042 A 
HETATM   27  N   UNL     1      37.170 -14.669  -3.276  1.00  0.00    -0.221 NA
HETATM   28  C   UNL     1      35.815 -14.222  -5.363  1.00  0.00     0.064 A 
HETATM   29  C   UNL     1      35.344 -13.189  -6.198  1.00  0.00     0.037 A 
HETATM   30  C   UNL     1      35.655 -11.853  -5.901  1.00  0.00     0.032 A 
BRANCH  29  31
HETATM   31  N   UNL     1      34.568 -13.582  -7.311  1.00  0.00    -0.327 N 
HETATM   32  C   UNL     1      35.013 -14.140  -8.496  1.00  0.00     0.218 C 
HETATM   33  C   UNL     1      33.894 -14.435  -9.465  1.00  0.00     0.117 C 
HETATM   34  O   UNL     1      36.174 -14.383  -8.803  1.00  0.00    -0.274 OA
HETATM   35  H   UNL     1      33.571 -13.428  -7.226  1.00  0.00     0.169 HD
ENDBRANCH  29  31
ENDBRANCH   4  22
TORSDOF 4
ENDMDL
MODEL 7
REMARK VINA RESULT:      -7.4      7.677     12.469
REMARK  4 active torsions:
REMARK  status: ('A' for Active; 'I' for Inactive)
REMARK       I    between atoms: C_2  and  N_3 
REMARK    1  A    between atoms: N_3  and  C_4 
REMARK    2  A    between atoms: C_10  and  C_11 
REMARK    3  A    between atoms: C_14  and  C_15 
REMARK    4  A    between atoms: C_22  and  N_23 
REMARK       I    between atoms: N_23  and  C_24 
ROOT
HETATM    1  C   UNL     1      38.673 -13.712  -0.231  1.00  0.00     0.010 A 
HETATM    2  C   UNL     1      38.299 -14.204   1.027  1.00  0.00     0.016 A 
HETATM    3  C   UNL     1      39.128 -15.080   1.737  1.00  0.00     0.017 A 
HETATM    4  C   UNL     1      40.354 -15.496   1.203  1.00  0.00     0.017 A 
HETATM    5  C   UNL     1      40.722 -15.016  -0.063  1.00  0.00     0.017 A 
HETATM    6  C   UNL     1      39.893 -14.134  -0.773  1.00  0.00     0.016 A 
ENDROOT
BRANCH   1   7
HETATM    7  C   UNL     1      37.772 -12.785  -0.923  1.00  0.00     0.139 A 
HETATM    8  N   UNL     1      36.899 -11.924  -0.296  1.00  0.00    -0.338 N 
HETATM    9  C   UNL     1      36.190 -11.238  -1.249  1.00  0.00     0.063 A 
HETATM   10  H   UNL     1      36.778 -11.837   0.700  1.00  0.00     0.167 HD
HETATM   11  C   UNL     1      36.682 -11.721  -2.453  1.00  0.00     0.088 A 
HETATM   12  C   UNL     1      35.189 -10.272  -1.167  1.00  0.00     0.034 A 
HETATM   13  C   UNL     1      36.168 -11.224  -3.662  1.00  0.00     0.063 A 
HETATM   14  N   UNL     1      37.648 -12.670  -2.234  1.00  0.00    -0.228 NA
HETATM   15  C   UNL     1      35.162 -10.252  -3.625  1.00  0.00     0.037 A 
HETATM   16  C   UNL     1      34.687  -9.791  -2.385  1.00  0.00     0.032 A 
BRANCH  15  17
HETATM   17  N   UNL     1      34.576  -9.687  -4.780  1.00  0.00    -0.327 N 
HETATM   18  C   UNL     1      33.637 -10.263  -5.616  1.00  0.00     0.218 C 
HETATM   19  C   UNL     1      33.239  -9.360  -6.758  1.00  0.00     0.117 C 
HETATM   20  O   UNL     1      33.119 -11.367  -5.494  1.00  0.00    -0.274 OA
HETATM   21  H   UNL     1      34.880  -8.750  -5.014  1.00  0.00     0.169 HD
ENDBRANCH  15  17
ENDBRANCH   1   7
BRANCH   4  22
HETATM   22  C   UNL     1      41.241 -16.405   1.925  1.00  0.00     0.180 A 
HETATM   23  O   UNL     1      41.826 -15.910   3.065  1.00  0.00    -0.289 OA
HETATM   24  C   UNL     1      42.592 -16.940   3.518  1.00  0.00     0.107 A 
HETATM   25  C   UNL     1      42.438 -18.001   2.645  1.00  0.00     0.095 A 
HETATM   26  C   UNL     1      43.395 -16.959   4.647  1.00  0.00     0.042 A 
HETATM   27  N   UNL     1      41.579 -17.650   1.632  1.00  0.00    -0.221 NA
HETATM   28  C   UNL     1      43.132 -19.193   2.897  1.00  0.00     0.064 A 
HETATM   29  C   UNL     1      43.963 -19.268   4.032  1.00  0.00     0.037 A 
HETATM   30  C   UNL     1      44.084 -18.159   4.884  1.00  0.00     0.032 A 
BRANCH  29  31
HETATM   31  N   UNL     1      44.637 -20.492   4.241  1.00  0.00    -0.327 N 
HETATM   32  C   UNL     1      44.559 -21.320   5.345  1.00  0.00     0.218 C 
HETATM   33  C   UNL     1      45.422 -22.553   5.219  1.00  0.00     0.117 C 
HETATM   34  O   UNL     1      43.896 -21.134   6.359  1.00  0.00    -0.274 OA
HETATM   35  H   UNL     1      45.253 -20.787   3.493  1.00  0.00     0.169 HD
ENDBRANCH  29  31
ENDBRANCH   4  22
TORSDOF 4
ENDMDL
MODEL 8
REMARK VINA RESULT:      -7.3      8.282     12.002
REMARK  4 active torsions:
REMARK  status: ('A' for Active; 'I' for Inactive)
REMARK       I    between atoms: C_2  and  N_3 
REMARK    1  A    between atoms: N_3  and  C_4 
REMARK    2  A    between atoms: C_10  and  C_11 
REMARK    3  A    between atoms: C_14  and  C_15 
REMARK    4  A    between atoms: C_22  and  N_23 
REMARK       I    between atoms: N_23  and  C_24 
ROOT
HETATM    1  C   UNL     1      38.122 -13.252   0.027  1.00  0.00     0.010 A 
HETATM    2  C   UNL     1      37.849 -13.969   1.201  1.00  0.00     0.016 A 
HETATM    3  C   UNL     1      38.762 -14.899   1.709  1.00  0.00     0.017 A 
HETATM    4  C   UNL     1      39.973 -15.145   1.052  1.00  0.00     0.017 A 
HETATM    5  C   UNL     1      40.241 -14.440  -0.131  1.00  0.00     0.017 A 
HETATM    6  C   UNL     1      39.328 -13.504  -0.639  1.00  0.00     0.016 A 
ENDROOT
BRANCH   1   7
HETATM    7  C   UNL     1      37.136 -12.278  -0.452  1.00  0.00     0.139 A 
HETATM    8  N   UNL     1      36.131 -11.735   0.318  1.00  0.00    -0.338 N 
HETATM    9  C   UNL     1      35.378 -10.896  -0.462  1.00  0.00     0.063 A 
HETATM   10  H   UNL     1      35.958 -11.946   1.288  1.00  0.00     0.167 HD
HETATM   11  C   UNL     1      35.980 -10.961  -1.711  1.00  0.00     0.088 A 
HETATM   12  C   UNL     1      34.255 -10.114  -0.196  1.00  0.00     0.034 A 
HETATM   13  C   UNL     1      35.455 -10.207  -2.774  1.00  0.00     0.063 A 
HETATM   14  N   UNL     1      37.053 -11.815  -1.686  1.00  0.00    -0.228 NA
HETATM   15  C   UNL     1      34.328  -9.407  -2.549  1.00  0.00     0.037 A 
HETATM   16  C   UNL     1      33.745  -9.372  -1.271  1.00  0.00     0.032 A 
BRANCH  15  17
HETATM   17  N   UNL     1      33.721  -8.612  -3.547  1.00  0.00    -0.327 N 
HETATM   18  C   UNL     1      32.963  -9.042  -4.621  1.00  0.00     0.218 C 
HETATM   19  C   UNL     1      32.476  -7.903  -5.485  1.00  0.00     0.117 C 
HETATM   20  O   UNL     1      32.656 -10.197  -4.893  1.00  0.00    -0.274 OA
HETATM   21  H   UNL     1      33.857  -7.613  -3.456  1.00  0.00     0.169 HD
ENDBRANCH  15  17
ENDBRANCH   1   7
BRANCH   4  22
HETATM   22  C   UNL     1      40.947 -16.108   1.564  1.00  0.00     0.180 A 
HETATM   23  O   UNL     1      42.095 -16.267   0.826  1.00  0.00    -0.289 OA
HETATM   24  C   UNL     1      42.801 -17.208   1.510  1.00  0.00     0.107 A 
HETATM   25  C   UNL     1      42.060 -17.572   2.619  1.00  0.00     0.095 A 
HETATM   26  C   UNL     1      44.041 -17.733   1.184  1.00  0.00     0.042 A 
HETATM   27  N   UNL     1      40.880 -16.869   2.644  1.00  0.00    -0.221 NA
HETATM   28  C   UNL     1      42.578 -18.537   3.494  1.00  0.00     0.064 A 
HETATM   29  C   UNL     1      43.837 -19.104   3.211  1.00  0.00     0.037 A 
HETATM   30  C   UNL     1      44.545 -18.699   2.069  1.00  0.00     0.032 A 
BRANCH  29  31
HETATM   31  N   UNL     1      44.314 -20.070   4.125  1.00  0.00    -0.327 N 
HETATM   32  C   UNL     1      44.513 -21.420   3.899  1.00  0.00     0.218 C 
HETATM   33  C   UNL     1      45.039 -22.149   5.112  1.00  0.00     0.117 C 
HETATM   34  O   UNL     1      44.295 -22.032   2.860  1.00  0.00    -0.274 OA
HETATM   35  H   UNL     1      44.528 -19.727   5.053  1.00  0.00     0.169 HD
ENDBRANCH  29  31
ENDBRANCH   4  22
TORSDOF 4
ENDMDL
MODEL 9
REMARK VINA RESULT:      -7.3      7.368      9.372
REMARK  4 active torsions:
REMARK  status: ('A' for Active; 'I' for Inactive)
REMARK       I    between atoms: C_2  and  N_3 
REMARK    1  A    between atoms: N_3  and  C_4 
REMARK    2  A    between atoms: C_10  and  C_11 
REMARK    3  A    between atoms: C_14  and  C_15 
REMARK    4  A    between atoms: C_22  and  N_23 
REMARK       I    between atoms: N_23  and  C_24 
ROOT
HETATM    1  C   UNL     1      40.320 -15.364   1.273  1.00  0.00     0.010 A 
HETATM    2  C   UNL     1      40.727 -14.940  -0.000  1.00  0.00     0.016 A 
HETATM    3  C   UNL     1      39.916 -14.108  -0.779  1.00  0.00     0.017 A 
HETATM    4  C   UNL     1      38.668 -13.681  -0.308  1.00  0.00     0.017 A 
HETATM    5  C   UNL     1      38.253 -14.117   0.959  1.00  0.00     0.017 A 
HETATM    6  C   UNL     1      39.068 -14.948   1.742  1.00  0.00     0.016 A 
ENDROOT
BRANCH   1   7
HETATM    7  C   UNL     1      41.218 -16.223   2.052  1.00  0.00     0.139 A 
HETATM    8  N   UNL     1      41.878 -15.836   3.196  1.00  0.00    -0.338 N 
HETATM    9  C   UNL     1      42.656 -16.876   3.635  1.00  0.00     0.063 A 
HETATM   10  H   UNL     1      41.823 -14.924   3.623  1.00  0.00     0.167 HD
HETATM   11  C   UNL     1      42.424 -17.886   2.713  1.00  0.00     0.088 A 
HETATM   12  C   UNL     1      43.521 -17.016   4.719  1.00  0.00     0.034 A 
HETATM   13  C   UNL     1      43.075 -19.123   2.860  1.00  0.00     0.063 A 
HETATM   14  N   UNL     1      41.543 -17.468   1.749  1.00  0.00    -0.228 NA
HETATM   15  C   UNL     1      43.951 -19.306   3.936  1.00  0.00     0.037 A 
HETATM   16  C   UNL     1      44.162 -18.257   4.846  1.00  0.00     0.032 A 
BRANCH  15  17
HETATM   17  N   UNL     1      44.655 -20.508   4.176  1.00  0.00    -0.327 N 
HETATM   18  C   UNL     1      44.591 -21.311   5.300  1.00  0.00     0.218 C 
HETATM   19  C   UNL     1      45.488 -22.522   5.205  1.00  0.00     0.117 C 
HETATM   20  O   UNL     1      43.891 -21.139   6.291  1.00  0.00    -0.274 OA
HETATM   21  H   UNL     1      45.270 -20.813   3.433  1.00  0.00     0.169 HD
ENDBRANCH  15  17
ENDBRANCH   1   7
BRANCH   4  22
HETATM   22  C   UNL     1      37.803 -12.808  -1.099  1.00  0.00     0.180 A 
HETATM   23  O   UNL     1      37.791 -13.025  -2.455  1.00  0.00    -0.289 OA
HETATM   24  C   UNL     1      36.931 -12.085  -2.934  1.00  0.00     0.107 A 
HETATM   25  C   UNL     1      36.464 -11.350  -1.860  1.00  0.00     0.095 A 
HETATM   26  C   UNL     1      36.565 -11.872  -4.253  1.00  0.00     0.042 A 
HETATM   27  N   UNL     1      37.027 -11.815  -0.696  1.00  0.00    -0.221 NA
HETATM   28  C   UNL     1      35.554 -10.310  -2.095  1.00  0.00     0.064 A 
HETATM   29  C   UNL     1      35.146 -10.049  -3.418  1.00  0.00     0.037 A 
HETATM   30  C   UNL     1      35.654 -10.826  -4.471  1.00  0.00     0.032 A 
BRANCH  29  31
HETATM   31  N   UNL     1      34.226  -8.993  -3.599  1.00  0.00    -0.327 N 
HETATM   32  C   UNL     1      32.879  -9.089  -3.899  1.00  0.00     0.218 C 
HETATM   33  C   UNL     1      32.205  -7.744  -4.017  1.00  0.00     0.117 C 
HETATM   34  O   UNL     1      32.238 -10.118  -4.078  1.00  0.00    -0.274 OA
HETATM   35  H   UNL     1      34.606  -8.059  -3.503  1.00  0.00     0.169 HD
ENDBRANCH  29  31
ENDBRANCH   4  22
TORSDOF 4
ENDMDL
MODEL 10
REMARK VINA RESULT:      -7.3      2.160      2.611
REMARK  4 active torsions:
REMARK  status: ('A' for Active; 'I' for Inactive)
REMARK       I    between atoms: C_2  and  N_3 
REMARK    1  A    between atoms: N_3  and  C_4 
REMARK    2  A    between atoms: C_10  and  C_11 
REMARK    3  A    between atoms: C_14  and  C_15 
REMARK    4  A    between atoms: C_22  and  N_23 
REMARK       I    between atoms: N_23  and  C_24 
ROOT
HETATM    1  C   UNL     1      39.357 -11.117   7.141  1.00  0.00     0.010 A 
HETATM    2  C   UNL     1      39.309 -10.183   6.097  1.00  0.00     0.016 A 
HETATM    3  C   UNL     1      39.224 -10.593   4.762  1.00  0.00     0.017 A 
HETATM    4  C   UNL     1      39.192 -11.954   4.433  1.00  0.00     0.017 A 
HETATM    5  C   UNL     1      39.254 -12.890   5.476  1.00  0.00     0.017 A 
HETATM    6  C   UNL     1      39.336 -12.479   6.815  1.00  0.00     0.016 A 
ENDROOT
BRANCH   1   7
HETATM    7  C   UNL     1      39.430 -10.630   8.522  1.00  0.00     0.139 A 
HETATM    8  N   UNL     1      38.596  -9.677   9.064  1.00  0.00    -0.338 N 
HETATM    9  C   UNL     1      38.975  -9.439  10.360  1.00  0.00     0.063 A 
HETATM   10  H   UNL     1      37.849  -9.208   8.576  1.00  0.00     0.167 HD
HETATM   11  C   UNL     1      40.054 -10.288  10.560  1.00  0.00     0.088 A 
HETATM   12  C   UNL     1      38.489  -8.579  11.343  1.00  0.00     0.034 A 
HETATM   13  C   UNL     1      40.701 -10.306  11.807  1.00  0.00     0.063 A 
HETATM   14  N   UNL     1      40.320 -11.007   9.423  1.00  0.00    -0.228 NA
HETATM   15  C   UNL     1      40.245  -9.458  12.822  1.00  0.00     0.037 A 
HETATM   16  C   UNL     1      39.151  -8.609  12.579  1.00  0.00     0.032 A 
BRANCH  15  17
HETATM   17  N   UNL     1      40.823  -9.396  14.110  1.00  0.00    -0.327 N 
HETATM   18  C   UNL     1      42.074  -8.912  14.449  1.00  0.00     0.218 C 
HETATM   19  C   UNL     1      42.355  -9.006  15.929  1.00  0.00     0.117 C 
HETATM   20  O   UNL     1      42.906  -8.424  13.693  1.00  0.00    -0.274 OA
HETATM   21  H   UNL     1      40.249  -9.743  14.867  1.00  0.00     0.169 HD
ENDBRANCH  15  17
ENDBRANCH   1   7
BRANCH   4  22
HETATM   22  C   UNL     1      39.097 -12.410   3.048  1.00  0.00     0.180 A 
HETATM   23  O   UNL     1      38.161 -11.784   2.261  1.00  0.00    -0.289 OA
HETATM   24  C   UNL     1      38.279 -12.399   1.053  1.00  0.00     0.107 A 
HETATM   25  C   UNL     1      39.269 -13.358   1.159  1.00  0.00     0.095 A 
HETATM   26  C   UNL     1      37.553 -12.140  -0.099  1.00  0.00     0.042 A 
HETATM   27  N   UNL     1      39.783 -13.360   2.432  1.00  0.00    -0.221 NA
HETATM   28  C   UNL     1      39.583 -14.136   0.035  1.00  0.00     0.064 A 
HETATM   29  C   UNL     1      38.876 -13.914  -1.163  1.00  0.00     0.037 A 
HETATM   30  C   UNL     1      37.878 -12.928  -1.214  1.00  0.00     0.032 A 
BRANCH  29  31
HETATM   31  N   UNL     1      39.232 -14.723  -2.266  1.00  0.00    -0.327 N 
HETATM   32  C   UNL     1      38.394 -15.250  -3.232  1.00  0.00     0.218 C 
HETATM   33  C   UNL     1      39.129 -16.068  -4.266  1.00  0.00     0.117 C 
HETATM   34  O   UNL     1      37.177 -15.122  -3.298  1.00  0.00    -0.274 OA
HETATM   35  H   UNL     1      40.217 -14.942  -2.348  1.00  0.00     0.169 HD
ENDBRANCH  29  31
ENDBRANCH   4  22
TORSDOF 4
ENDMDL
