MODEL 1
REMARK VINA RESULT:      -9.6      0.000      0.000
REMARK  4 active torsions:
REMARK  status: ('A' for Active; 'I' for Inactive)
REMARK    1  A    between atoms: C_8  and  C_9 
REMARK    2  A    between atoms: C_9  and  C_10 
REMARK    3  A    between atoms: C_18  and  C_19 
REMARK    4  A    between atoms: C_28  and  N_29 
ROOT
HETATM    1  C   UNL     1      42.759 -15.163   2.749  1.00  0.00     0.030 A 
HETATM    2  C   UNL     1      42.107 -14.999   1.503  1.00  0.00     0.007 A 
HETATM    3  C   UNL     1      42.015 -16.150   0.697  1.00  0.00     0.068 A 
HETATM    4  C   UNL     1      41.397 -16.059  -0.543  1.00  0.00     0.032 A 
HETATM    5  C   UNL     1      40.856 -14.862  -1.015  1.00  0.00     0.002 A 
HETATM    6  C   UNL     1      40.927 -13.723  -0.230  1.00  0.00     0.001 A 
HETATM    7  C   UNL     1      41.543 -13.789   1.019  1.00  0.00     0.015 A 
HETATM    8  N   UNL     1      42.495 -17.347   1.070  1.00  0.00    -0.248 NA
HETATM    9  C   UNL     1      43.100 -17.487   2.273  1.00  0.00     0.068 A 
HETATM   10  C   UNL     1      43.279 -16.407   3.123  1.00  0.00     0.049 A 
ENDROOT
BRANCH   1  11
HETATM   11  C   UNL     1      42.966 -14.010   3.665  1.00  0.00     0.202 C 
HETATM   12  O   UNL     1      44.070 -13.465   3.692  1.00  0.00    -0.286 OA
BRANCH  11  13
HETATM   13  C   UNL     1      41.856 -13.566   4.573  1.00  0.00     0.121 C 
HETATM   14  C   UNL     1      41.280 -14.476   5.590  1.00  0.00     0.266 C 
HETATM   15  N   UNL     1      40.383 -13.936   6.454  1.00  0.00    -0.274 N 
HETATM   16  O   UNL     1      41.575 -15.664   5.658  1.00  0.00    -0.267 OA
HETATM   17  C   UNL     1      39.789 -12.722   6.307  1.00  0.00     0.330 C 
HETATM   18  H   UNL     1      39.972 -14.550   7.142  1.00  0.00     0.173 HD
HETATM   19  N   UNL     1      40.284 -11.925   5.285  1.00  0.00    -0.293 N 
HETATM   20  O   UNL     1      38.866 -12.412   7.057  1.00  0.00    -0.246 OA
HETATM   21  C   UNL     1      39.702 -10.594   5.142  1.00  0.00     0.162 C 
HETATM   22  C   UNL     1      41.316 -12.328   4.432  1.00  0.00     0.103 C 
BRANCH  22  23
HETATM   23  N   UNL     1      41.766 -11.432   3.467  1.00  0.00    -0.287 NA
HETATM   24  H   UNL     1      41.078 -10.688   3.278  1.00  0.00     0.125 HD
HETATM   25  H   UNL     1      42.650 -11.001   3.723  1.00  0.00     0.125 HD
ENDBRANCH  22  23
ENDBRANCH  11  13
ENDBRANCH   1  11
BRANCH   9  26
HETATM   26  C   UNL     1      43.537 -18.857   2.609  1.00  0.00    -0.007 A 
HETATM   27  C   UNL     1      44.189 -19.125   3.828  1.00  0.00     0.015 A 
HETATM   28  C   UNL     1      44.630 -20.412   4.154  1.00  0.00     0.024 A 
HETATM   29  C   UNL     1      44.432 -21.456   3.257  1.00  0.00     0.034 A 
HETATM   30 CL   UNL     1      44.980 -23.038   3.648  1.00  0.00    -0.084 Cl
HETATM   31  C   UNL     1      43.798 -21.223   2.040  1.00  0.00     0.024 A 
HETATM   32  C   UNL     1      43.357 -19.933   1.720  1.00  0.00     0.015 A 
ENDBRANCH   9  26
TORSDOF 4
ENDMDL
MODEL 2
REMARK VINA RESULT:      -9.1      2.643      4.713
REMARK  4 active torsions:
REMARK  status: ('A' for Active; 'I' for Inactive)
REMARK    1  A    between atoms: C_8  and  C_9 
REMARK    2  A    between atoms: C_9  and  C_10 
REMARK    3  A    between atoms: C_18  and  C_19 
REMARK    4  A    between atoms: C_28  and  N_29 
ROOT
HETATM    1  C   UNL     1      41.877 -15.006   4.187  1.00  0.00     0.030 A 
HETATM    2  C   UNL     1      42.670 -14.536   5.262  1.00  0.00     0.007 A 
HETATM    3  C   UNL     1      43.656 -15.422   5.736  1.00  0.00     0.068 A 
HETATM    4  C   UNL     1      44.463 -15.030   6.797  1.00  0.00     0.032 A 
HETATM    5  C   UNL     1      44.333 -13.781   7.404  1.00  0.00     0.002 A 
HETATM    6  C   UNL     1      43.376 -12.892   6.942  1.00  0.00     0.001 A 
HETATM    7  C   UNL     1      42.553 -13.262   5.879  1.00  0.00     0.015 A 
HETATM    8  N   UNL     1      43.864 -16.639   5.209  1.00  0.00    -0.248 NA
HETATM    9  C   UNL     1      43.106 -17.062   4.170  1.00  0.00     0.068 A 
HETATM   10  C   UNL     1      42.081 -16.284   3.657  1.00  0.00     0.049 A 
ENDROOT
BRANCH   1  11
HETATM   11  C   UNL     1      40.769 -14.184   3.634  1.00  0.00     0.202 C 
HETATM   12  O   UNL     1      39.970 -13.663   4.414  1.00  0.00    -0.286 OA
BRANCH  11  13
HETATM   13  C   UNL     1      40.607 -14.045   2.148  1.00  0.00     0.121 C 
HETATM   14  C   UNL     1      39.572 -14.805   1.410  1.00  0.00     0.266 C 
HETATM   15  N   UNL     1      39.413 -14.502   0.096  1.00  0.00    -0.274 N 
HETATM   16  O   UNL     1      38.889 -15.676   1.937  1.00  0.00    -0.267 OA
HETATM   17  C   UNL     1      40.278 -13.761  -0.646  1.00  0.00     0.330 C 
HETATM   18  H   UNL     1      38.721 -15.024  -0.421  1.00  0.00     0.173 HD
HETATM   19  N   UNL     1      41.297 -13.135   0.058  1.00  0.00    -0.293 N 
HETATM   20  O   UNL     1      40.123 -13.698  -1.863  1.00  0.00    -0.246 OA
HETATM   21  C   UNL     1      42.207 -12.287  -0.707  1.00  0.00     0.162 C 
HETATM   22  C   UNL     1      41.459 -13.258   1.441  1.00  0.00     0.103 C 
BRANCH  22  23
HETATM   23  N   UNL     1      42.490 -12.551   2.053  1.00  0.00    -0.287 NA
HETATM   24  H   UNL     1      42.839 -13.027   2.898  1.00  0.00     0.125 HD
HETATM   25  H   UNL     1      43.272 -12.386   1.425  1.00  0.00     0.125 HD
ENDBRANCH  22  23
ENDBRANCH  11  13
ENDBRANCH   1  11
BRANCH   9  26
HETATM   26  C   UNL     1      43.458 -18.390   3.628  1.00  0.00    -0.007 A 
HETATM   27  C   UNL     1      44.321 -19.250   4.336  1.00  0.00     0.015 A 
HETATM   28  C   UNL     1      44.682 -20.502   3.829  1.00  0.00     0.024 A 
HETATM   29  C   UNL     1      44.190 -20.916   2.596  1.00  0.00     0.034 A 
HETATM   30 CL   UNL     1      44.638 -22.450   1.964  1.00  0.00    -0.084 Cl
HETATM   31  C   UNL     1      43.342 -20.087   1.868  1.00  0.00     0.024 A 
HETATM   32  C   UNL     1      42.981 -18.835   2.380  1.00  0.00     0.015 A 
ENDBRANCH   9  26
TORSDOF 4
ENDMDL
MODEL 3
REMARK VINA RESULT:      -9.0      2.485      5.256
REMARK  4 active torsions:
REMARK  status: ('A' for Active; 'I' for Inactive)
REMARK    1  A    between atoms: C_8  and  C_9 
REMARK    2  A    between atoms: C_9  and  C_10 
REMARK    3  A    between atoms: C_18  and  C_19 
REMARK    4  A    between atoms: C_28  and  N_29 
ROOT
HETATM    1  C   UNL     1      41.588 -15.107   2.679  1.00  0.00     0.030 A 
HETATM    2  C   UNL     1      41.997 -14.431   3.854  1.00  0.00     0.007 A 
HETATM    3  C   UNL     1      42.808 -15.166   4.738  1.00  0.00     0.068 A 
HETATM    4  C   UNL     1      43.238 -14.569   5.917  1.00  0.00     0.032 A 
HETATM    5  C   UNL     1      42.896 -13.258   6.250  1.00  0.00     0.002 A 
HETATM    6  C   UNL     1      42.107 -12.516   5.385  1.00  0.00     0.001 A 
HETATM    7  C   UNL     1      41.663 -13.094   4.196  1.00  0.00     0.015 A 
HETATM    8  N   UNL     1      43.199 -16.428   4.499  1.00  0.00    -0.248 NA
HETATM    9  C   UNL     1      42.811 -17.050   3.361  1.00  0.00     0.068 A 
HETATM   10  C   UNL     1      41.976 -16.430   2.445  1.00  0.00     0.049 A 
ENDROOT
BRANCH   1  11
HETATM   11  C   UNL     1      40.685 -14.455   1.693  1.00  0.00     0.202 C 
HETATM   12  O   UNL     1      39.472 -14.460   1.907  1.00  0.00    -0.286 OA
BRANCH  11  13
HETATM   13  C   UNL     1      41.252 -13.854   0.440  1.00  0.00     0.121 C 
HETATM   14  C   UNL     1      41.875 -12.509   0.442  1.00  0.00     0.266 C 
HETATM   15  N   UNL     1      42.485 -12.118  -0.706  1.00  0.00    -0.274 N 
HETATM   16  O   UNL     1      41.844 -11.768   1.417  1.00  0.00    -0.267 OA
HETATM   17  C   UNL     1      42.352 -12.733  -1.911  1.00  0.00     0.330 C 
HETATM   18  H   UNL     1      42.899 -11.198  -0.721  1.00  0.00     0.173 HD
HETATM   19  N   UNL     1      41.680 -13.947  -1.900  1.00  0.00    -0.293 N 
HETATM   20  O   UNL     1      42.809 -12.190  -2.915  1.00  0.00    -0.246 OA
HETATM   21  C   UNL     1      41.573 -14.656  -3.173  1.00  0.00     0.162 C 
HETATM   22  C   UNL     1      41.146 -14.516  -0.741  1.00  0.00     0.103 C 
BRANCH  22  23
HETATM   23  N   UNL     1      40.530 -15.760  -0.836  1.00  0.00    -0.287 NA
HETATM   24  H   UNL     1      40.255 -16.128   0.087  1.00  0.00     0.125 HD
HETATM   25  H   UNL     1      39.711 -15.741  -1.437  1.00  0.00     0.125 HD
ENDBRANCH  22  23
ENDBRANCH  11  13
ENDBRANCH   1  11
BRANCH   9  26
HETATM   26  C   UNL     1      43.345 -18.414   3.169  1.00  0.00    -0.007 A 
HETATM   27  C   UNL     1      43.011 -19.162   2.023  1.00  0.00     0.015 A 
HETATM   28  C   UNL     1      43.489 -20.463   1.835  1.00  0.00     0.024 A 
HETATM   29  C   UNL     1      44.307 -21.043   2.798  1.00  0.00     0.034 A 
HETATM   30 CL   UNL     1      44.891 -22.645   2.576  1.00  0.00    -0.084 Cl
HETATM   31  C   UNL     1      44.649 -20.334   3.945  1.00  0.00     0.024 A 
HETATM   32  C   UNL     1      44.170 -19.031   4.129  1.00  0.00     0.015 A 
ENDBRANCH   9  26
TORSDOF 4
ENDMDL
MODEL 4
REMARK VINA RESULT:      -9.0      3.028      5.283
REMARK  4 active torsions:
REMARK  status: ('A' for Active; 'I' for Inactive)
REMARK    1  A    between atoms: C_8  and  C_9 
REMARK    2  A    between atoms: C_9  and  C_10 
REMARK    3  A    between atoms: C_18  and  C_19 
REMARK    4  A    between atoms: C_28  and  N_29 
ROOT
HETATM    1  C   UNL     1      41.311 -14.386   2.233  1.00  0.00     0.030 A 
HETATM    2  C   UNL     1      40.816 -14.028   3.510  1.00  0.00     0.007 A 
HETATM    3  C   UNL     1      40.972 -14.990   4.525  1.00  0.00     0.068 A 
HETATM    4  C   UNL     1      40.499 -14.710   5.801  1.00  0.00     0.032 A 
HETATM    5  C   UNL     1      39.880 -13.499   6.112  1.00  0.00     0.002 A 
HETATM    6  C   UNL     1      39.729 -12.535   5.127  1.00  0.00     0.001 A 
HETATM    7  C   UNL     1      40.195 -12.794   3.839  1.00  0.00     0.015 A 
HETATM    8  N   UNL     1      41.564 -16.178   4.325  1.00  0.00    -0.248 NA
HETATM    9  C   UNL     1      42.047 -16.494   3.100  1.00  0.00     0.068 A 
HETATM   10  C   UNL     1      41.905 -15.635   2.023  1.00  0.00     0.049 A 
ENDROOT
BRANCH   1  11
HETATM   11  C   UNL     1      41.157 -13.476   1.067  1.00  0.00     0.202 C 
HETATM   12  O   UNL     1      41.786 -12.417   1.055  1.00  0.00    -0.286 OA
BRANCH  11  13
HETATM   13  C   UNL     1      40.207 -13.830  -0.040  1.00  0.00     0.121 C 
HETATM   14  C   UNL     1      38.746 -13.916   0.194  1.00  0.00     0.266 C 
HETATM   15  N   UNL     1      37.963 -14.101  -0.900  1.00  0.00    -0.274 N 
HETATM   16  O   UNL     1      38.250 -13.839   1.312  1.00  0.00    -0.267 OA
HETATM   17  C   UNL     1      38.412 -14.463  -2.131  1.00  0.00     0.330 C 
HETATM   18  H   UNL     1      36.968 -14.177  -0.751  1.00  0.00     0.173 HD
HETATM   19  N   UNL     1      39.789 -14.465  -2.297  1.00  0.00    -0.293 N 
HETATM   20  O   UNL     1      37.598 -14.770  -2.999  1.00  0.00    -0.246 OA
HETATM   21  C   UNL     1      40.295 -14.795  -3.627  1.00  0.00     0.162 C 
HETATM   22  C   UNL     1      40.684 -14.140  -1.273  1.00  0.00     0.103 C 
BRANCH  22  23
HETATM   23  N   UNL     1      42.046 -14.131  -1.561  1.00  0.00    -0.287 NA
HETATM   24  H   UNL     1      42.229 -13.957  -2.561  1.00  0.00     0.125 HD
HETATM   25  H   UNL     1      42.552 -13.443  -1.012  1.00  0.00     0.125 HD
ENDBRANCH  22  23
ENDBRANCH  11  13
ENDBRANCH   1  11
BRANCH   9  26
HETATM   26  C   UNL     1      42.732 -17.799   3.005  1.00  0.00    -0.007 A 
HETATM   27  C   UNL     1      42.581 -18.608   1.861  1.00  0.00     0.015 A 
HETATM   28  C   UNL     1      43.204 -19.856   1.762  1.00  0.00     0.024 A 
HETATM   29  C   UNL     1      43.986 -20.323   2.814  1.00  0.00     0.034 A 
HETATM   30 CL   UNL     1      44.747 -21.860   2.701  1.00  0.00    -0.084 Cl
HETATM   31  C   UNL     1      44.148 -19.552   3.961  1.00  0.00     0.024 A 
HETATM   32  C   UNL     1      43.524 -18.302   4.055  1.00  0.00     0.015 A 
ENDBRANCH   9  26
TORSDOF 4
ENDMDL
MODEL 5
REMARK VINA RESULT:      -8.9      2.679      5.009
REMARK  4 active torsions:
REMARK  status: ('A' for Active; 'I' for Inactive)
REMARK    1  A    between atoms: C_8  and  C_9 
REMARK    2  A    between atoms: C_9  and  C_10 
REMARK    3  A    between atoms: C_18  and  C_19 
REMARK    4  A    between atoms: C_28  and  N_29 
ROOT
HETATM    1  C   UNL     1      41.702 -14.858   2.749  1.00  0.00     0.030 A 
HETATM    2  C   UNL     1      42.110 -14.253   3.962  1.00  0.00     0.007 A 
HETATM    3  C   UNL     1      42.858 -15.064   4.836  1.00  0.00     0.068 A 
HETATM    4  C   UNL     1      43.282 -14.538   6.050  1.00  0.00     0.032 A 
HETATM    5  C   UNL     1      42.997 -13.226   6.429  1.00  0.00     0.002 A 
HETATM    6  C   UNL     1      42.272 -12.410   5.575  1.00  0.00     0.001 A 
HETATM    7  C   UNL     1      41.834 -12.915   4.351  1.00  0.00     0.015 A 
HETATM    8  N   UNL     1      43.191 -16.334   4.555  1.00  0.00    -0.248 NA
HETATM    9  C   UNL     1      42.806 -16.888   3.381  1.00  0.00     0.068 A 
HETATM   10  C   UNL     1      42.031 -16.189   2.470  1.00  0.00     0.049 A 
ENDROOT
BRANCH   1  11
HETATM   11  C   UNL     1      40.862 -14.121   1.768  1.00  0.00     0.202 C 
HETATM   12  O   UNL     1      39.688 -13.883   2.053  1.00  0.00    -0.286 OA
BRANCH  11  13
HETATM   13  C   UNL     1      41.435 -13.728   0.437  1.00  0.00     0.121 C 
HETATM   14  C   UNL     1      41.431 -14.665  -0.712  1.00  0.00     0.266 C 
HETATM   15  N   UNL     1      41.839 -14.166  -1.906  1.00  0.00    -0.274 N 
HETATM   16  O   UNL     1      41.090 -15.837  -0.607  1.00  0.00    -0.267 OA
HETATM   17  C   UNL     1      42.482 -12.981  -2.081  1.00  0.00     0.330 C 
HETATM   18  H   UNL     1      41.855 -14.799  -2.692  1.00  0.00     0.173 HD
HETATM   19  N   UNL     1      42.555 -12.162  -0.964  1.00  0.00    -0.293 N 
HETATM   20  O   UNL     1      42.958 -12.714  -3.182  1.00  0.00    -0.246 OA
HETATM   21  C   UNL     1      43.190 -10.858  -1.139  1.00  0.00     0.162 C 
HETATM   22  C   UNL     1      42.028 -12.517   0.281  1.00  0.00     0.103 C 
BRANCH  22  23
HETATM   23  N   UNL     1      42.118 -11.600   1.325  1.00  0.00    -0.287 NA
HETATM   24  H   UNL     1      41.790 -10.663   1.047  1.00  0.00     0.125 HD
HETATM   25  H   UNL     1      41.598 -11.897   2.146  1.00  0.00     0.125 HD
ENDBRANCH  22  23
ENDBRANCH  11  13
ENDBRANCH   1  11
BRANCH   9  26
HETATM   26  C   UNL     1      43.276 -18.268   3.147  1.00  0.00    -0.007 A 
HETATM   27  C   UNL     1      44.157 -18.891   4.053  1.00  0.00     0.015 A 
HETATM   28  C   UNL     1      44.631 -20.189   3.836  1.00  0.00     0.024 A 
HETATM   29  C   UNL     1      44.234 -20.888   2.701  1.00  0.00     0.034 A 
HETATM   30 CL   UNL     1      44.820 -22.481   2.425  1.00  0.00    -0.084 Cl
HETATM   31  C   UNL     1      43.371 -20.298   1.783  1.00  0.00     0.024 A 
HETATM   32  C   UNL     1      42.898 -18.999   2.004  1.00  0.00     0.015 A 
ENDBRANCH   9  26
TORSDOF 4
ENDMDL
MODEL 6
REMARK VINA RESULT:      -8.4      2.867      5.244
REMARK  4 active torsions:
REMARK  status: ('A' for Active; 'I' for Inactive)
REMARK    1  A    between atoms: C_8  and  C_9 
REMARK    2  A    between atoms: C_9  and  C_10 
REMARK    3  A    between atoms: C_18  and  C_19 
REMARK    4  A    between atoms: C_28  and  N_29 
ROOT
HETATM    1  C   UNL     1      40.378 -15.002   2.173  1.00  0.00     0.030 A 
HETATM    2  C   UNL     1      40.218 -14.393   3.440  1.00  0.00     0.007 A 
HETATM    3  C   UNL     1      40.819 -15.057   4.526  1.00  0.00     0.068 A 
HETATM    4  C   UNL     1      40.693 -14.521   5.801  1.00  0.00     0.032 A 
HETATM    5  C   UNL     1      39.995 -13.336   6.040  1.00  0.00     0.002 A 
HETATM    6  C   UNL     1      39.408 -12.662   4.982  1.00  0.00     0.001 A 
HETATM    7  C   UNL     1      39.520 -13.182   3.692  1.00  0.00     0.015 A 
HETATM    8  N   UNL     1      41.519 -16.195   4.393  1.00  0.00    -0.248 NA
HETATM    9  C   UNL     1      41.675 -16.753   3.169  1.00  0.00     0.068 A 
HETATM   10  C   UNL     1      41.087 -16.200   2.042  1.00  0.00     0.049 A 
ENDROOT
BRANCH   1  11
HETATM   11  C   UNL     1      39.745 -14.424   0.958  1.00  0.00     0.202 C 
HETATM   12  O   UNL     1      38.517 -14.452   0.858  1.00  0.00    -0.286 OA
BRANCH  11  13
HETATM   13  C   UNL     1      40.603 -13.870  -0.143  1.00  0.00     0.121 C 
HETATM   14  C   UNL     1      41.179 -14.748  -1.189  1.00  0.00     0.266 C 
HETATM   15  N   UNL     1      41.818 -14.133  -2.216  1.00  0.00    -0.274 N 
HETATM   16  O   UNL     1      41.103 -15.970  -1.141  1.00  0.00    -0.267 OA
HETATM   17  C   UNL     1      42.191 -12.826  -2.235  1.00  0.00     0.330 C 
HETATM   18  H   UNL     1      42.228 -14.721  -2.926  1.00  0.00     0.173 HD
HETATM   19  N   UNL     1      41.716 -12.045  -1.192  1.00  0.00    -0.293 N 
HETATM   20  O   UNL     1      42.917 -12.423  -3.142  1.00  0.00    -0.246 OA
HETATM   21  C   UNL     1      42.055 -10.625  -1.220  1.00  0.00     0.162 C 
HETATM   22  C   UNL     1      40.918 -12.549  -0.161  1.00  0.00     0.103 C 
BRANCH  22  23
HETATM   23  N   UNL     1      40.459 -11.668   0.814  1.00  0.00    -0.287 NA
HETATM   24  H   UNL     1      40.527 -12.068   1.761  1.00  0.00     0.125 HD
HETATM   25  H   UNL     1      40.955 -10.781   0.797  1.00  0.00     0.125 HD
ENDBRANCH  22  23
ENDBRANCH  11  13
ENDBRANCH   1  11
BRANCH   9  26
HETATM   26  C   UNL     1      42.512 -17.969   3.128  1.00  0.00    -0.007 A 
HETATM   27  C   UNL     1      42.559 -18.769   1.969  1.00  0.00     0.015 A 
HETATM   28  C   UNL     1      43.329 -19.936   1.919  1.00  0.00     0.024 A 
HETATM   29  C   UNL     1      44.062 -20.328   3.034  1.00  0.00     0.034 A 
HETATM   30 CL   UNL     1      45.004 -21.766   2.980  1.00  0.00    -0.084 Cl
HETATM   31  C   UNL     1      44.030 -19.563   4.196  1.00  0.00     0.024 A 
HETATM   32  C   UNL     1      43.260 -18.395   4.242  1.00  0.00     0.015 A 
ENDBRANCH   9  26
TORSDOF 4
ENDMDL
MODEL 7
REMARK VINA RESULT:      -8.4      1.226      1.921
REMARK  4 active torsions:
REMARK  status: ('A' for Active; 'I' for Inactive)
REMARK    1  A    between atoms: C_8  and  C_9 
REMARK    2  A    between atoms: C_9  and  C_10 
REMARK    3  A    between atoms: C_18  and  C_19 
REMARK    4  A    between atoms: C_28  and  N_29 
ROOT
HETATM    1  C   UNL     1      42.750 -15.014   2.682  1.00  0.00     0.030 A 
HETATM    2  C   UNL     1      42.137 -15.116   1.410  1.00  0.00     0.007 A 
HETATM    3  C   UNL     1      42.128 -16.398   0.830  1.00  0.00     0.068 A 
HETATM    4  C   UNL     1      41.553 -16.569  -0.423  1.00  0.00     0.032 A 
HETATM    5  C   UNL     1      40.975 -15.510  -1.123  1.00  0.00     0.002 A 
HETATM    6  C   UNL     1      40.964 -14.243  -0.561  1.00  0.00     0.001 A 
HETATM    7  C   UNL     1      41.536 -14.046   0.695  1.00  0.00     0.015 A 
HETATM    8  N   UNL     1      42.649 -17.479   1.431  1.00  0.00    -0.248 NA
HETATM    9  C   UNL     1      43.215 -17.364   2.656  1.00  0.00     0.068 A 
HETATM   10  C   UNL     1      43.313 -16.138   3.295  1.00  0.00     0.049 A 
ENDROOT
BRANCH   1  11
HETATM   11  C   UNL     1      42.869 -13.703   3.374  1.00  0.00     0.202 C 
HETATM   12  O   UNL     1      43.993 -13.253   3.603  1.00  0.00    -0.286 OA
BRANCH  11  13
HETATM   13  C   UNL     1      41.635 -12.979   3.827  1.00  0.00     0.121 C 
HETATM   14  C   UNL     1      41.026 -11.904   3.009  1.00  0.00     0.266 C 
HETATM   15  N   UNL     1      39.835 -11.413   3.436  1.00  0.00    -0.274 N 
HETATM   16  O   UNL     1      41.560 -11.458   2.000  1.00  0.00    -0.267 OA
HETATM   17  C   UNL     1      39.290 -11.637   4.661  1.00  0.00     0.330 C 
HETATM   18  H   UNL     1      39.418 -10.669   2.895  1.00  0.00     0.173 HD
HETATM   19  N   UNL     1      39.935 -12.581   5.447  1.00  0.00    -0.293 N 
HETATM   20  O   UNL     1      38.295 -11.001   5.000  1.00  0.00    -0.246 OA
HETATM   21  C   UNL     1      39.337 -12.882   6.745  1.00  0.00     0.162 C 
HETATM   22  C   UNL     1      41.086 -13.260   5.037  1.00  0.00     0.103 C 
BRANCH  22  23
HETATM   23  N   UNL     1      41.627 -14.221   5.887  1.00  0.00    -0.287 NA
HETATM   24  H   UNL     1      42.638 -14.350   5.733  1.00  0.00     0.125 HD
HETATM   25  H   UNL     1      41.472 -14.002   6.867  1.00  0.00     0.125 HD
ENDBRANCH  22  23
ENDBRANCH  11  13
ENDBRANCH   1  11
BRANCH   9  26
HETATM   26  C   UNL     1      43.702 -18.624   3.252  1.00  0.00    -0.007 A 
HETATM   27  C   UNL     1      43.923 -18.725   4.639  1.00  0.00     0.015 A 
HETATM   28  C   UNL     1      44.405 -19.903   5.219  1.00  0.00     0.024 A 
HETATM   29  C   UNL     1      44.683 -21.004   4.416  1.00  0.00     0.034 A 
HETATM   30 CL   UNL     1      45.284 -22.452   5.121  1.00  0.00    -0.084 Cl
HETATM   31  C   UNL     1      44.483 -20.934   3.040  1.00  0.00     0.024 A 
HETATM   32  C   UNL     1      43.998 -19.753   2.464  1.00  0.00     0.015 A 
ENDBRANCH   9  26
TORSDOF 4
ENDMDL
MODEL 8
REMARK VINA RESULT:      -8.4      2.936      5.015
REMARK  4 active torsions:
REMARK  status: ('A' for Active; 'I' for Inactive)
REMARK    1  A    between atoms: C_8  and  C_9 
REMARK    2  A    between atoms: C_9  and  C_10 
REMARK    3  A    between atoms: C_18  and  C_19 
REMARK    4  A    between atoms: C_28  and  N_29 
ROOT
HETATM    1  C   UNL     1      41.567 -14.018   2.463  1.00  0.00     0.030 A 
HETATM    2  C   UNL     1      40.792 -13.572   3.561  1.00  0.00     0.007 A 
HETATM    3  C   UNL     1      40.763 -14.421   4.683  1.00  0.00     0.068 A 
HETATM    4  C   UNL     1      40.013 -14.051   5.792  1.00  0.00     0.032 A 
HETATM    5  C   UNL     1      39.291 -12.858   5.833  1.00  0.00     0.002 A 
HETATM    6  C   UNL     1      39.318 -12.004   4.742  1.00  0.00     0.001 A 
HETATM    7  C   UNL     1      40.063 -12.354   3.616  1.00  0.00     0.015 A 
HETATM    8  N   UNL     1      41.434 -15.583   4.741  1.00  0.00    -0.248 NA
HETATM    9  C   UNL     1      42.184 -15.983   3.688  1.00  0.00     0.068 A 
HETATM   10  C   UNL     1      42.245 -15.241   2.519  1.00  0.00     0.049 A 
ENDROOT
BRANCH   1  11
HETATM   11  C   UNL     1      41.633 -13.235   1.201  1.00  0.00     0.202 C 
HETATM   12  O   UNL     1      42.529 -12.401   1.067  1.00  0.00    -0.286 OA
BRANCH  11  13
HETATM   13  C   UNL     1      40.587 -13.431   0.142  1.00  0.00     0.121 C 
HETATM   14  C   UNL     1      40.523 -14.675  -0.659  1.00  0.00     0.266 C 
HETATM   15  N   UNL     1      39.457 -14.812  -1.488  1.00  0.00    -0.274 N 
HETATM   16  O   UNL     1      41.385 -15.545  -0.600  1.00  0.00    -0.267 OA
HETATM   17  C   UNL     1      38.599 -13.816  -1.830  1.00  0.00     0.330 C 
HETATM   18  H   UNL     1      39.411 -15.649  -2.051  1.00  0.00     0.173 HD
HETATM   19  N   UNL     1      38.742 -12.627  -1.130  1.00  0.00    -0.293 N 
HETATM   20  O   UNL     1      37.776 -14.012  -2.722  1.00  0.00    -0.246 OA
HETATM   21  C   UNL     1      37.794 -11.558  -1.438  1.00  0.00     0.162 C 
HETATM   22  C   UNL     1      39.712 -12.432  -0.143  1.00  0.00     0.103 C 
BRANCH  22  23
HETATM   23  N   UNL     1      39.739 -11.213   0.529  1.00  0.00    -0.287 NA
HETATM   24  H   UNL     1      38.963 -11.126   1.203  1.00  0.00     0.125 HD
HETATM   25  H   UNL     1      40.616 -11.061   1.019  1.00  0.00     0.125 HD
ENDBRANCH  22  23
ENDBRANCH  11  13
ENDBRANCH   1  11
BRANCH   9  26
HETATM   26  C   UNL     1      42.927 -17.245   3.880  1.00  0.00    -0.007 A 
HETATM   27  C   UNL     1      43.351 -18.004   2.773  1.00  0.00     0.015 A 
HETATM   28  C   UNL     1      44.037 -19.213   2.936  1.00  0.00     0.024 A 
HETATM   29  C   UNL     1      44.304 -19.688   4.215  1.00  0.00     0.034 A 
HETATM   30 CL   UNL     1      45.138 -21.177   4.421  1.00  0.00    -0.084 Cl
HETATM   31  C   UNL     1      43.890 -18.965   5.330  1.00  0.00     0.024 A 
HETATM   32  C   UNL     1      43.206 -17.755   5.162  1.00  0.00     0.015 A 
ENDBRANCH   9  26
TORSDOF 4
ENDMDL
MODEL 9
REMARK VINA RESULT:      -8.4      1.823      2.492
REMARK  4 active torsions:
REMARK  status: ('A' for Active; 'I' for Inactive)
REMARK    1  A    between atoms: C_8  and  C_9 
REMARK    2  A    between atoms: C_9  and  C_10 
REMARK    3  A    between atoms: C_18  and  C_19 
REMARK    4  A    between atoms: C_28  and  N_29 
ROOT
HETATM    1  C   UNL     1      41.817 -14.065   0.997  1.00  0.00     0.030 A 
HETATM    2  C   UNL     1      41.281 -14.398  -0.271  1.00  0.00     0.007 A 
HETATM    3  C   UNL     1      41.386 -15.749  -0.650  1.00  0.00     0.068 A 
HETATM    4  C   UNL     1      40.890 -16.145  -1.886  1.00  0.00     0.032 A 
HETATM    5  C   UNL     1      40.283 -15.245  -2.763  1.00  0.00     0.002 A 
HETATM    6  C   UNL     1      40.160 -13.913  -2.400  1.00  0.00     0.001 A 
HETATM    7  C   UNL     1      40.651 -13.492  -1.164  1.00  0.00     0.015 A 
HETATM    8  N   UNL     1      41.942 -16.689   0.129  1.00  0.00    -0.248 NA
HETATM    9  C   UNL     1      42.434 -16.354   1.346  1.00  0.00     0.068 A 
HETATM   10  C   UNL     1      42.418 -15.043   1.796  1.00  0.00     0.049 A 
ENDROOT
BRANCH   1  11
HETATM   11  C   UNL     1      41.814 -12.661   1.487  1.00  0.00     0.202 C 
HETATM   12  O   UNL     1      42.547 -11.839   0.935  1.00  0.00    -0.286 OA
BRANCH  11  13
HETATM   13  C   UNL     1      40.970 -12.281   2.668  1.00  0.00     0.121 C 
HETATM   14  C   UNL     1      39.555 -11.873   2.506  1.00  0.00     0.266 C 
HETATM   15  N   UNL     1      38.839 -11.689   3.644  1.00  0.00    -0.274 N 
HETATM   16  O   UNL     1      39.040 -11.694   1.408  1.00  0.00    -0.267 OA
HETATM   17  C   UNL     1      39.366 -11.597   4.894  1.00  0.00     0.330 C 
HETATM   18  H   UNL     1      37.878 -11.395   3.546  1.00  0.00     0.173 HD
HETATM   19  N   UNL     1      40.717 -11.893   5.004  1.00  0.00    -0.293 N 
HETATM   20  O   UNL     1      38.642 -11.256   5.827  1.00  0.00    -0.246 OA
HETATM   21  C   UNL     1      41.296 -11.858   6.345  1.00  0.00     0.162 C 
HETATM   22  C   UNL     1      41.514 -12.246   3.912  1.00  0.00     0.103 C 
BRANCH  22  23
HETATM   23  N   UNL     1      42.850 -12.567   4.142  1.00  0.00    -0.287 NA
HETATM   24  H   UNL     1      42.967 -13.158   4.978  1.00  0.00     0.125 HD
HETATM   25  H   UNL     1      43.277 -13.035   3.348  1.00  0.00     0.125 HD
ENDBRANCH  22  23
ENDBRANCH  11  13
ENDBRANCH   1  11
BRANCH   9  26
HETATM   26  C   UNL     1      42.969 -17.474   2.145  1.00  0.00    -0.007 A 
HETATM   27  C   UNL     1      42.935 -17.433   3.553  1.00  0.00     0.015 A 
HETATM   28  C   UNL     1      43.457 -18.475   4.327  1.00  0.00     0.024 A 
HETATM   29  C   UNL     1      44.032 -19.576   3.704  1.00  0.00     0.034 A 
HETATM   30 CL   UNL     1      44.683 -20.855   4.650  1.00  0.00    -0.084 Cl
HETATM   31  C   UNL     1      44.089 -19.644   2.315  1.00  0.00     0.024 A 
HETATM   32  C   UNL     1      43.563 -18.600   1.544  1.00  0.00     0.015 A 
ENDBRANCH   9  26
TORSDOF 4
ENDMDL
MODEL 10
REMARK VINA RESULT:      -8.3      3.447      5.465
REMARK  4 active torsions:
REMARK  status: ('A' for Active; 'I' for Inactive)
REMARK    1  A    between atoms: C_8  and  C_9 
REMARK    2  A    between atoms: C_9  and  C_10 
REMARK    3  A    between atoms: C_18  and  C_19 
REMARK    4  A    between atoms: C_28  and  N_29 
ROOT
HETATM    1  C   UNL     1      41.265 -11.584   6.199  1.00  0.00     0.030 A 
HETATM    2  C   UNL     1      40.299 -11.485   5.169  1.00  0.00     0.007 A 
HETATM    3  C   UNL     1      40.237 -12.569   4.273  1.00  0.00     0.068 A 
HETATM    4  C   UNL     1      39.320 -12.534   3.231  1.00  0.00     0.032 A 
HETATM    5  C   UNL     1      38.450 -11.459   3.046  1.00  0.00     0.002 A 
HETATM    6  C   UNL     1      38.488 -10.389   3.926  1.00  0.00     0.001 A 
HETATM    7  C   UNL     1      39.401 -10.401   4.980  1.00  0.00     0.015 A 
HETATM    8  N   UNL     1      41.025 -13.651   4.376  1.00  0.00    -0.248 NA
HETATM    9  C   UNL     1      41.930 -13.735   5.380  1.00  0.00     0.068 A 
HETATM   10  C   UNL     1      42.100 -12.703   6.288  1.00  0.00     0.049 A 
ENDROOT
BRANCH   1  11
HETATM   11  C   UNL     1      41.462 -10.480   7.175  1.00  0.00     0.202 C 
HETATM   12  O   UNL     1      41.917  -9.408   6.773  1.00  0.00    -0.286 OA
BRANCH  11  13
HETATM   13  C   UNL     1      41.159 -10.700   8.629  1.00  0.00     0.121 C 
HETATM   14  C   UNL     1      39.765 -10.793   9.121  1.00  0.00     0.266 C 
HETATM   15  N   UNL     1      39.600 -11.136  10.424  1.00  0.00    -0.274 N 
HETATM   16  O   UNL     1      38.795 -10.565   8.408  1.00  0.00    -0.267 OA
HETATM   17  C   UNL     1      40.586 -11.149  11.360  1.00  0.00     0.330 C 
HETATM   18  H   UNL     1      38.655 -11.188  10.775  1.00  0.00     0.173 HD
HETATM   19  N   UNL     1      41.875 -10.965  10.884  1.00  0.00    -0.293 N 
HETATM   20  O   UNL     1      40.288 -11.306  12.542  1.00  0.00    -0.246 OA
HETATM   21  C   UNL     1      42.958 -11.031  11.862  1.00  0.00     0.162 C 
HETATM   22  C   UNL     1      42.170 -10.757   9.534  1.00  0.00     0.103 C 
BRANCH  22  23
HETATM   23  N   UNL     1      43.505 -10.627   9.159  1.00  0.00    -0.287 NA
HETATM   24  H   UNL     1      43.628  -9.945   8.396  1.00  0.00     0.125 HD
HETATM   25  H   UNL     1      44.100 -10.358   9.936  1.00  0.00     0.125 HD
ENDBRANCH  22  23
ENDBRANCH  11  13
ENDBRANCH   1  11
BRANCH   9  26
HETATM   26  C   UNL     1      42.702 -14.992   5.435  1.00  0.00    -0.007 A 
HETATM   27  C   UNL     1      42.591 -15.950   4.408  1.00  0.00     0.015 A 
HETATM   28  C   UNL     1      43.297 -17.156   4.454  1.00  0.00     0.024 A 
HETATM   29  C   UNL     1      44.125 -17.430   5.537  1.00  0.00     0.034 A 
HETATM   30 CL   UNL     1      44.989 -18.915   5.603  1.00  0.00    -0.084 Cl
HETATM   31  C   UNL     1      44.251 -16.508   6.572  1.00  0.00     0.024 A 
HETATM   32  C   UNL     1      43.543 -15.301   6.521  1.00  0.00     0.015 A 
ENDBRANCH   9  26
TORSDOF 4
ENDMDL
