MODEL 1
REMARK VINA RESULT:      -9.3      0.000      0.000
REMARK  7 active torsions:
REMARK  status: ('A' for Active; 'I' for Inactive)
REMARK    1  A    between atoms: C_2  and  O_3 
REMARK    2  A    between atoms: O_3  and  C_4 
REMARK    3  A    between atoms: C_4  and  C_5 
REMARK    4  A    between atoms: C_6  and  C_7 
REMARK    5  A    between atoms: C_18  and  S_19 
REMARK    6  A    between atoms: S_19  and  C_20 
REMARK    7  A    between atoms: C_20  and  C_21 
ROOT
HETATM    1  C   UNL     1      40.903 -12.601   4.717  1.00  0.00     0.070 A 
HETATM    2  C   UNL     1      41.940 -13.627   4.269  1.00  0.00     0.203 A 
HETATM    3  N   UNL     1      41.436 -14.452   3.163  1.00  0.00    -0.082 N 
HETATM    4  C   UNL     1      40.198 -14.311   2.601  1.00  0.00     0.726 A 
HETATM    5  N   UNL     1      39.366 -13.364   3.068  1.00  0.00    -0.192 N 
HETATM    6  N   UNL     1      42.155 -15.398   2.530  1.00  0.00    -0.128 NA
HETATM    7  C   UNL     1      41.257 -15.850   1.647  1.00  0.00     0.226 A 
HETATM    8  N   UNL     1      40.052 -15.191   1.643  1.00  0.00    -0.035 NA
HETATM    9  C   UNL     1      39.691 -12.506   4.114  1.00  0.00     0.037 A 
HETATM   10  C   UNL     1      38.633 -11.490   4.473  1.00  0.00     0.070 C 
HETATM   11  H   UNL     1      38.445 -13.269   2.649  1.00  0.00     0.184 HD
ENDROOT
BRANCH   7  12
HETATM   12  S   UNL     1      41.629 -17.198   0.613  1.00  0.00    -0.083 SA
BRANCH  12  13
HETATM   13  C   UNL     1      43.414 -17.344   0.894  1.00  0.00     0.121 C 
BRANCH  13  14
HETATM   14  C   UNL     1      43.723 -18.288   2.034  1.00  0.00    -0.048 A 
HETATM   15  C   UNL     1      43.860 -19.667   1.805  1.00  0.00     0.020 A 
HETATM   16  C   UNL     1      44.173 -20.552   2.849  1.00  0.00    -0.025 A 
HETATM   17  C   UNL     1      44.340 -20.047   4.158  1.00  0.00    -0.026 A 
HETATM   18  C   UNL     1      44.331 -21.929   2.621  1.00  0.00     0.012 A 
HETATM   19  C   UNL     1      44.195 -18.670   4.385  1.00  0.00     0.013 A 
HETATM   20  C   UNL     1      44.657 -20.932   5.202  1.00  0.00     0.012 A 
HETATM   21  C   UNL     1      43.894 -17.799   3.334  1.00  0.00     0.009 A 
HETATM   22  C   UNL     1      44.810 -22.297   4.957  1.00  0.00     0.001 A 
HETATM   23  C   UNL     1      44.648 -22.796   3.668  1.00  0.00     0.001 A 
ENDBRANCH  13  14
ENDBRANCH  12  13
ENDBRANCH   7  12
BRANCH   2  24
HETATM   24  C   UNL     1      42.447 -14.530   5.394  1.00  0.00    -0.028 A 
HETATM   25  C   UNL     1      43.687 -14.312   6.019  1.00  0.00     0.012 A 
HETATM   26  C   UNL     1      44.121 -15.159   7.042  1.00  0.00     0.043 A 
HETATM   27  C   UNL     1      43.317 -16.216   7.449  1.00  0.00     0.116 A 
HETATM   28  F   UNL     1      43.736 -17.026   8.430  1.00  0.00    -0.206 F 
HETATM   29  C   UNL     1      42.082 -16.443   6.856  1.00  0.00     0.043 A 
HETATM   30  C   UNL     1      41.645 -15.602   5.833  1.00  0.00     0.012 A 
ENDBRANCH   2  24
BRANCH   1  31
HETATM   31  C   UNL     1      41.256 -11.757   5.881  1.00  0.00     0.293 C 
HETATM   32  O   UNL     1      42.110 -10.885   5.861  1.00  0.00    -0.259 OA
BRANCH  31  33
HETATM   33  O   UNL     1      40.471 -12.078   6.938  1.00  0.00    -0.318 OA
BRANCH  33  34
HETATM   34  C   UNL     1      40.346 -11.060   7.944  1.00  0.00     0.174 C 
HETATM   35  C   UNL     1      39.190 -11.370   8.879  1.00  0.00     0.034 C 
ENDBRANCH  33  34
ENDBRANCH  31  33
ENDBRANCH   1  31
TORSDOF 7
ENDMDL
MODEL 2
REMARK VINA RESULT:      -9.2      4.317      6.270
REMARK  7 active torsions:
REMARK  status: ('A' for Active; 'I' for Inactive)
REMARK    1  A    between atoms: C_2  and  O_3 
REMARK    2  A    between atoms: O_3  and  C_4 
REMARK    3  A    between atoms: C_4  and  C_5 
REMARK    4  A    between atoms: C_6  and  C_7 
REMARK    5  A    between atoms: C_18  and  S_19 
REMARK    6  A    between atoms: S_19  and  C_20 
REMARK    7  A    between atoms: C_20  and  C_21 
ROOT
HETATM    1  C   UNL     1      39.539 -13.725  -0.095  1.00  0.00     0.070 A 
HETATM    2  C   UNL     1      41.037 -13.701   0.196  1.00  0.00     0.203 A 
HETATM    3  N   UNL     1      41.312 -13.957   1.616  1.00  0.00    -0.082 N 
HETATM    4  C   UNL     1      40.348 -14.196   2.556  1.00  0.00     0.726 A 
HETATM    5  N   UNL     1      39.055 -14.205   2.185  1.00  0.00    -0.192 N 
HETATM    6  N   UNL     1      42.546 -14.053   2.148  1.00  0.00    -0.128 NA
HETATM    7  C   UNL     1      42.250 -14.266   3.435  1.00  0.00     0.226 A 
HETATM    8  N   UNL     1      40.912 -14.385   3.721  1.00  0.00    -0.035 NA
HETATM    9  C   UNL     1      38.629 -13.974   0.881  1.00  0.00     0.037 A 
HETATM   10  C   UNL     1      37.138 -14.057   0.660  1.00  0.00     0.070 C 
HETATM   11  H   UNL     1      38.344 -14.377   2.890  1.00  0.00     0.184 HD
ENDROOT
BRANCH   7  12
HETATM   12  S   UNL     1      43.509 -14.355   4.632  1.00  0.00    -0.083 SA
BRANCH  12  13
HETATM   13  C   UNL     1      42.885 -15.708   5.664  1.00  0.00     0.121 C 
BRANCH  13  14
HETATM   14  C   UNL     1      43.415 -17.048   5.205  1.00  0.00    -0.048 A 
HETATM   15  C   UNL     1      42.983 -17.612   3.994  1.00  0.00     0.020 A 
HETATM   16  C   UNL     1      43.486 -18.842   3.541  1.00  0.00    -0.025 A 
HETATM   17  C   UNL     1      44.436 -19.533   4.327  1.00  0.00    -0.026 A 
HETATM   18  C   UNL     1      43.072 -19.400   2.320  1.00  0.00     0.012 A 
HETATM   19  C   UNL     1      44.859 -18.970   5.541  1.00  0.00     0.013 A 
HETATM   20  C   UNL     1      44.942 -20.762   3.873  1.00  0.00     0.012 A 
HETATM   21  C   UNL     1      44.358 -17.740   5.973  1.00  0.00     0.009 A 
HETATM   22  C   UNL     1      44.519 -21.301   2.657  1.00  0.00     0.001 A 
HETATM   23  C   UNL     1      43.586 -20.621   1.881  1.00  0.00     0.001 A 
ENDBRANCH  13  14
ENDBRANCH  12  13
ENDBRANCH   7  12
BRANCH   2  24
HETATM   24  C   UNL     1      41.734 -12.411  -0.238  1.00  0.00    -0.028 A 
HETATM   25  C   UNL     1      42.573 -12.364  -1.365  1.00  0.00     0.012 A 
HETATM   26  C   UNL     1      43.196 -11.169  -1.731  1.00  0.00     0.043 A 
HETATM   27  C   UNL     1      42.977 -10.019  -0.982  1.00  0.00     0.116 A 
HETATM   28  F   UNL     1      43.577  -8.875  -1.336  1.00  0.00    -0.206 F 
HETATM   29  C   UNL     1      42.142 -10.038   0.127  1.00  0.00     0.043 A 
HETATM   30  C   UNL     1      41.519 -11.230   0.498  1.00  0.00     0.012 A 
ENDBRANCH   2  24
BRANCH   1  31
HETATM   31  C   UNL     1      39.120 -13.402  -1.478  1.00  0.00     0.293 C 
HETATM   32  O   UNL     1      38.861 -12.276  -1.869  1.00  0.00    -0.259 OA
BRANCH  31  33
HETATM   33  O   UNL     1      39.104 -14.530  -2.230  1.00  0.00    -0.318 OA
BRANCH  33  34
HETATM   34  C   UNL     1      40.028 -14.549  -3.331  1.00  0.00     0.174 C 
HETATM   35  C   UNL     1      41.174 -15.504  -3.050  1.00  0.00     0.034 C 
ENDBRANCH  33  34
ENDBRANCH  31  33
ENDBRANCH   1  31
TORSDOF 7
ENDMDL
MODEL 3
REMARK VINA RESULT:      -9.2      4.293      6.542
REMARK  7 active torsions:
REMARK  status: ('A' for Active; 'I' for Inactive)
REMARK    1  A    between atoms: C_2  and  O_3 
REMARK    2  A    between atoms: O_3  and  C_4 
REMARK    3  A    between atoms: C_4  and  C_5 
REMARK    4  A    between atoms: C_6  and  C_7 
REMARK    5  A    between atoms: C_18  and  S_19 
REMARK    6  A    between atoms: S_19  and  C_20 
REMARK    7  A    between atoms: C_20  and  C_21 
ROOT
HETATM    1  C   UNL     1      40.664 -13.717  -1.541  1.00  0.00     0.070 A 
HETATM    2  C   UNL     1      40.672 -13.262  -0.084  1.00  0.00     0.203 A 
HETATM    3  N   UNL     1      40.982 -14.374   0.824  1.00  0.00    -0.082 N 
HETATM    4  C   UNL     1      41.241 -15.653   0.414  1.00  0.00     0.726 A 
HETATM    5  N   UNL     1      41.218 -15.941  -0.899  1.00  0.00    -0.192 N 
HETATM    6  N   UNL     1      41.115 -14.253   2.158  1.00  0.00    -0.128 NA
HETATM    7  C   UNL     1      41.369 -15.521   2.503  1.00  0.00     0.226 A 
HETATM    8  N   UNL     1      41.480 -16.405   1.458  1.00  0.00    -0.035 NA
HETATM    9  C   UNL     1      40.935 -15.002  -1.886  1.00  0.00     0.037 A 
HETATM   10  C   UNL     1      40.988 -15.514  -3.305  1.00  0.00     0.070 C 
HETATM   11  H   UNL     1      41.405 -16.894  -1.196  1.00  0.00     0.184 HD
ENDROOT
BRANCH   7  12
HETATM   12  S   UNL     1      41.519 -15.973   4.176  1.00  0.00    -0.083 SA
BRANCH  12  13
HETATM   13  C   UNL     1      43.315 -16.196   4.295  1.00  0.00     0.121 C 
BRANCH  13  14
HETATM   14  C   UNL     1      43.691 -17.660   4.341  1.00  0.00    -0.048 A 
HETATM   15  C   UNL     1      43.579 -18.464   3.194  1.00  0.00     0.020 A 
HETATM   16  C   UNL     1      43.951 -19.818   3.214  1.00  0.00    -0.025 A 
HETATM   17  C   UNL     1      44.435 -20.386   4.414  1.00  0.00    -0.026 A 
HETATM   18  C   UNL     1      43.860 -20.620   2.065  1.00  0.00     0.012 A 
HETATM   19  C   UNL     1      44.538 -19.582   5.559  1.00  0.00     0.013 A 
HETATM   20  C   UNL     1      44.810 -21.739   4.433  1.00  0.00     0.012 A 
HETATM   21  C   UNL     1      44.175 -18.233   5.522  1.00  0.00     0.009 A 
HETATM   22  C   UNL     1      44.712 -22.522   3.281  1.00  0.00     0.001 A 
HETATM   23  C   UNL     1      44.239 -21.963   2.098  1.00  0.00     0.001 A 
ENDBRANCH  13  14
ENDBRANCH  12  13
ENDBRANCH   7  12
BRANCH   2  24
HETATM   24  C   UNL     1      39.377 -12.581   0.361  1.00  0.00    -0.028 A 
HETATM   25  C   UNL     1      38.136 -13.239   0.303  1.00  0.00     0.012 A 
HETATM   26  C   UNL     1      36.972 -12.585   0.714  1.00  0.00     0.043 A 
HETATM   27  C   UNL     1      37.044 -11.283   1.193  1.00  0.00     0.116 A 
HETATM   28  F   UNL     1      35.926 -10.659   1.585  1.00  0.00    -0.206 F 
HETATM   29  C   UNL     1      38.261 -10.618   1.272  1.00  0.00     0.043 A 
HETATM   30  C   UNL     1      39.426 -11.265   0.860  1.00  0.00     0.012 A 
ENDBRANCH   2  24
BRANCH   1  31
HETATM   31  C   UNL     1      40.286 -12.708  -2.556  1.00  0.00     0.293 C 
HETATM   32  O   UNL     1      39.262 -12.753  -3.219  1.00  0.00    -0.259 OA
BRANCH  31  33
HETATM   33  O   UNL     1      41.224 -11.730  -2.605  1.00  0.00    -0.318 OA
BRANCH  33  34
HETATM   34  C   UNL     1      42.356 -12.006  -3.446  1.00  0.00     0.174 C 
HETATM   35  C   UNL     1      42.329 -11.129  -4.685  1.00  0.00     0.034 C 
ENDBRANCH  33  34
ENDBRANCH  31  33
ENDBRANCH   1  31
TORSDOF 7
ENDMDL
MODEL 4
REMARK VINA RESULT:      -9.1      5.080      7.097
REMARK  7 active torsions:
REMARK  status: ('A' for Active; 'I' for Inactive)
REMARK    1  A    between atoms: C_2  and  O_3 
REMARK    2  A    between atoms: O_3  and  C_4 
REMARK    3  A    between atoms: C_4  and  C_5 
REMARK    4  A    between atoms: C_6  and  C_7 
REMARK    5  A    between atoms: C_18  and  S_19 
REMARK    6  A    between atoms: S_19  and  C_20 
REMARK    7  A    between atoms: C_20  and  C_21 
ROOT
HETATM    1  C   UNL     1      40.768 -11.652  -1.402  1.00  0.00     0.070 A 
HETATM    2  C   UNL     1      39.960 -12.836  -0.878  1.00  0.00     0.203 A 
HETATM    3  N   UNL     1      40.627 -13.477   0.263  1.00  0.00    -0.082 N 
HETATM    4  C   UNL     1      41.815 -13.059   0.794  1.00  0.00     0.726 A 
HETATM    5  N   UNL     1      42.437 -11.994   0.259  1.00  0.00    -0.192 N 
HETATM    6  N   UNL     1      40.116 -14.508   0.962  1.00  0.00    -0.128 NA
HETATM    7  C   UNL     1      41.093 -14.719   1.852  1.00  0.00     0.226 A 
HETATM    8  N   UNL     1      42.142 -13.834   1.797  1.00  0.00    -0.035 NA
HETATM    9  C   UNL     1      41.940 -11.281  -0.827  1.00  0.00     0.037 A 
HETATM   10  C   UNL     1      42.770 -10.097  -1.263  1.00  0.00     0.070 C 
HETATM   11  H   UNL     1      43.323 -11.692   0.655  1.00  0.00     0.184 HD
ENDROOT
BRANCH   7  12
HETATM   12  S   UNL     1      41.006 -16.051   2.967  1.00  0.00    -0.083 SA
BRANCH  12  13
HETATM   13  C   UNL     1      42.701 -16.052   3.610  1.00  0.00     0.121 C 
BRANCH  13  14
HETATM   14  C   UNL     1      43.240 -17.457   3.755  1.00  0.00    -0.048 A 
HETATM   15  C   UNL     1      43.103 -18.388   2.712  1.00  0.00     0.020 A 
HETATM   16  C   UNL     1      43.623 -19.688   2.822  1.00  0.00    -0.025 A 
HETATM   17  C   UNL     1      44.284 -20.071   4.010  1.00  0.00    -0.026 A 
HETATM   18  C   UNL     1      43.505 -20.615   1.774  1.00  0.00     0.012 A 
HETATM   19  C   UNL     1      44.413 -19.141   5.053  1.00  0.00     0.013 A 
HETATM   20  C   UNL     1      44.807 -21.370   4.119  1.00  0.00     0.012 A 
HETATM   21  C   UNL     1      43.901 -17.847   4.926  1.00  0.00     0.009 A 
HETATM   22  C   UNL     1      44.682 -22.279   3.067  1.00  0.00     0.001 A 
HETATM   23  C   UNL     1      44.032 -21.902   1.895  1.00  0.00     0.001 A 
ENDBRANCH  13  14
ENDBRANCH  12  13
ENDBRANCH   7  12
BRANCH   2  24
HETATM   24  C   UNL     1      39.637 -13.887  -1.941  1.00  0.00    -0.028 A 
HETATM   25  C   UNL     1      38.335 -14.060  -2.441  1.00  0.00     0.012 A 
HETATM   26  C   UNL     1      38.075 -15.032  -3.410  1.00  0.00     0.043 A 
HETATM   27  C   UNL     1      39.111 -15.824  -3.888  1.00  0.00     0.116 A 
HETATM   28  F   UNL     1      38.858 -16.756  -4.816  1.00  0.00    -0.206 F 
HETATM   29  C   UNL     1      40.408 -15.663  -3.418  1.00  0.00     0.043 A 
HETATM   30  C   UNL     1      40.673 -14.695  -2.449  1.00  0.00     0.012 A 
ENDBRANCH   2  24
BRANCH   1  31
HETATM   31  C   UNL     1      40.245 -10.965  -2.605  1.00  0.00     0.293 C 
HETATM   32  O   UNL     1      39.372 -10.112  -2.582  1.00  0.00    -0.259 OA
BRANCH  31  33
HETATM   33  O   UNL     1      40.901 -11.403  -3.707  1.00  0.00    -0.318 OA
BRANCH  33  34
HETATM   34  C   UNL     1      41.018 -10.448  -4.774  1.00  0.00     0.174 C 
HETATM   35  C   UNL     1      42.474 -10.090  -5.014  1.00  0.00     0.034 C 
ENDBRANCH  33  34
ENDBRANCH  31  33
ENDBRANCH   1  31
TORSDOF 7
ENDMDL
MODEL 5
REMARK VINA RESULT:      -9.1      3.373      5.547
REMARK  7 active torsions:
REMARK  status: ('A' for Active; 'I' for Inactive)
REMARK    1  A    between atoms: C_2  and  O_3 
REMARK    2  A    between atoms: O_3  and  C_4 
REMARK    3  A    between atoms: C_4  and  C_5 
REMARK    4  A    between atoms: C_6  and  C_7 
REMARK    5  A    between atoms: C_18  and  S_19 
REMARK    6  A    between atoms: S_19  and  C_20 
REMARK    7  A    between atoms: C_20  and  C_21 
ROOT
HETATM    1  C   UNL     1      41.401 -14.290   0.732  1.00  0.00     0.070 A 
HETATM    2  C   UNL     1      41.373 -15.111   2.018  1.00  0.00     0.203 A 
HETATM    3  N   UNL     1      41.924 -14.355   3.151  1.00  0.00    -0.082 N 
HETATM    4  C   UNL     1      42.393 -13.074   3.065  1.00  0.00     0.726 A 
HETATM    5  N   UNL     1      42.359 -12.438   1.881  1.00  0.00    -0.192 N 
HETATM    6  N   UNL     1      41.970 -14.809   4.418  1.00  0.00    -0.128 NA
HETATM    7  C   UNL     1      42.562 -13.778   5.033  1.00  0.00     0.226 A 
HETATM    8  N   UNL     1      42.814 -12.684   4.242  1.00  0.00    -0.035 NA
HETATM    9  C   UNL     1      41.875 -13.018   0.712  1.00  0.00     0.037 A 
HETATM   10  C   UNL     1      41.894 -12.130  -0.509  1.00  0.00     0.070 C 
HETATM   11  H   UNL     1      42.715 -11.488   1.823  1.00  0.00     0.184 HD
ENDROOT
BRANCH   7  12
HETATM   12  S   UNL     1      42.984 -13.874   6.718  1.00  0.00    -0.083 SA
BRANCH  12  13
HETATM   13  C   UNL     1      44.521 -14.829   6.617  1.00  0.00     0.121 C 
BRANCH  13  14
HETATM   14  C   UNL     1      44.266 -16.311   6.768  1.00  0.00    -0.048 A 
HETATM   15  C   UNL     1      44.679 -17.214   5.773  1.00  0.00     0.020 A 
HETATM   16  C   UNL     1      44.473 -18.596   5.913  1.00  0.00    -0.025 A 
HETATM   17  C   UNL     1      43.827 -19.087   7.069  1.00  0.00    -0.026 A 
HETATM   18  C   UNL     1      44.902 -19.504   4.930  1.00  0.00     0.012 A 
HETATM   19  C   UNL     1      43.409 -18.182   8.056  1.00  0.00     0.013 A 
HETATM   20  C   UNL     1      43.624 -20.470   7.209  1.00  0.00     0.012 A 
HETATM   21  C   UNL     1      43.630 -16.810   7.910  1.00  0.00     0.009 A 
HETATM   22  C   UNL     1      44.057 -21.357   6.223  1.00  0.00     0.001 A 
HETATM   23  C   UNL     1      44.696 -20.875   5.085  1.00  0.00     0.001 A 
ENDBRANCH  13  14
ENDBRANCH  12  13
ENDBRANCH   7  12
BRANCH   2  24
HETATM   24  C   UNL     1      42.083 -16.461   1.908  1.00  0.00    -0.028 A 
HETATM   25  C   UNL     1      41.379 -17.677   1.969  1.00  0.00     0.012 A 
HETATM   26  C   UNL     1      42.060 -18.892   1.868  1.00  0.00     0.043 A 
HETATM   27  C   UNL     1      43.438 -18.898   1.697  1.00  0.00     0.116 A 
HETATM   28  F   UNL     1      44.088 -20.066   1.601  1.00  0.00    -0.206 F 
HETATM   29  C   UNL     1      44.153 -17.711   1.620  1.00  0.00     0.043 A 
HETATM   30  C   UNL     1      43.479 -16.494   1.723  1.00  0.00     0.012 A 
ENDBRANCH   2  24
BRANCH   1  31
HETATM   31  C   UNL     1      40.947 -14.965  -0.504  1.00  0.00     0.293 C 
HETATM   32  O   UNL     1      41.636 -15.728  -1.161  1.00  0.00    -0.259 OA
BRANCH  31  33
HETATM   33  O   UNL     1      39.659 -14.630  -0.765  1.00  0.00    -0.318 OA
BRANCH  33  34
HETATM   34  C   UNL     1      39.390 -14.228  -2.118  1.00  0.00     0.174 C 
HETATM   35  C   UNL     1      37.896 -14.075  -2.343  1.00  0.00     0.034 C 
ENDBRANCH  33  34
ENDBRANCH  31  33
ENDBRANCH   1  31
TORSDOF 7
ENDMDL
MODEL 6
REMARK VINA RESULT:      -8.8      4.358      9.489
REMARK  7 active torsions:
REMARK  status: ('A' for Active; 'I' for Inactive)
REMARK    1  A    between atoms: C_2  and  O_3 
REMARK    2  A    between atoms: O_3  and  C_4 
REMARK    3  A    between atoms: C_4  and  C_5 
REMARK    4  A    between atoms: C_6  and  C_7 
REMARK    5  A    between atoms: C_18  and  S_19 
REMARK    6  A    between atoms: S_19  and  C_20 
REMARK    7  A    between atoms: C_20  and  C_21 
ROOT
HETATM    1  C   UNL     1      44.280 -19.306   4.897  1.00  0.00     0.070 A 
HETATM    2  C   UNL     1      44.353 -17.863   4.404  1.00  0.00     0.203 A 
HETATM    3  N   UNL     1      43.959 -16.916   5.454  1.00  0.00    -0.082 N 
HETATM    4  C   UNL     1      43.583 -17.280   6.717  1.00  0.00     0.726 A 
HETATM    5  N   UNL     1      43.565 -18.583   7.049  1.00  0.00    -0.192 N 
HETATM    6  N   UNL     1      43.984 -15.576   5.320  1.00  0.00    -0.128 NA
HETATM    7  C   UNL     1      43.527 -15.194   6.518  1.00  0.00     0.226 A 
HETATM    8  N   UNL     1      43.293 -16.210   7.412  1.00  0.00    -0.035 NA
HETATM    9  C   UNL     1      43.905 -19.604   6.167  1.00  0.00     0.037 A 
HETATM   10  C   UNL     1      43.851 -21.001   6.737  1.00  0.00     0.070 C 
HETATM   11  H   UNL     1      43.279 -18.847   7.987  1.00  0.00     0.184 HD
ENDROOT
BRANCH   7  12
HETATM   12  S   UNL     1      43.242 -13.513   6.864  1.00  0.00    -0.083 SA
BRANCH  12  13
HETATM   13  C   UNL     1      44.725 -13.120   7.829  1.00  0.00     0.121 C 
BRANCH  13  14
HETATM   14  C   UNL     1      44.419 -12.155   8.951  1.00  0.00    -0.048 A 
HETATM   15  C   UNL     1      43.291 -11.321   8.891  1.00  0.00     0.020 A 
HETATM   16  C   UNL     1      42.979 -10.439   9.938  1.00  0.00    -0.025 A 
HETATM   17  C   UNL     1      43.824 -10.380  11.068  1.00  0.00    -0.026 A 
HETATM   18  C   UNL     1      41.841  -9.617   9.890  1.00  0.00     0.012 A 
HETATM   19  C   UNL     1      44.955 -11.209  11.122  1.00  0.00     0.013 A 
HETATM   20  C   UNL     1      43.510  -9.500  12.118  1.00  0.00     0.012 A 
HETATM   21  C   UNL     1      45.247 -12.090  10.078  1.00  0.00     0.009 A 
HETATM   22  C   UNL     1      42.375  -8.691  12.053  1.00  0.00     0.001 A 
HETATM   23  C   UNL     1      41.540  -8.750  10.941  1.00  0.00     0.001 A 
ENDBRANCH  13  14
ENDBRANCH  12  13
ENDBRANCH   7  12
BRANCH   2  24
HETATM   24  C   UNL     1      43.536 -17.597   3.139  1.00  0.00    -0.028 A 
HETATM   25  C   UNL     1      44.149 -17.379   1.892  1.00  0.00     0.012 A 
HETATM   26  C   UNL     1      43.372 -17.135   0.757  1.00  0.00     0.043 A 
HETATM   27  C   UNL     1      41.986 -17.119   0.860  1.00  0.00     0.116 A 
HETATM   28  F   UNL     1      41.245 -16.885  -0.230  1.00  0.00    -0.206 F 
HETATM   29  C   UNL     1      41.359 -17.346   2.078  1.00  0.00     0.043 A 
HETATM   30  C   UNL     1      42.130 -17.587   3.215  1.00  0.00     0.012 A 
ENDBRANCH   2  24
BRANCH   1  31
HETATM   31  C   UNL     1      44.577 -20.367   3.909  1.00  0.00     0.293 C 
HETATM   32  O   UNL     1      45.693 -20.809   3.692  1.00  0.00    -0.259 OA
BRANCH  31  33
HETATM   33  O   UNL     1      43.428 -20.783   3.321  1.00  0.00    -0.318 OA
BRANCH  33  34
HETATM   34  C   UNL     1      43.442 -20.796   1.884  1.00  0.00     0.174 C 
HETATM   35  C   UNL     1      44.045 -22.090   1.366  1.00  0.00     0.034 C 
ENDBRANCH  33  34
ENDBRANCH  31  33
ENDBRANCH   1  31
TORSDOF 7
ENDMDL
MODEL 7
REMARK VINA RESULT:      -8.7      2.035      3.171
REMARK  7 active torsions:
REMARK  status: ('A' for Active; 'I' for Inactive)
REMARK    1  A    between atoms: C_2  and  O_3 
REMARK    2  A    between atoms: O_3  and  C_4 
REMARK    3  A    between atoms: C_4  and  C_5 
REMARK    4  A    between atoms: C_6  and  C_7 
REMARK    5  A    between atoms: C_18  and  S_19 
REMARK    6  A    between atoms: S_19  and  C_20 
REMARK    7  A    between atoms: C_20  and  C_21 
ROOT
HETATM    1  C   UNL     1      40.871 -10.867   5.412  1.00  0.00     0.070 A 
HETATM    2  C   UNL     1      41.715 -11.862   4.619  1.00  0.00     0.203 A 
HETATM    3  N   UNL     1      41.318 -11.895   3.205  1.00  0.00    -0.082 N 
HETATM    4  C   UNL     1      40.326 -11.125   2.666  1.00  0.00     0.726 A 
HETATM    5  N   UNL     1      39.652 -10.271   3.457  1.00  0.00    -0.192 N 
HETATM    6  N   UNL     1      41.928 -12.636   2.261  1.00  0.00    -0.128 NA
HETATM    7  C   UNL     1      41.194 -12.329   1.185  1.00  0.00     0.226 A 
HETATM    8  N   UNL     1      40.216 -11.386   1.388  1.00  0.00    -0.035 NA
HETATM    9  C   UNL     1      39.902 -10.125   4.818  1.00  0.00     0.037 A 
HETATM   10  C   UNL     1      39.058  -9.093   5.527  1.00  0.00     0.070 C 
HETATM   11  H   UNL     1      38.911  -9.706   3.051  1.00  0.00     0.184 HD
ENDROOT
BRANCH   7  12
HETATM   12  S   UNL     1      41.480 -13.116  -0.339  1.00  0.00    -0.083 SA
BRANCH  12  13
HETATM   13  C   UNL     1      40.357 -14.532  -0.193  1.00  0.00     0.121 C 
BRANCH  13  14
HETATM   14  C   UNL     1      40.881 -15.559   0.784  1.00  0.00    -0.048 A 
HETATM   15  C   UNL     1      42.102 -16.212   0.551  1.00  0.00     0.020 A 
HETATM   16  C   UNL     1      42.615 -17.149   1.463  1.00  0.00    -0.025 A 
HETATM   17  C   UNL     1      41.881 -17.449   2.632  1.00  0.00    -0.026 A 
HETATM   18  C   UNL     1      43.845 -17.789   1.243  1.00  0.00     0.012 A 
HETATM   19  C   UNL     1      40.658 -16.801   2.859  1.00  0.00     0.013 A 
HETATM   20  C   UNL     1      42.395 -18.384   3.547  1.00  0.00     0.012 A 
HETATM   21  C   UNL     1      40.165 -15.863   1.948  1.00  0.00     0.009 A 
HETATM   22  C   UNL     1      43.620 -19.010   3.312  1.00  0.00     0.001 A 
HETATM   23  C   UNL     1      44.345 -18.713   2.162  1.00  0.00     0.001 A 
ENDBRANCH  13  14
ENDBRANCH  12  13
ENDBRANCH   7  12
BRANCH   2  24
HETATM   24  C   UNL     1      41.701 -13.280   5.190  1.00  0.00    -0.028 A 
HETATM   25  C   UNL     1      40.504 -13.993   5.380  1.00  0.00     0.012 A 
HETATM   26  C   UNL     1      40.529 -15.286   5.907  1.00  0.00     0.043 A 
HETATM   27  C   UNL     1      41.744 -15.874   6.235  1.00  0.00     0.116 A 
HETATM   28  F   UNL     1      41.763 -17.114   6.741  1.00  0.00    -0.206 F 
HETATM   29  C   UNL     1      42.940 -15.195   6.044  1.00  0.00     0.043 A 
HETATM   30  C   UNL     1      42.921 -13.903   5.520  1.00  0.00     0.012 A 
ENDBRANCH   2  24
BRANCH   1  31
HETATM   31  C   UNL     1      41.115 -10.794   6.870  1.00  0.00     0.293 C 
HETATM   32  O   UNL     1      42.092 -10.265   7.375  1.00  0.00    -0.259 OA
BRANCH  31  33
HETATM   33  O   UNL     1      40.085 -11.369   7.539  1.00  0.00    -0.318 OA
BRANCH  33  34
HETATM   34  C   UNL     1      39.961 -10.989   8.920  1.00  0.00     0.174 C 
HETATM   35  C   UNL     1      38.789 -10.042   9.110  1.00  0.00     0.034 C 
ENDBRANCH  33  34
ENDBRANCH  31  33
ENDBRANCH   1  31
TORSDOF 7
ENDMDL
MODEL 8
REMARK VINA RESULT:      -8.7      4.156      6.019
REMARK  7 active torsions:
REMARK  status: ('A' for Active; 'I' for Inactive)
REMARK    1  A    between atoms: C_2  and  O_3 
REMARK    2  A    between atoms: O_3  and  C_4 
REMARK    3  A    between atoms: C_4  and  C_5 
REMARK    4  A    between atoms: C_6  and  C_7 
REMARK    5  A    between atoms: C_18  and  S_19 
REMARK    6  A    between atoms: S_19  and  C_20 
REMARK    7  A    between atoms: C_20  and  C_21 
ROOT
HETATM    1  C   UNL     1      40.521  -9.329  10.610  1.00  0.00     0.070 A 
HETATM    2  C   UNL     1      41.470  -9.840   9.529  1.00  0.00     0.203 A 
HETATM    3  N   UNL     1      40.769 -10.684   8.554  1.00  0.00    -0.082 N 
HETATM    4  C   UNL     1      39.433 -10.969   8.603  1.00  0.00     0.726 A 
HETATM    5  N   UNL     1      38.686 -10.455   9.596  1.00  0.00    -0.192 N 
HETATM    6  N   UNL     1      41.343 -11.222   7.461  1.00  0.00    -0.128 NA
HETATM    7  C   UNL     1      40.311 -11.894   6.938  1.00  0.00     0.226 A 
HETATM    8  N   UNL     1      39.115 -11.743   7.596  1.00  0.00    -0.035 NA
HETATM    9  C   UNL     1      39.200  -9.643  10.601  1.00  0.00     0.037 A 
HETATM   10  C   UNL     1      38.194  -9.141  11.610  1.00  0.00     0.070 C 
HETATM   11  H   UNL     1      37.694 -10.676   9.629  1.00  0.00     0.184 HD
ENDROOT
BRANCH   7  12
HETATM   12  S   UNL     1      40.524 -12.897   5.533  1.00  0.00    -0.083 SA
BRANCH  12  13
HETATM   13  C   UNL     1      42.255 -13.392   5.744  1.00  0.00     0.121 C 
BRANCH  13  14
HETATM   14  C   UNL     1      42.499 -14.794   5.233  1.00  0.00    -0.048 A 
HETATM   15  C   UNL     1      42.981 -15.008   3.931  1.00  0.00     0.020 A 
HETATM   16  C   UNL     1      43.237 -16.303   3.451  1.00  0.00    -0.025 A 
HETATM   17  C   UNL     1      42.994 -17.412   4.291  1.00  0.00    -0.026 A 
HETATM   18  C   UNL     1      43.738 -16.519   2.157  1.00  0.00     0.012 A 
HETATM   19  C   UNL     1      42.505 -17.196   5.588  1.00  0.00     0.013 A 
HETATM   20  C   UNL     1      43.254 -18.707   3.812  1.00  0.00     0.012 A 
HETATM   21  C   UNL     1      42.265 -15.901   6.056  1.00  0.00     0.009 A 
HETATM   22  C   UNL     1      43.751 -18.904   2.524  1.00  0.00     0.001 A 
HETATM   23  C   UNL     1      43.994 -17.812   1.697  1.00  0.00     0.001 A 
ENDBRANCH  13  14
ENDBRANCH  12  13
ENDBRANCH   7  12
BRANCH   2  24
HETATM   24  C   UNL     1      42.688 -10.587  10.075  1.00  0.00    -0.028 A 
HETATM   25  C   UNL     1      42.579 -11.513  11.127  1.00  0.00     0.012 A 
HETATM   26  C   UNL     1      43.713 -12.175  11.604  1.00  0.00     0.043 A 
HETATM   27  C   UNL     1      44.952 -11.924  11.027  1.00  0.00     0.116 A 
HETATM   28  F   UNL     1      46.037 -12.560  11.487  1.00  0.00    -0.206 F 
HETATM   29  C   UNL     1      45.081 -11.024   9.977  1.00  0.00     0.043 A 
HETATM   30  C   UNL     1      43.952 -10.358   9.500  1.00  0.00     0.012 A 
ENDBRANCH   2  24
BRANCH   1  31
HETATM   31  C   UNL     1      41.117  -8.530  11.703  1.00  0.00     0.293 C 
HETATM   32  O   UNL     1      41.547  -7.395  11.567  1.00  0.00    -0.259 OA
BRANCH  31  33
HETATM   33  O   UNL     1      41.082  -9.233  12.862  1.00  0.00    -0.318 OA
BRANCH  33  34
HETATM   34  C   UNL     1      41.872  -8.693  13.934  1.00  0.00     0.174 C 
HETATM   35  C   UNL     1      43.266  -9.294  13.926  1.00  0.00     0.034 C 
ENDBRANCH  33  34
ENDBRANCH  31  33
ENDBRANCH   1  31
TORSDOF 7
ENDMDL
MODEL 9
REMARK VINA RESULT:      -8.6      3.682      5.364
REMARK  7 active torsions:
REMARK  status: ('A' for Active; 'I' for Inactive)
REMARK    1  A    between atoms: C_2  and  O_3 
REMARK    2  A    between atoms: O_3  and  C_4 
REMARK    3  A    between atoms: C_4  and  C_5 
REMARK    4  A    between atoms: C_6  and  C_7 
REMARK    5  A    between atoms: C_18  and  S_19 
REMARK    6  A    between atoms: S_19  and  C_20 
REMARK    7  A    between atoms: C_20  and  C_21 
ROOT
HETATM    1  C   UNL     1      38.256 -11.740   1.796  1.00  0.00     0.070 A 
HETATM    2  C   UNL     1      38.990 -13.075   1.697  1.00  0.00     0.203 A 
HETATM    3  N   UNL     1      39.585 -13.457   2.984  1.00  0.00    -0.082 N 
HETATM    4  C   UNL     1      39.486 -12.716   4.128  1.00  0.00     0.726 A 
HETATM    5  N   UNL     1      38.804 -11.557   4.105  1.00  0.00    -0.192 N 
HETATM    6  N   UNL     1      40.241 -14.612   3.206  1.00  0.00    -0.128 NA
HETATM    7  C   UNL     1      40.587 -14.463   4.490  1.00  0.00     0.226 A 
HETATM    8  N   UNL     1      40.121 -13.324   5.098  1.00  0.00    -0.035 NA
HETATM    9  C   UNL     1      38.187 -11.053   2.965  1.00  0.00     0.037 A 
HETATM   10  C   UNL     1      37.444  -9.751   3.149  1.00  0.00     0.070 C 
HETATM   11  H   UNL     1      38.739 -11.008   4.958  1.00  0.00     0.184 HD
ENDROOT
BRANCH   7  12
HETATM   12  S   UNL     1      41.581 -15.649   5.285  1.00  0.00    -0.083 SA
BRANCH  12  13
HETATM   13  C   UNL     1      42.847 -15.918   4.015  1.00  0.00     0.121 C 
BRANCH  13  14
HETATM   14  C   UNL     1      43.344 -17.346   4.020  1.00  0.00    -0.048 A 
HETATM   15  C   UNL     1      43.095 -18.194   2.928  1.00  0.00     0.020 A 
HETATM   16  C   UNL     1      43.573 -19.515   2.906  1.00  0.00    -0.025 A 
HETATM   17  C   UNL     1      44.308 -20.003   4.009  1.00  0.00    -0.026 A 
HETATM   18  C   UNL     1      43.344 -20.359   1.807  1.00  0.00     0.012 A 
HETATM   19  C   UNL     1      44.547 -19.156   5.102  1.00  0.00     0.013 A 
HETATM   20  C   UNL     1      44.789 -21.323   3.986  1.00  0.00     0.012 A 
HETATM   21  C   UNL     1      44.075 -17.841   5.105  1.00  0.00     0.009 A 
HETATM   22  C   UNL     1      44.552 -22.148   2.886  1.00  0.00     0.001 A 
HETATM   23  C   UNL     1      43.831 -21.667   1.797  1.00  0.00     0.001 A 
ENDBRANCH  13  14
ENDBRANCH  12  13
ENDBRANCH   7  12
BRANCH   2  24
HETATM   24  C   UNL     1      40.058 -13.116   0.604  1.00  0.00    -0.028 A 
HETATM   25  C   UNL     1      39.968 -13.998  -0.488  1.00  0.00     0.012 A 
HETATM   26  C   UNL     1      40.964 -14.011  -1.467  1.00  0.00     0.043 A 
HETATM   27  C   UNL     1      42.043 -13.142  -1.365  1.00  0.00     0.116 A 
HETATM   28  F   UNL     1      42.997 -13.158  -2.306  1.00  0.00    -0.206 F 
HETATM   29  C   UNL     1      42.146 -12.253  -0.303  1.00  0.00     0.043 A 
HETATM   30  C   UNL     1      41.156 -12.238   0.679  1.00  0.00     0.012 A 
ENDBRANCH   2  24
BRANCH   1  31
HETATM   31  C   UNL     1      37.676 -11.200   0.546  1.00  0.00     0.293 C 
HETATM   32  O   UNL     1      38.182 -10.306  -0.113  1.00  0.00    -0.259 OA
BRANCH  31  33
HETATM   33  O   UNL     1      36.535 -11.865   0.242  1.00  0.00    -0.318 OA
BRANCH  33  34
HETATM   34  C   UNL     1      35.428 -11.038  -0.156  1.00  0.00     0.174 C 
HETATM   35  C   UNL     1      34.616 -10.612   1.054  1.00  0.00     0.034 C 
ENDBRANCH  33  34
ENDBRANCH  31  33
ENDBRANCH   1  31
TORSDOF 7
ENDMDL
MODEL 10
REMARK VINA RESULT:      -8.6      4.595      7.750
REMARK  7 active torsions:
REMARK  status: ('A' for Active; 'I' for Inactive)
REMARK    1  A    between atoms: C_2  and  O_3 
REMARK    2  A    between atoms: O_3  and  C_4 
REMARK    3  A    between atoms: C_4  and  C_5 
REMARK    4  A    between atoms: C_6  and  C_7 
REMARK    5  A    between atoms: C_18  and  S_19 
REMARK    6  A    between atoms: S_19  and  C_20 
REMARK    7  A    between atoms: C_20  and  C_21 
ROOT
HETATM    1  C   UNL     1      41.606 -14.639   3.498  1.00  0.00     0.070 A 
HETATM    2  C   UNL     1      42.175 -14.995   2.127  1.00  0.00     0.203 A 
HETATM    3  N   UNL     1      41.230 -14.666   1.052  1.00  0.00    -0.082 N 
HETATM    4  C   UNL     1      40.001 -14.104   1.253  1.00  0.00     0.726 A 
HETATM    5  N   UNL     1      39.604 -13.820   2.506  1.00  0.00    -0.192 N 
HETATM    6  N   UNL     1      41.488 -14.818  -0.261  1.00  0.00    -0.128 NA
HETATM    7  C   UNL     1      40.333 -14.406  -0.795  1.00  0.00     0.226 A 
HETATM    8  N   UNL     1      39.404 -13.936   0.100  1.00  0.00    -0.035 NA
HETATM    9  C   UNL     1      40.379 -14.075   3.633  1.00  0.00     0.037 A 
HETATM   10  C   UNL     1      39.769 -13.657   4.949  1.00  0.00     0.070 C 
HETATM   11  H   UNL     1      38.686 -13.407   2.649  1.00  0.00     0.184 HD
ENDROOT
BRANCH   7  12
HETATM   12  S   UNL     1      40.064 -14.500  -2.511  1.00  0.00    -0.083 SA
BRANCH  12  13
HETATM   13  C   UNL     1      41.709 -14.050  -3.126  1.00  0.00     0.121 C 
BRANCH  13  14
HETATM   14  C   UNL     1      41.921 -12.553  -3.104  1.00  0.00    -0.048 A 
HETATM   15  C   UNL     1      42.736 -11.959  -2.127  1.00  0.00     0.020 A 
HETATM   16  C   UNL     1      42.963 -10.573  -2.111  1.00  0.00    -0.025 A 
HETATM   17  C   UNL     1      42.349  -9.759  -3.088  1.00  0.00    -0.026 A 
HETATM   18  C   UNL     1      43.794  -9.978  -1.147  1.00  0.00     0.012 A 
HETATM   19  C   UNL     1      41.529 -10.355  -4.058  1.00  0.00     0.013 A 
HETATM   20  C   UNL     1      42.579  -8.373  -3.074  1.00  0.00     0.012 A 
HETATM   21  C   UNL     1      41.320 -11.736  -4.069  1.00  0.00     0.009 A 
HETATM   22  C   UNL     1      43.408  -7.799  -2.110  1.00  0.00     0.001 A 
HETATM   23  C   UNL     1      44.016  -8.599  -1.147  1.00  0.00     0.001 A 
ENDBRANCH  13  14
ENDBRANCH  12  13
ENDBRANCH   7  12
BRANCH   2  24
HETATM   24  C   UNL     1      42.614 -16.454   1.997  1.00  0.00    -0.028 A 
HETATM   25  C   UNL     1      43.971 -16.818   1.930  1.00  0.00     0.012 A 
HETATM   26  C   UNL     1      44.336 -18.160   1.807  1.00  0.00     0.043 A 
HETATM   27  C   UNL     1      43.353 -19.141   1.763  1.00  0.00     0.116 A 
HETATM   28  F   UNL     1      43.708 -20.427   1.645  1.00  0.00    -0.206 F 
HETATM   29  C   UNL     1      42.008 -18.808   1.842  1.00  0.00     0.043 A 
HETATM   30  C   UNL     1      41.637 -17.468   1.961  1.00  0.00     0.012 A 
ENDBRANCH   2  24
BRANCH   1  31
HETATM   31  C   UNL     1      42.427 -14.994   4.677  1.00  0.00     0.293 C 
HETATM   32  O   UNL     1      43.320 -14.294   5.126  1.00  0.00    -0.259 OA
BRANCH  31  33
HETATM   33  O   UNL     1      42.015 -16.181   5.185  1.00  0.00    -0.318 OA
BRANCH  33  34
HETATM   34  C   UNL     1      43.051 -17.002   5.749  1.00  0.00     0.174 C 
HETATM   35  C   UNL     1      42.793 -18.469   5.450  1.00  0.00     0.034 C 
ENDBRANCH  33  34
ENDBRANCH  31  33
ENDBRANCH   1  31
TORSDOF 7
ENDMDL
