MODEL 1
REMARK VINA RESULT:      -7.6      0.000      0.000
REMARK  7 active torsions:
REMARK  status: ('A' for Active; 'I' for Inactive)
REMARK    1  A    between atoms: C_2  and  N_3 
REMARK    2  A    between atoms: N_3  and  C_5 
REMARK    3  A    between atoms: N_3  and  C_17 
REMARK    4  A    between atoms: C_5  and  C_6 
REMARK       I    between atoms: C_6  and  N_7 
REMARK    5  A    between atoms: N_7  and  C_8 
REMARK    6  A    between atoms: C_17  and  C_18 
REMARK    7  A    between atoms: C_19  and  C_20 
ROOT
HETATM    1  N   UNL     1      43.154 -15.489   5.361  1.00  0.00    -0.059 N 
HETATM    2  H   UNL     1      43.190 -15.640   4.348  1.00  0.00     0.280 HD
ENDROOT
BRANCH   1   3
HETATM    3  C   UNL     1      43.960 -14.245   5.662  1.00  0.00     0.231 C 
HETATM    4  C   UNL     1      44.667 -14.368   6.999  1.00  0.00     0.034 C 
ENDBRANCH   1   3
BRANCH   1   5
HETATM    5  C   UNL     1      43.691 -16.765   6.022  1.00  0.00     0.337 C 
BRANCH   5   6
HETATM    6  C   UNL     1      43.354 -18.063   5.275  1.00  0.00     0.248 C 
HETATM    7  N   UNL     1      44.412 -18.589   4.556  1.00  0.00    -0.325 N 
HETATM    8  H   UNL     1      45.345 -18.344   4.858  1.00  0.00     0.169 HD
HETATM    9  O   UNL     1      42.236 -18.559   5.392  1.00  0.00    -0.271 OA
BRANCH   7  10
HETATM   10  C   UNL     1      44.342 -19.747   3.734  1.00  0.00     0.046 A 
HETATM   11  C   UNL     1      44.510 -21.058   4.231  1.00  0.00    -0.035 A 
HETATM   12  C   UNL     1      44.689 -21.411   5.684  1.00  0.00     0.050 C 
HETATM   13  C   UNL     1      44.456 -22.142   3.334  1.00  0.00     0.009 A 
HETATM   14  C   UNL     1      44.181 -21.949   1.986  1.00  0.00     0.001 A 
HETATM   15  C   UNL     1      43.951 -20.666   1.508  1.00  0.00     0.009 A 
HETATM   16  C   UNL     1      44.025 -19.556   2.365  1.00  0.00    -0.035 A 
HETATM   17  C   UNL     1      43.794 -18.194   1.763  1.00  0.00     0.050 C 
ENDBRANCH   7  10
ENDBRANCH   5   6
ENDBRANCH   1   5
BRANCH   1  18
HETATM   18  C   UNL     1      41.672 -15.277   5.673  1.00  0.00     0.277 C 
BRANCH  18  19
HETATM   19  C   UNL     1      40.856 -15.141   4.433  1.00  0.00     0.012 A 
HETATM   20  C   UNL     1      40.090 -14.019   3.969  1.00  0.00     0.071 A 
HETATM   21  N   UNL     1      39.528 -14.298   2.786  1.00  0.00    -0.178 NA
HETATM   22  N   UNL     1      39.842 -15.567   2.526  1.00  0.00    -0.288 N 
HETATM   23  H   UNL     1      39.468 -15.991   1.681  1.00  0.00     0.188 HD
HETATM   24  C   UNL     1      40.653 -16.118   3.473  1.00  0.00     0.120 A 
BRANCH  20  25
HETATM   25  C   UNL     1      39.846 -12.645   4.604  1.00  0.00    -0.004 C 
HETATM   26  C   UNL     1      39.245 -12.787   6.016  1.00  0.00     0.021 C 
HETATM   27  C   UNL     1      41.163 -11.840   4.755  1.00  0.00     0.021 C 
HETATM   28  C   UNL     1      38.905 -11.802   3.719  1.00  0.00     0.021 C 
ENDBRANCH  20  25
ENDBRANCH  18  19
ENDBRANCH   1  18
TORSDOF 7
ENDMDL
MODEL 2
REMARK VINA RESULT:      -7.4      1.027      2.137
REMARK  7 active torsions:
REMARK  status: ('A' for Active; 'I' for Inactive)
REMARK    1  A    between atoms: C_2  and  N_3 
REMARK    2  A    between atoms: N_3  and  C_5 
REMARK    3  A    between atoms: N_3  and  C_17 
REMARK    4  A    between atoms: C_5  and  C_6 
REMARK       I    between atoms: C_6  and  N_7 
REMARK    5  A    between atoms: N_7  and  C_8 
REMARK    6  A    between atoms: C_17  and  C_18 
REMARK    7  A    between atoms: C_19  and  C_20 
ROOT
HETATM    1  N   UNL     1      42.900 -15.557   5.460  1.00  0.00    -0.059 N 
HETATM    2  H   UNL     1      42.888 -15.638   4.437  1.00  0.00     0.280 HD
ENDROOT
BRANCH   1   3
HETATM    3  C   UNL     1      43.571 -14.245   5.802  1.00  0.00     0.231 C 
HETATM    4  C   UNL     1      44.553 -14.423   6.945  1.00  0.00     0.034 C 
ENDBRANCH   1   3
BRANCH   1   5
HETATM    5  C   UNL     1      43.626 -16.798   5.995  1.00  0.00     0.337 C 
BRANCH   5   6
HETATM    6  C   UNL     1      43.306 -18.099   5.248  1.00  0.00     0.248 C 
HETATM    7  N   UNL     1      44.384 -18.639   4.570  1.00  0.00    -0.325 N 
HETATM    8  H   UNL     1      45.308 -18.398   4.903  1.00  0.00     0.169 HD
HETATM    9  O   UNL     1      42.181 -18.586   5.330  1.00  0.00    -0.271 OA
BRANCH   7  10
HETATM   10  C   UNL     1      44.335 -19.803   3.755  1.00  0.00     0.046 A 
HETATM   11  C   UNL     1      44.500 -21.110   4.265  1.00  0.00    -0.035 A 
HETATM   12  C   UNL     1      44.655 -21.451   5.724  1.00  0.00     0.050 C 
HETATM   13  C   UNL     1      44.467 -22.200   3.376  1.00  0.00     0.009 A 
HETATM   14  C   UNL     1      44.215 -22.019   2.021  1.00  0.00     0.001 A 
HETATM   15  C   UNL     1      43.988 -20.740   1.530  1.00  0.00     0.009 A 
HETATM   16  C   UNL     1      44.041 -19.624   2.380  1.00  0.00    -0.035 A 
HETATM   17  C   UNL     1      43.814 -18.267   1.764  1.00  0.00     0.050 C 
ENDBRANCH   7  10
ENDBRANCH   5   6
ENDBRANCH   1   5
BRANCH   1  18
HETATM   18  C   UNL     1      41.427 -15.549   5.870  1.00  0.00     0.277 C 
BRANCH  18  19
HETATM   19  C   UNL     1      40.661 -14.478   5.173  1.00  0.00     0.012 A 
HETATM   20  C   UNL     1      40.394 -14.317   3.771  1.00  0.00     0.071 A 
HETATM   21  N   UNL     1      39.638 -13.232   3.564  1.00  0.00    -0.178 NA
HETATM   22  N   UNL     1      39.485 -12.663   4.759  1.00  0.00    -0.288 N 
HETATM   23  H   UNL     1      38.970 -11.787   4.812  1.00  0.00     0.188 HD
HETATM   24  C   UNL     1      40.063 -13.377   5.765  1.00  0.00     0.120 A 
BRANCH  20  25
HETATM   25  C   UNL     1      40.830 -15.162   2.568  1.00  0.00    -0.004 C 
HETATM   26  C   UNL     1      40.662 -16.666   2.858  1.00  0.00     0.021 C 
HETATM   27  C   UNL     1      39.981 -14.850   1.308  1.00  0.00     0.021 C 
HETATM   28  C   UNL     1      42.298 -14.862   2.203  1.00  0.00     0.021 C 
ENDBRANCH  20  25
ENDBRANCH  18  19
ENDBRANCH   1  18
TORSDOF 7
ENDMDL
MODEL 3
REMARK VINA RESULT:      -7.3      2.621      3.693
REMARK  7 active torsions:
REMARK  status: ('A' for Active; 'I' for Inactive)
REMARK    1  A    between atoms: C_2  and  N_3 
REMARK    2  A    between atoms: N_3  and  C_5 
REMARK    3  A    between atoms: N_3  and  C_17 
REMARK    4  A    between atoms: C_5  and  C_6 
REMARK       I    between atoms: C_6  and  N_7 
REMARK    5  A    between atoms: N_7  and  C_8 
REMARK    6  A    between atoms: C_17  and  C_18 
REMARK    7  A    between atoms: C_19  and  C_20 
ROOT
HETATM    1  N   UNL     1      42.026 -14.737   3.052  1.00  0.00    -0.059 N 
HETATM    2  H   UNL     1      42.661 -15.265   2.444  1.00  0.00     0.280 HD
ENDROOT
BRANCH   1   3
HETATM    3  C   UNL     1      42.484 -13.295   3.040  1.00  0.00     0.231 C 
HETATM    4  C   UNL     1      41.892 -12.530   4.210  1.00  0.00     0.034 C 
ENDBRANCH   1   3
BRANCH   1   5
HETATM    5  C   UNL     1      42.075 -15.405   4.432  1.00  0.00     0.337 C 
BRANCH   5   6
HETATM    6  C   UNL     1      42.251 -16.929   4.401  1.00  0.00     0.248 C 
HETATM    7  N   UNL     1      43.543 -17.341   4.129  1.00  0.00    -0.325 N 
HETATM    8  H   UNL     1      44.291 -16.697   4.348  1.00  0.00     0.169 HD
HETATM    9  O   UNL     1      41.293 -17.656   4.653  1.00  0.00    -0.271 OA
BRANCH   7  10
HETATM   10  C   UNL     1      43.952 -18.695   3.985  1.00  0.00     0.046 A 
HETATM   11  C   UNL     1      43.900 -19.392   2.758  1.00  0.00    -0.035 A 
HETATM   12  C   UNL     1      43.498 -18.784   1.440  1.00  0.00     0.050 C 
HETATM   13  C   UNL     1      44.297 -20.742   2.721  1.00  0.00     0.009 A 
HETATM   14  C   UNL     1      44.796 -21.378   3.850  1.00  0.00     0.001 A 
HETATM   15  C   UNL     1      44.910 -20.674   5.042  1.00  0.00     0.009 A 
HETATM   16  C   UNL     1      44.497 -19.336   5.128  1.00  0.00    -0.035 A 
HETATM   17  C   UNL     1      44.623 -18.651   6.464  1.00  0.00     0.050 C 
ENDBRANCH   7  10
ENDBRANCH   5   6
ENDBRANCH   1   5
BRANCH   1  18
HETATM   18  C   UNL     1      40.649 -14.886   2.406  1.00  0.00     0.277 C 
BRANCH  18  19
HETATM   19  C   UNL     1      40.739 -14.990   0.922  1.00  0.00     0.012 A 
HETATM   20  C   UNL     1      39.922 -14.371  -0.084  1.00  0.00     0.071 A 
HETATM   21  N   UNL     1      40.359 -14.700  -1.305  1.00  0.00    -0.178 NA
HETATM   22  N   UNL     1      41.361 -15.558  -1.112  1.00  0.00    -0.288 N 
HETATM   23  H   UNL     1      41.806 -15.967  -1.930  1.00  0.00     0.188 HD
HETATM   24  C   UNL     1      41.644 -15.756   0.206  1.00  0.00     0.120 A 
BRANCH  20  25
HETATM   25  C   UNL     1      38.702 -13.451   0.048  1.00  0.00    -0.004 C 
HETATM   26  C   UNL     1      38.153 -13.059  -1.337  1.00  0.00     0.021 C 
HETATM   27  C   UNL     1      37.542 -14.140   0.812  1.00  0.00     0.021 C 
HETATM   28  C   UNL     1      39.069 -12.181   0.842  1.00  0.00     0.021 C 
ENDBRANCH  20  25
ENDBRANCH  18  19
ENDBRANCH   1  18
TORSDOF 7
ENDMDL
MODEL 4
REMARK VINA RESULT:      -7.3      2.743      3.535
REMARK  7 active torsions:
REMARK  status: ('A' for Active; 'I' for Inactive)
REMARK    1  A    between atoms: C_2  and  N_3 
REMARK    2  A    between atoms: N_3  and  C_5 
REMARK    3  A    between atoms: N_3  and  C_17 
REMARK    4  A    between atoms: C_5  and  C_6 
REMARK       I    between atoms: C_6  and  N_7 
REMARK    5  A    between atoms: N_7  and  C_8 
REMARK    6  A    between atoms: C_17  and  C_18 
REMARK    7  A    between atoms: C_19  and  C_20 
ROOT
HETATM    1  N   UNL     1      41.985 -14.676   2.864  1.00  0.00    -0.059 N 
HETATM    2  H   UNL     1      42.595 -15.260   2.282  1.00  0.00     0.280 HD
ENDROOT
BRANCH   1   3
HETATM    3  C   UNL     1      42.517 -13.261   2.796  1.00  0.00     0.231 C 
HETATM    4  C   UNL     1      41.486 -12.270   3.305  1.00  0.00     0.034 C 
ENDBRANCH   1   3
BRANCH   1   5
HETATM    5  C   UNL     1      41.992 -15.287   4.270  1.00  0.00     0.337 C 
BRANCH   5   6
HETATM    6  C   UNL     1      42.187 -16.809   4.306  1.00  0.00     0.248 C 
HETATM    7  N   UNL     1      43.498 -17.213   4.132  1.00  0.00    -0.325 N 
HETATM    8  H   UNL     1      44.223 -16.551   4.374  1.00  0.00     0.169 HD
HETATM    9  O   UNL     1      41.224 -17.540   4.524  1.00  0.00    -0.271 OA
BRANCH   7  10
HETATM   10  C   UNL     1      43.932 -18.565   4.065  1.00  0.00     0.046 A 
HETATM   11  C   UNL     1      44.253 -19.331   5.207  1.00  0.00    -0.035 A 
HETATM   12  C   UNL     1      44.096 -18.861   6.629  1.00  0.00     0.050 C 
HETATM   13  C   UNL     1      44.706 -20.653   5.039  1.00  0.00     0.009 A 
HETATM   14  C   UNL     1      44.782 -21.235   3.780  1.00  0.00     0.001 A 
HETATM   15  C   UNL     1      44.403 -20.504   2.661  1.00  0.00     0.009 A 
HETATM   16  C   UNL     1      43.975 -19.173   2.784  1.00  0.00    -0.035 A 
HETATM   17  C   UNL     1      43.612 -18.438   1.519  1.00  0.00     0.050 C 
ENDBRANCH   7  10
ENDBRANCH   5   6
ENDBRANCH   1   5
BRANCH   1  18
HETATM   18  C   UNL     1      40.606 -14.779   2.214  1.00  0.00     0.277 C 
BRANCH  18  19
HETATM   19  C   UNL     1      40.695 -14.881   0.730  1.00  0.00     0.012 A 
HETATM   20  C   UNL     1      39.848 -14.300  -0.273  1.00  0.00     0.071 A 
HETATM   21  N   UNL     1      40.295 -14.611  -1.495  1.00  0.00    -0.178 NA
HETATM   22  N   UNL     1      41.335 -15.423  -1.305  1.00  0.00    -0.288 N 
HETATM   23  H   UNL     1      41.795 -15.813  -2.124  1.00  0.00     0.188 HD
HETATM   24  C   UNL     1      41.631 -15.606   0.012  1.00  0.00     0.120 A 
BRANCH  20  25
HETATM   25  C   UNL     1      38.589 -13.435  -0.138  1.00  0.00    -0.004 C 
HETATM   26  C   UNL     1      37.919 -13.217  -1.509  1.00  0.00     0.021 C 
HETATM   27  C   UNL     1      37.529 -14.101   0.778  1.00  0.00     0.021 C 
HETATM   28  C   UNL     1      38.936 -12.073   0.496  1.00  0.00     0.021 C 
ENDBRANCH  20  25
ENDBRANCH  18  19
ENDBRANCH   1  18
TORSDOF 7
ENDMDL
MODEL 5
REMARK VINA RESULT:      -7.2      1.391      2.332
REMARK  7 active torsions:
REMARK  status: ('A' for Active; 'I' for Inactive)
REMARK    1  A    between atoms: C_2  and  N_3 
REMARK    2  A    between atoms: N_3  and  C_5 
REMARK    3  A    between atoms: N_3  and  C_17 
REMARK    4  A    between atoms: C_5  and  C_6 
REMARK       I    between atoms: C_6  and  N_7 
REMARK    5  A    between atoms: N_7  and  C_8 
REMARK    6  A    between atoms: C_17  and  C_18 
REMARK    7  A    between atoms: C_19  and  C_20 
ROOT
HETATM    1  N   UNL     1      43.445 -15.091   5.717  1.00  0.00    -0.059 N 
HETATM    2  H   UNL     1      43.986 -15.490   4.942  1.00  0.00     0.280 HD
ENDROOT
BRANCH   1   3
HETATM    3  C   UNL     1      44.318 -15.143   6.952  1.00  0.00     0.231 C 
HETATM    4  C   UNL     1      45.070 -13.838   7.137  1.00  0.00     0.034 C 
ENDBRANCH   1   3
BRANCH   1   5
HETATM    5  C   UNL     1      42.151 -15.907   5.822  1.00  0.00     0.337 C 
BRANCH   5   6
HETATM    6  C   UNL     1      42.179 -17.252   5.083  1.00  0.00     0.248 C 
HETATM    7  N   UNL     1      43.397 -17.548   4.499  1.00  0.00    -0.325 N 
HETATM    8  H   UNL     1      44.219 -17.110   4.894  1.00  0.00     0.169 HD
HETATM    9  O   UNL     1      41.183 -17.971   5.092  1.00  0.00    -0.271 OA
BRANCH   7  10
HETATM   10  C   UNL     1      43.664 -18.700   3.710  1.00  0.00     0.046 A 
HETATM   11  C   UNL     1      43.412 -18.760   2.322  1.00  0.00    -0.035 A 
HETATM   12  C   UNL     1      42.922 -17.607   1.486  1.00  0.00     0.050 C 
HETATM   13  C   UNL     1      43.678 -19.956   1.629  1.00  0.00     0.009 A 
HETATM   14  C   UNL     1      44.240 -21.052   2.272  1.00  0.00     0.001 A 
HETATM   15  C   UNL     1      44.550 -20.971   3.624  1.00  0.00     0.009 A 
HETATM   16  C   UNL     1      44.272 -19.806   4.356  1.00  0.00    -0.035 A 
HETATM   17  C   UNL     1      44.609 -19.810   5.825  1.00  0.00     0.050 C 
ENDBRANCH   7  10
ENDBRANCH   5   6
ENDBRANCH   1   5
BRANCH   1  18
HETATM   18  C   UNL     1      43.165 -13.648   5.297  1.00  0.00     0.277 C 
BRANCH  18  19
HETATM   19  C   UNL     1      42.538 -13.572   3.948  1.00  0.00     0.012 A 
HETATM   20  C   UNL     1      41.275 -13.005   3.564  1.00  0.00     0.071 A 
HETATM   21  N   UNL     1      41.100 -13.115   2.242  1.00  0.00    -0.178 NA
HETATM   22  N   UNL     1      42.156 -13.792   1.791  1.00  0.00    -0.288 N 
HETATM   23  H   UNL     1      42.192 -14.023   0.801  1.00  0.00     0.188 HD
HETATM   24  C   UNL     1      43.060 -14.078   2.770  1.00  0.00     0.120 A 
BRANCH  20  25
HETATM   25  C   UNL     1      40.180 -12.342   4.408  1.00  0.00    -0.004 C 
HETATM   26  C   UNL     1      39.652 -13.308   5.486  1.00  0.00     0.021 C 
HETATM   27  C   UNL     1      40.708 -11.087   5.151  1.00  0.00     0.021 C 
HETATM   28  C   UNL     1      39.017 -11.874   3.510  1.00  0.00     0.021 C 
ENDBRANCH  20  25
ENDBRANCH  18  19
ENDBRANCH   1  18
TORSDOF 7
ENDMDL
MODEL 6
REMARK VINA RESULT:      -7.1      1.894      3.313
REMARK  7 active torsions:
REMARK  status: ('A' for Active; 'I' for Inactive)
REMARK    1  A    between atoms: C_2  and  N_3 
REMARK    2  A    between atoms: N_3  and  C_5 
REMARK    3  A    between atoms: N_3  and  C_17 
REMARK    4  A    between atoms: C_5  and  C_6 
REMARK       I    between atoms: C_6  and  N_7 
REMARK    5  A    between atoms: N_7  and  C_8 
REMARK    6  A    between atoms: C_17  and  C_18 
REMARK    7  A    between atoms: C_19  and  C_20 
ROOT
HETATM    1  N   UNL     1      41.791 -16.176   1.814  1.00  0.00    -0.059 N 
HETATM    2  H   UNL     1      41.098 -16.706   2.353  1.00  0.00     0.280 HD
ENDROOT
BRANCH   1   3
HETATM    3  C   UNL     1      41.296 -16.108   0.386  1.00  0.00     0.231 C 
HETATM    4  C   UNL     1      41.098 -14.667  -0.049  1.00  0.00     0.034 C 
ENDBRANCH   1   3
BRANCH   1   5
HETATM    5  C   UNL     1      43.133 -16.898   1.984  1.00  0.00     0.337 C 
BRANCH   5   6
HETATM    6  C   UNL     1      43.069 -18.182   2.821  1.00  0.00     0.248 C 
HETATM    7  N   UNL     1      44.232 -18.931   2.796  1.00  0.00    -0.325 N 
HETATM    8  H   UNL     1      45.093 -18.442   2.588  1.00  0.00     0.169 HD
HETATM    9  O   UNL     1      42.056 -18.435   3.469  1.00  0.00    -0.271 OA
BRANCH   7  10
HETATM   10  C   UNL     1      44.407 -20.187   3.437  1.00  0.00     0.046 A 
HETATM   11  C   UNL     1      44.329 -21.420   2.753  1.00  0.00    -0.035 A 
HETATM   12  C   UNL     1      44.146 -21.569   1.266  1.00  0.00     0.050 C 
HETATM   13  C   UNL     1      44.483 -22.616   3.479  1.00  0.00     0.009 A 
HETATM   14  C   UNL     1      44.772 -22.602   4.839  1.00  0.00     0.001 A 
HETATM   15  C   UNL     1      44.913 -21.389   5.498  1.00  0.00     0.009 A 
HETATM   16  C   UNL     1      44.737 -20.175   4.816  1.00  0.00    -0.035 A 
HETATM   17  C   UNL     1      44.876 -18.902   5.610  1.00  0.00     0.050 C 
ENDBRANCH   7  10
ENDBRANCH   5   6
ENDBRANCH   1   5
BRANCH   1  18
HETATM   18  C   UNL     1      41.814 -14.790   2.458  1.00  0.00     0.277 C 
BRANCH  18  19
HETATM   19  C   UNL     1      40.973 -14.734   3.688  1.00  0.00     0.012 A 
HETATM   20  C   UNL     1      40.056 -13.714   4.115  1.00  0.00     0.071 A 
HETATM   21  N   UNL     1      39.476 -14.066   5.269  1.00  0.00    -0.178 NA
HETATM   22  N   UNL     1      40.043 -15.219   5.623  1.00  0.00    -0.288 N 
HETATM   23  H   UNL     1      39.767 -15.638   6.508  1.00  0.00     0.188 HD
HETATM   24  C   UNL     1      40.937 -15.676   4.702  1.00  0.00     0.120 A 
BRANCH  20  25
HETATM   25  C   UNL     1      39.684 -12.373   3.472  1.00  0.00    -0.004 C 
HETATM   26  C   UNL     1      40.945 -11.559   3.121  1.00  0.00     0.021 C 
HETATM   27  C   UNL     1      38.893 -12.568   2.152  1.00  0.00     0.021 C 
HETATM   28  C   UNL     1      38.782 -11.554   4.418  1.00  0.00     0.021 C 
ENDBRANCH  20  25
ENDBRANCH  18  19
ENDBRANCH   1  18
TORSDOF 7
ENDMDL
MODEL 7
REMARK VINA RESULT:      -7.0      1.904      3.083
REMARK  7 active torsions:
REMARK  status: ('A' for Active; 'I' for Inactive)
REMARK    1  A    between atoms: C_2  and  N_3 
REMARK    2  A    between atoms: N_3  and  C_5 
REMARK    3  A    between atoms: N_3  and  C_17 
REMARK    4  A    between atoms: C_5  and  C_6 
REMARK       I    between atoms: C_6  and  N_7 
REMARK    5  A    between atoms: N_7  and  C_8 
REMARK    6  A    between atoms: C_17  and  C_18 
REMARK    7  A    between atoms: C_19  and  C_20 
ROOT
HETATM    1  N   UNL     1      41.785 -16.188   1.984  1.00  0.00    -0.059 N 
HETATM    2  H   UNL     1      41.086 -16.702   2.530  1.00  0.00     0.280 HD
ENDROOT
BRANCH   1   3
HETATM    3  C   UNL     1      41.368 -16.265   0.531  1.00  0.00     0.231 C 
HETATM    4  C   UNL     1      40.771 -14.948   0.070  1.00  0.00     0.034 C 
ENDBRANCH   1   3
BRANCH   1   5
HETATM    5  C   UNL     1      43.146 -16.827   2.286  1.00  0.00     0.337 C 
BRANCH   5   6
HETATM    6  C   UNL     1      43.076 -18.129   3.095  1.00  0.00     0.248 C 
HETATM    7  N   UNL     1      44.251 -18.859   3.091  1.00  0.00    -0.325 N 
HETATM    8  H   UNL     1      45.110 -18.353   2.920  1.00  0.00     0.169 HD
HETATM    9  O   UNL     1      42.048 -18.411   3.706  1.00  0.00    -0.271 OA
BRANCH   7  10
HETATM   10  C   UNL     1      44.426 -20.125   3.712  1.00  0.00     0.046 A 
HETATM   11  C   UNL     1      44.627 -20.283   5.101  1.00  0.00    -0.035 A 
HETATM   12  C   UNL     1      44.593 -19.163   6.108  1.00  0.00     0.050 C 
HETATM   13  C   UNL     1      44.824 -21.576   5.622  1.00  0.00     0.009 A 
HETATM   14  C   UNL     1      44.762 -22.699   4.806  1.00  0.00     0.001 A 
HETATM   15  C   UNL     1      44.499 -22.550   3.450  1.00  0.00     0.009 A 
HETATM   16  C   UNL     1      44.326 -21.275   2.888  1.00  0.00    -0.035 A 
HETATM   17  C   UNL     1      44.076 -21.196   1.404  1.00  0.00     0.050 C 
ENDBRANCH   7  10
ENDBRANCH   5   6
ENDBRANCH   1   5
BRANCH   1  18
HETATM   18  C   UNL     1      41.712 -14.753   2.505  1.00  0.00     0.277 C 
BRANCH  18  19
HETATM   19  C   UNL     1      40.883 -14.650   3.739  1.00  0.00     0.012 A 
HETATM   20  C   UNL     1      39.983 -13.607   4.145  1.00  0.00     0.071 A 
HETATM   21  N   UNL     1      39.409 -13.918   5.313  1.00  0.00    -0.178 NA
HETATM   22  N   UNL     1      39.963 -15.068   5.695  1.00  0.00    -0.288 N 
HETATM   23  H   UNL     1      39.690 -15.457   6.595  1.00  0.00     0.188 HD
HETATM   24  C   UNL     1      40.843 -15.562   4.780  1.00  0.00     0.120 A 
BRANCH  20  25
HETATM   25  C   UNL     1      39.622 -12.279   3.467  1.00  0.00    -0.004 C 
HETATM   26  C   UNL     1      40.888 -11.467   3.133  1.00  0.00     0.021 C 
HETATM   27  C   UNL     1      38.867 -12.503   2.131  1.00  0.00     0.021 C 
HETATM   28  C   UNL     1      38.693 -11.447   4.373  1.00  0.00     0.021 C 
ENDBRANCH  20  25
ENDBRANCH  18  19
ENDBRANCH   1  18
TORSDOF 7
ENDMDL
MODEL 8
REMARK VINA RESULT:      -6.9      4.011      5.102
REMARK  7 active torsions:
REMARK  status: ('A' for Active; 'I' for Inactive)
REMARK    1  A    between atoms: C_2  and  N_3 
REMARK    2  A    between atoms: N_3  and  C_5 
REMARK    3  A    between atoms: N_3  and  C_17 
REMARK    4  A    between atoms: C_5  and  C_6 
REMARK       I    between atoms: C_6  and  N_7 
REMARK    5  A    between atoms: N_7  and  C_8 
REMARK    6  A    between atoms: C_17  and  C_18 
REMARK    7  A    between atoms: C_19  and  C_20 
ROOT
HETATM    1  N   UNL     1      41.293 -15.176   0.822  1.00  0.00    -0.059 N 
HETATM    2  H   UNL     1      42.230 -14.824   0.600  1.00  0.00     0.280 HD
ENDROOT
BRANCH   1   3
HETATM    3  C   UNL     1      40.922 -14.643   2.188  1.00  0.00     0.231 C 
HETATM    4  C   UNL     1      39.555 -15.150   2.613  1.00  0.00     0.034 C 
ENDBRANCH   1   3
BRANCH   1   5
HETATM    5  C   UNL     1      41.361 -16.706   0.737  1.00  0.00     0.337 C 
BRANCH   5   6
HETATM    6  C   UNL     1      42.583 -17.332   1.422  1.00  0.00     0.248 C 
HETATM    7  N   UNL     1      42.272 -18.136   2.504  1.00  0.00    -0.325 N 
HETATM    8  H   UNL     1      41.348 -18.547   2.526  1.00  0.00     0.169 HD
HETATM    9  O   UNL     1      43.705 -17.131   0.965  1.00  0.00    -0.271 OA
BRANCH   7  10
HETATM   10  C   UNL     1      43.224 -18.780   3.341  1.00  0.00     0.046 A 
HETATM   11  C   UNL     1      43.816 -20.022   3.024  1.00  0.00    -0.035 A 
HETATM   12  C   UNL     1      43.597 -20.776   1.739  1.00  0.00     0.050 C 
HETATM   13  C   UNL     1      44.725 -20.598   3.931  1.00  0.00     0.009 A 
HETATM   14  C   UNL     1      45.094 -19.940   5.098  1.00  0.00     0.001 A 
HETATM   15  C   UNL     1      44.562 -18.688   5.379  1.00  0.00     0.009 A 
HETATM   16  C   UNL     1      43.630 -18.093   4.514  1.00  0.00    -0.035 A 
HETATM   17  C   UNL     1      43.075 -16.748   4.906  1.00  0.00     0.050 C 
ENDBRANCH   7  10
ENDBRANCH   5   6
ENDBRANCH   1   5
BRANCH   1  18
HETATM   18  C   UNL     1      40.388 -14.594  -0.264  1.00  0.00     0.277 C 
BRANCH  18  19
HETATM   19  C   UNL     1      41.136 -14.313  -1.521  1.00  0.00     0.012 A 
HETATM   20  C   UNL     1      41.766 -13.096  -1.951  1.00  0.00     0.071 A 
HETATM   21  N   UNL     1      42.361 -13.276  -3.136  1.00  0.00    -0.178 NA
HETATM   22  N   UNL     1      42.068 -14.522  -3.505  1.00  0.00    -0.288 N 
HETATM   23  H   UNL     1      42.395 -14.844  -4.413  1.00  0.00     0.188 HD
HETATM   24  C   UNL     1      41.349 -15.198  -2.565  1.00  0.00     0.120 A 
BRANCH  20  25
HETATM   25  C   UNL     1      41.839 -11.719  -1.281  1.00  0.00    -0.004 C 
HETATM   26  C   UNL     1      42.321 -11.839   0.178  1.00  0.00     0.021 C 
HETATM   27  C   UNL     1      42.837 -10.779  -2.007  1.00  0.00     0.021 C 
HETATM   28  C   UNL     1      40.462 -11.027  -1.321  1.00  0.00     0.021 C 
ENDBRANCH  20  25
ENDBRANCH  18  19
ENDBRANCH   1  18
TORSDOF 7
ENDMDL
MODEL 9
REMARK VINA RESULT:      -6.9      4.234      5.426
REMARK  7 active torsions:
REMARK  status: ('A' for Active; 'I' for Inactive)
REMARK    1  A    between atoms: C_2  and  N_3 
REMARK    2  A    between atoms: N_3  and  C_5 
REMARK    3  A    between atoms: N_3  and  C_17 
REMARK    4  A    between atoms: C_5  and  C_6 
REMARK       I    between atoms: C_6  and  N_7 
REMARK    5  A    between atoms: N_7  and  C_8 
REMARK    6  A    between atoms: C_17  and  C_18 
REMARK    7  A    between atoms: C_19  and  C_20 
ROOT
HETATM    1  N   UNL     1      41.199 -14.033   1.179  1.00  0.00    -0.059 N 
HETATM    2  H   UNL     1      41.944 -14.625   0.797  1.00  0.00     0.280 HD
ENDROOT
BRANCH   1   3
HETATM    3  C   UNL     1      41.858 -12.822   1.801  1.00  0.00     0.231 C 
HETATM    4  C   UNL     1      42.712 -13.222   2.990  1.00  0.00     0.034 C 
ENDBRANCH   1   3
BRANCH   1   5
HETATM    5  C   UNL     1      40.406 -14.898   2.167  1.00  0.00     0.337 C 
BRANCH   5   6
HETATM    6  C   UNL     1      40.944 -16.325   2.344  1.00  0.00     0.248 C 
HETATM    7  N   UNL     1      42.132 -16.396   3.048  1.00  0.00    -0.325 N 
HETATM    8  H   UNL     1      42.340 -15.637   3.685  1.00  0.00     0.169 HD
HETATM    9  O   UNL     1      40.297 -17.276   1.913  1.00  0.00    -0.271 OA
BRANCH   7  10
HETATM   10  C   UNL     1      42.864 -17.589   3.294  1.00  0.00     0.046 A 
HETATM   11  C   UNL     1      43.605 -18.260   2.296  1.00  0.00    -0.035 A 
HETATM   12  C   UNL     1      43.796 -17.764   0.887  1.00  0.00     0.050 C 
HETATM   13  C   UNL     1      44.272 -19.455   2.626  1.00  0.00     0.009 A 
HETATM   14  C   UNL     1      44.264 -19.950   3.925  1.00  0.00     0.001 A 
HETATM   15  C   UNL     1      43.590 -19.256   4.921  1.00  0.00     0.009 A 
HETATM   16  C   UNL     1      42.888 -18.076   4.625  1.00  0.00    -0.035 A 
HETATM   17  C   UNL     1      42.155 -17.400   5.755  1.00  0.00     0.050 C 
ENDBRANCH   7  10
ENDBRANCH   5   6
ENDBRANCH   1   5
BRANCH   1  18
HETATM   18  C   UNL     1      40.349 -13.642  -0.030  1.00  0.00     0.277 C 
BRANCH  18  19
HETATM   19  C   UNL     1      40.902 -14.190  -1.300  1.00  0.00     0.012 A 
HETATM   20  C   UNL     1      41.518 -13.497  -2.397  1.00  0.00     0.071 A 
HETATM   21  N   UNL     1      41.908 -14.368  -3.335  1.00  0.00    -0.178 NA
HETATM   22  N   UNL     1      41.496 -15.563  -2.915  1.00  0.00    -0.288 N 
HETATM   23  H   UNL     1      41.657 -16.366  -3.518  1.00  0.00     0.188 HD
HETATM   24  C   UNL     1      40.900 -15.519  -1.690  1.00  0.00     0.120 A 
BRANCH  20  25
HETATM   25  C   UNL     1      41.767 -12.001  -2.619  1.00  0.00    -0.004 C 
HETATM   26  C   UNL     1      42.287 -11.732  -4.044  1.00  0.00     0.021 C 
HETATM   27  C   UNL     1      40.468 -11.170  -2.451  1.00  0.00     0.021 C 
HETATM   28  C   UNL     1      42.778 -11.464  -1.586  1.00  0.00     0.021 C 
ENDBRANCH  20  25
ENDBRANCH  18  19
ENDBRANCH   1  18
TORSDOF 7
ENDMDL
MODEL 10
REMARK VINA RESULT:      -6.7      3.324      6.937
REMARK  7 active torsions:
REMARK  status: ('A' for Active; 'I' for Inactive)
REMARK    1  A    between atoms: C_2  and  N_3 
REMARK    2  A    between atoms: N_3  and  C_5 
REMARK    3  A    between atoms: N_3  and  C_17 
REMARK    4  A    between atoms: C_5  and  C_6 
REMARK       I    between atoms: C_6  and  N_7 
REMARK    5  A    between atoms: N_7  and  C_8 
REMARK    6  A    between atoms: C_17  and  C_18 
REMARK    7  A    between atoms: C_19  and  C_20 
ROOT
HETATM    1  N   UNL     1      42.873 -17.746   2.777  1.00  0.00    -0.059 N 
HETATM    2  H   UNL     1      42.991 -16.748   2.978  1.00  0.00     0.280 HD
ENDROOT
BRANCH   1   3
HETATM    3  C   UNL     1      44.255 -18.349   2.655  1.00  0.00     0.231 C 
HETATM    4  C   UNL     1      44.179 -19.863   2.573  1.00  0.00     0.034 C 
ENDBRANCH   1   3
BRANCH   1   5
HETATM    5  C   UNL     1      42.025 -17.846   1.503  1.00  0.00     0.337 C 
BRANCH   5   6
HETATM    6  C   UNL     1      41.288 -16.556   1.121  1.00  0.00     0.248 C 
HETATM    7  N   UNL     1      41.939 -15.796   0.166  1.00  0.00    -0.325 N 
HETATM    8  H   UNL     1      42.579 -16.278  -0.452  1.00  0.00     0.169 HD
HETATM    9  O   UNL     1      40.196 -16.308   1.626  1.00  0.00    -0.271 OA
BRANCH   7  10
HETATM   10  C   UNL     1      41.496 -14.532  -0.311  1.00  0.00     0.046 A 
HETATM   11  C   UNL     1      41.591 -13.344   0.447  1.00  0.00    -0.035 A 
HETATM   12  C   UNL     1      42.244 -13.236   1.799  1.00  0.00     0.050 C 
HETATM   13  C   UNL     1      41.095 -12.145  -0.098  1.00  0.00     0.009 A 
HETATM   14  C   UNL     1      40.574 -12.098  -1.385  1.00  0.00     0.001 A 
HETATM   15  C   UNL     1      40.541 -13.253  -2.155  1.00  0.00     0.009 A 
HETATM   16  C   UNL     1      40.998 -14.475  -1.638  1.00  0.00    -0.035 A 
HETATM   17  C   UNL     1      40.899 -15.689  -2.526  1.00  0.00     0.050 C 
ENDBRANCH   7  10
ENDBRANCH   5   6
ENDBRANCH   1   5
BRANCH   1  18
HETATM   18  C   UNL     1      42.130 -18.306   3.990  1.00  0.00     0.277 C 
BRANCH  18  19
HETATM   19  C   UNL     1      42.171 -17.370   5.148  1.00  0.00     0.012 A 
HETATM   20  C   UNL     1      42.986 -17.420   6.329  1.00  0.00     0.071 A 
HETATM   21  N   UNL     1      42.734 -16.365   7.113  1.00  0.00    -0.178 NA
HETATM   22  N   UNL     1      41.746 -15.699   6.517  1.00  0.00    -0.288 N 
HETATM   23  H   UNL     1      41.372 -14.876   6.983  1.00  0.00     0.188 HD
HETATM   24  C   UNL     1      41.379 -16.247   5.325  1.00  0.00     0.120 A 
BRANCH  20  25
HETATM   25  C   UNL     1      44.029 -18.450   6.779  1.00  0.00    -0.004 C 
HETATM   26  C   UNL     1      43.651 -19.866   6.302  1.00  0.00     0.021 C 
HETATM   27  C   UNL     1      45.432 -18.140   6.195  1.00  0.00     0.021 C 
HETATM   28  C   UNL     1      44.171 -18.438   8.315  1.00  0.00     0.021 C 
ENDBRANCH  20  25
ENDBRANCH  18  19
ENDBRANCH   1  18
TORSDOF 7
ENDMDL
