MODEL 1
REMARK VINA RESULT:      -8.4      0.000      0.000
REMARK  7 active torsions:
REMARK  status: ('A' for Active; 'I' for Inactive)
REMARK    1  A    between atoms: C_2  and  O_3 
REMARK    2  A    between atoms: O_3  and  C_4 
REMARK    3  A    between atoms: C_7  and  N_8 
REMARK       I    between atoms: N_8  and  C_9 
REMARK    4  A    between atoms: C_9  and  C_10 
REMARK    5  A    between atoms: C_10  and  S_11 
REMARK    6  A    between atoms: S_11  and  C_12 
REMARK    7  A    between atoms: N_13  and  C_14 
ROOT
HETATM    1  C   UNL     1      42.144 -13.876   1.782  1.00  0.00     0.177 A 
HETATM    2  N   UNL     1      42.051 -14.935   0.850  1.00  0.00    -0.276 N 
HETATM    3  C   UNL     1      41.647 -14.611  -0.496  1.00  0.00     0.124 A 
HETATM    4  N   UNL     1      41.569 -15.504  -1.465  1.00  0.00    -0.384 N 
HETATM    5  H   UNL     1      41.307 -15.235  -2.401  1.00  0.00     0.157 HD
HETATM    6  H   UNL     1      41.801 -16.473  -1.285  1.00  0.00     0.157 HD
HETATM    7  C   UNL     1      41.368 -13.235  -0.759  1.00  0.00     0.081 A 
HETATM    8  C   UNL     1      41.563 -12.310   0.261  1.00  0.00     0.187 A 
HETATM    9  N   UNL     1      41.273 -11.072  -0.113  1.00  0.00    -0.153 NA
HETATM   10  N   UNL     1      40.883 -11.215  -1.393  1.00  0.00    -0.280 N 
HETATM   11  H   UNL     1      40.601 -10.380  -1.899  1.00  0.00     0.189 HD
HETATM   12  C   UNL     1      40.909 -12.520  -1.841  1.00  0.00     0.042 A 
HETATM   13  C   UNL     1      40.484 -12.878  -3.211  1.00  0.00     0.071 C 
HETATM   14  N   UNL     1      41.960 -12.608   1.556  1.00  0.00    -0.202 NA
ENDROOT
BRANCH   1  15
HETATM   15  S   UNL     1      42.521 -14.261   3.481  1.00  0.00    -0.082 SA
BRANCH  15  16
HETATM   16  C   UNL     1      40.856 -14.651   4.105  1.00  0.00     0.185 C 
BRANCH  16  17
HETATM   17  C   UNL     1      40.864 -14.660   5.616  1.00  0.00     0.231 C 
HETATM   18  N   UNL     1      41.673 -15.473   6.350  1.00  0.00    -0.327 N 
HETATM   19  H   UNL     1      41.657 -15.190   7.325  1.00  0.00     0.169 HD
HETATM   20  O   UNL     1      40.162 -13.852   6.239  1.00  0.00    -0.272 OA
BRANCH  18  21
HETATM   21  C   UNL     1      42.458 -16.601   6.060  1.00  0.00     0.034 A 
HETATM   22  C   UNL     1      41.996 -17.775   5.474  1.00  0.00     0.032 A 
HETATM   23  C   UNL     1      42.863 -18.860   5.282  1.00  0.00     0.039 A 
HETATM   24  C   UNL     1      44.199 -18.795   5.676  1.00  0.00     0.068 A 
HETATM   25  C   UNL     1      44.668 -17.625   6.265  1.00  0.00     0.039 A 
HETATM   26  C   UNL     1      43.800 -16.544   6.463  1.00  0.00     0.032 A 
BRANCH  24  27
HETATM   27  O   UNL     1      44.923 -19.929   5.444  1.00  0.00    -0.352 OA
BRANCH  27  28
HETATM   28  C   UNL     1      44.346 -21.165   5.863  1.00  0.00     0.171 C 
HETATM   29  C   UNL     1      45.096 -22.291   5.173  1.00  0.00     0.034 C 
ENDBRANCH  27  28
ENDBRANCH  24  27
ENDBRANCH  18  21
ENDBRANCH  16  17
ENDBRANCH  15  16
ENDBRANCH   1  15
BRANCH   2  30
HETATM   30  C   UNL     1      42.413 -16.271   1.193  1.00  0.00     0.043 A 
HETATM   31  C   UNL     1      41.423 -17.257   1.330  1.00  0.00     0.031 A 
HETATM   32  C   UNL     1      41.775 -18.580   1.607  1.00  0.00     0.021 A 
HETATM   33  C   UNL     1      43.119 -18.923   1.744  1.00  0.00     0.011 A 
HETATM   34 BR   UNL     1      43.596 -20.714   2.114  1.00  0.00    -0.051 Br
HETATM   35  C   UNL     1      44.114 -17.957   1.608  1.00  0.00     0.021 A 
HETATM   36  C   UNL     1      43.761 -16.635   1.328  1.00  0.00     0.031 A 
ENDBRANCH   2  30
TORSDOF 7
ENDMDL
MODEL 2
REMARK VINA RESULT:      -8.4      4.909      7.816
REMARK  7 active torsions:
REMARK  status: ('A' for Active; 'I' for Inactive)
REMARK    1  A    between atoms: C_2  and  O_3 
REMARK    2  A    between atoms: O_3  and  C_4 
REMARK    3  A    between atoms: C_7  and  N_8 
REMARK       I    between atoms: N_8  and  C_9 
REMARK    4  A    between atoms: C_9  and  C_10 
REMARK    5  A    between atoms: C_10  and  S_11 
REMARK    6  A    between atoms: S_11  and  C_12 
REMARK    7  A    between atoms: N_13  and  C_14 
ROOT
HETATM    1  C   UNL     1      43.343 -15.864   5.199  1.00  0.00     0.177 A 
HETATM    2  N   UNL     1      42.797 -16.037   3.907  1.00  0.00    -0.276 N 
HETATM    3  C   UNL     1      42.988 -17.314   3.263  1.00  0.00     0.124 A 
HETATM    4  N   UNL     1      42.487 -17.611   2.078  1.00  0.00    -0.384 N 
HETATM    5  H   UNL     1      42.621 -18.524   1.671  1.00  0.00     0.157 HD
HETATM    6  H   UNL     1      41.934 -16.931   1.573  1.00  0.00     0.157 HD
HETATM    7  C   UNL     1      43.729 -18.289   3.999  1.00  0.00     0.081 A 
HETATM    8  C   UNL     1      44.150 -17.973   5.286  1.00  0.00     0.187 A 
HETATM    9  N   UNL     1      44.820 -18.961   5.860  1.00  0.00    -0.153 NA
HETATM   10  N   UNL     1      44.827 -19.922   4.918  1.00  0.00    -0.280 N 
HETATM   11  H   UNL     1      45.299 -20.795   5.134  1.00  0.00     0.189 HD
HETATM   12  C   UNL     1      44.183 -19.563   3.750  1.00  0.00     0.042 A 
HETATM   13  C   UNL     1      44.117 -20.476   2.590  1.00  0.00     0.071 C 
HETATM   14  N   UNL     1      43.963 -16.752   5.919  1.00  0.00    -0.202 NA
ENDROOT
BRANCH   1  15
HETATM   15  S   UNL     1      43.229 -14.260   5.969  1.00  0.00    -0.082 SA
BRANCH  15  16
HETATM   16  C   UNL     1      44.365 -14.491   7.372  1.00  0.00     0.185 C 
BRANCH  16  17
HETATM   17  C   UNL     1      45.364 -13.358   7.414  1.00  0.00     0.231 C 
HETATM   18  N   UNL     1      45.366 -12.404   8.387  1.00  0.00    -0.327 N 
HETATM   19  H   UNL     1      46.220 -11.857   8.335  1.00  0.00     0.169 HD
HETATM   20  O   UNL     1      46.275 -13.310   6.577  1.00  0.00    -0.272 OA
BRANCH  18  21
HETATM   21  C   UNL     1      44.453 -12.008   9.378  1.00  0.00     0.034 A 
HETATM   22  C   UNL     1      43.414 -11.100   9.201  1.00  0.00     0.032 A 
HETATM   23  C   UNL     1      42.597 -10.738  10.280  1.00  0.00     0.039 A 
HETATM   24  C   UNL     1      42.804 -11.271  11.553  1.00  0.00     0.068 A 
HETATM   25  C   UNL     1      43.841 -12.178  11.739  1.00  0.00     0.039 A 
HETATM   26  C   UNL     1      44.663 -12.533  10.661  1.00  0.00     0.032 A 
BRANCH  24  27
HETATM   27  O   UNL     1      41.944 -10.817  12.512  1.00  0.00    -0.352 OA
BRANCH  27  28
HETATM   28  C   UNL     1      42.492 -10.550  13.803  1.00  0.00     0.171 C 
HETATM   29  C   UNL     1      43.258  -9.241  13.724  1.00  0.00     0.034 C 
ENDBRANCH  27  28
ENDBRANCH  24  27
ENDBRANCH  18  21
ENDBRANCH  16  17
ENDBRANCH  15  16
ENDBRANCH   1  15
BRANCH   2  30
HETATM   30  C   UNL     1      42.017 -15.023   3.279  1.00  0.00     0.043 A 
HETATM   31  C   UNL     1      40.635 -14.947   3.514  1.00  0.00     0.031 A 
HETATM   32  C   UNL     1      39.876 -13.920   2.948  1.00  0.00     0.021 A 
HETATM   33  C   UNL     1      40.496 -12.962   2.148  1.00  0.00     0.011 A 
HETATM   34 BR   UNL     1      39.471 -11.569   1.387  1.00  0.00    -0.051 Br
HETATM   35  C   UNL     1      41.868 -13.021   1.908  1.00  0.00     0.021 A 
HETATM   36  C   UNL     1      42.627 -14.046   2.476  1.00  0.00     0.031 A 
ENDBRANCH   2  30
TORSDOF 7
ENDMDL
MODEL 3
REMARK VINA RESULT:      -8.1      3.695      8.857
REMARK  7 active torsions:
REMARK  status: ('A' for Active; 'I' for Inactive)
REMARK    1  A    between atoms: C_2  and  O_3 
REMARK    2  A    between atoms: O_3  and  C_4 
REMARK    3  A    between atoms: C_7  and  N_8 
REMARK       I    between atoms: N_8  and  C_9 
REMARK    4  A    between atoms: C_9  and  C_10 
REMARK    5  A    between atoms: C_10  and  S_11 
REMARK    6  A    between atoms: S_11  and  C_12 
REMARK    7  A    between atoms: N_13  and  C_14 
ROOT
HETATM    1  C   UNL     1      43.468 -17.106   3.776  1.00  0.00     0.177 A 
HETATM    2  N   UNL     1      42.896 -16.835   5.040  1.00  0.00    -0.276 N 
HETATM    3  C   UNL     1      42.996 -17.855   6.055  1.00  0.00     0.124 A 
HETATM    4  N   UNL     1      42.543 -17.701   7.285  1.00  0.00    -0.384 N 
HETATM    5  H   UNL     1      42.654 -18.429   7.975  1.00  0.00     0.157 HD
HETATM    6  H   UNL     1      42.100 -16.835   7.561  1.00  0.00     0.157 HD
HETATM    7  C   UNL     1      43.664 -19.060   5.677  1.00  0.00     0.081 A 
HETATM    8  C   UNL     1      44.220 -19.142   4.404  1.00  0.00     0.187 A 
HETATM    9  N   UNL     1      44.812 -20.306   4.182  1.00  0.00    -0.153 NA
HETATM   10  N   UNL     1      44.627 -20.977   5.334  1.00  0.00    -0.280 N 
HETATM   11  H   UNL     1      45.000 -21.919   5.400  1.00  0.00     0.189 HD
HETATM   12  C   UNL     1      43.919 -20.268   6.284  1.00  0.00     0.042 A 
HETATM   13  C   UNL     1      43.588 -20.853   7.600  1.00  0.00     0.071 C 
HETATM   14  N   UNL     1      44.138 -18.164   3.424  1.00  0.00    -0.202 NA
ENDROOT
BRANCH   1  15
HETATM   15  S   UNL     1      43.254 -15.916   2.466  1.00  0.00    -0.082 SA
BRANCH  15  16
HETATM   16  C   UNL     1      42.643 -17.000   1.138  1.00  0.00     0.185 C 
BRANCH  16  17
HETATM   17  C   UNL     1      41.153 -16.814   0.969  1.00  0.00     0.231 C 
HETATM   18  N   UNL     1      40.605 -16.065  -0.027  1.00  0.00    -0.327 N 
HETATM   19  H   UNL     1      39.603 -16.225  -0.072  1.00  0.00     0.169 HD
HETATM   20  O   UNL     1      40.370 -17.417   1.716  1.00  0.00    -0.272 OA
BRANCH  18  21
HETATM   21  C   UNL     1      41.108 -15.123  -0.940  1.00  0.00     0.034 A 
HETATM   22  C   UNL     1      41.692 -13.907  -0.604  1.00  0.00     0.032 A 
HETATM   23  C   UNL     1      42.110 -13.020  -1.606  1.00  0.00     0.039 A 
HETATM   24  C   UNL     1      41.948 -13.328  -2.956  1.00  0.00     0.068 A 
HETATM   25  C   UNL     1      41.363 -14.542  -3.301  1.00  0.00     0.039 A 
HETATM   26  C   UNL     1      40.939 -15.425  -2.299  1.00  0.00     0.032 A 
BRANCH  24  27
HETATM   27  O   UNL     1      42.384 -12.366  -3.821  1.00  0.00    -0.352 OA
BRANCH  27  28
HETATM   28  C   UNL     1      42.021 -11.017  -3.531  1.00  0.00     0.171 C 
HETATM   29  C   UNL     1      42.488 -10.147  -4.684  1.00  0.00     0.034 C 
ENDBRANCH  27  28
ENDBRANCH  24  27
ENDBRANCH  18  21
ENDBRANCH  16  17
ENDBRANCH  15  16
ENDBRANCH   1  15
BRANCH   2  30
HETATM   30  C   UNL     1      42.303 -15.574   5.342  1.00  0.00     0.043 A 
HETATM   31  C   UNL     1      43.110 -14.482   5.701  1.00  0.00     0.031 A 
HETATM   32  C   UNL     1      42.541 -13.230   5.940  1.00  0.00     0.021 A 
HETATM   33  C   UNL     1      41.163 -13.062   5.817  1.00  0.00     0.011 A 
HETATM   34 BR   UNL     1      40.393 -11.366   6.135  1.00  0.00    -0.051 Br
HETATM   35  C   UNL     1      40.348 -14.134   5.458  1.00  0.00     0.021 A 
HETATM   36  C   UNL     1      40.918 -15.386   5.216  1.00  0.00     0.031 A 
ENDBRANCH   2  30
TORSDOF 7
ENDMDL
MODEL 4
REMARK VINA RESULT:      -8.1      2.180      2.422
REMARK  7 active torsions:
REMARK  status: ('A' for Active; 'I' for Inactive)
REMARK    1  A    between atoms: C_2  and  O_3 
REMARK    2  A    between atoms: O_3  and  C_4 
REMARK    3  A    between atoms: C_7  and  N_8 
REMARK       I    between atoms: N_8  and  C_9 
REMARK    4  A    between atoms: C_9  and  C_10 
REMARK    5  A    between atoms: C_10  and  S_11 
REMARK    6  A    between atoms: S_11  and  C_12 
REMARK    7  A    between atoms: N_13  and  C_14 
ROOT
HETATM    1  C   UNL     1      42.134 -13.742   2.891  1.00  0.00     0.177 A 
HETATM    2  N   UNL     1      41.438 -14.763   2.206  1.00  0.00    -0.276 N 
HETATM    3  C   UNL     1      40.211 -14.405   1.536  1.00  0.00     0.124 A 
HETATM    4  N   UNL     1      39.497 -15.260   0.827  1.00  0.00    -0.384 N 
HETATM    5  H   UNL     1      38.657 -14.966   0.351  1.00  0.00     0.157 HD
HETATM    6  H   UNL     1      39.801 -16.219   0.727  1.00  0.00     0.157 HD
HETATM    7  C   UNL     1      39.809 -13.039   1.639  1.00  0.00     0.081 A 
HETATM    8  C   UNL     1      40.643 -12.148   2.308  1.00  0.00     0.187 A 
HETATM    9  N   UNL     1      40.158 -10.915   2.328  1.00  0.00    -0.153 NA
HETATM   10  N   UNL     1      38.994 -11.026   1.662  1.00  0.00    -0.280 N 
HETATM   11  H   UNL     1      38.429 -10.188   1.551  1.00  0.00     0.189 HD
HETATM   12  C   UNL     1      38.720 -12.307   1.226  1.00  0.00     0.042 A 
HETATM   13  C   UNL     1      37.471 -12.630   0.505  1.00  0.00     0.071 C 
HETATM   14  N   UNL     1      41.829 -12.478   2.947  1.00  0.00    -0.202 NA
ENDROOT
BRANCH   1  15
HETATM   15  S   UNL     1      43.587 -14.177   3.830  1.00  0.00    -0.082 SA
BRANCH  15  16
HETATM   16  C   UNL     1      42.822 -14.662   5.408  1.00  0.00     0.185 C 
BRANCH  16  17
HETATM   17  C   UNL     1      43.853 -14.619   6.512  1.00  0.00     0.231 C 
HETATM   18  N   UNL     1      44.574 -15.709   6.898  1.00  0.00    -0.327 N 
HETATM   19  H   UNL     1      45.330 -15.424   7.513  1.00  0.00     0.169 HD
HETATM   20  O   UNL     1      44.124 -13.542   7.059  1.00  0.00    -0.272 OA
BRANCH  18  21
HETATM   21  C   UNL     1      44.467 -17.090   6.669  1.00  0.00     0.034 A 
HETATM   22  C   UNL     1      44.842 -17.745   5.500  1.00  0.00     0.032 A 
HETATM   23  C   UNL     1      44.638 -19.124   5.364  1.00  0.00     0.039 A 
HETATM   24  C   UNL     1      44.052 -19.872   6.385  1.00  0.00     0.068 A 
HETATM   25  C   UNL     1      43.673 -19.225   7.556  1.00  0.00     0.039 A 
HETATM   26  C   UNL     1      43.870 -17.844   7.689  1.00  0.00     0.032 A 
BRANCH  24  27
HETATM   27  O   UNL     1      43.899 -21.201   6.109  1.00  0.00    -0.352 OA
BRANCH  27  28
HETATM   28  C   UNL     1      45.020 -21.882   5.548  1.00  0.00     0.171 C 
HETATM   29  C   UNL     1      44.509 -22.808   4.458  1.00  0.00     0.034 C 
ENDBRANCH  27  28
ENDBRANCH  24  27
ENDBRANCH  18  21
ENDBRANCH  16  17
ENDBRANCH  15  16
ENDBRANCH   1  15
BRANCH   2  30
HETATM   30  C   UNL     1      41.953 -16.089   2.108  1.00  0.00     0.043 A 
HETATM   31  C   UNL     1      42.945 -16.392   1.161  1.00  0.00     0.031 A 
HETATM   32  C   UNL     1      43.496 -17.674   1.099  1.00  0.00     0.021 A 
HETATM   33  C   UNL     1      43.061 -18.657   1.986  1.00  0.00     0.011 A 
HETATM   34 BR   UNL     1      43.810 -20.390   1.906  1.00  0.00    -0.051 Br
HETATM   35  C   UNL     1      42.080 -18.371   2.934  1.00  0.00     0.021 A 
HETATM   36  C   UNL     1      41.531 -17.088   2.997  1.00  0.00     0.031 A 
ENDBRANCH   2  30
TORSDOF 7
ENDMDL
MODEL 5
REMARK VINA RESULT:      -8.0      3.076      5.416
REMARK  7 active torsions:
REMARK  status: ('A' for Active; 'I' for Inactive)
REMARK    1  A    between atoms: C_2  and  O_3 
REMARK    2  A    between atoms: O_3  and  C_4 
REMARK    3  A    between atoms: C_7  and  N_8 
REMARK       I    between atoms: N_8  and  C_9 
REMARK    4  A    between atoms: C_9  and  C_10 
REMARK    5  A    between atoms: C_10  and  S_11 
REMARK    6  A    between atoms: S_11  and  C_12 
REMARK    7  A    between atoms: N_13  and  C_14 
ROOT
HETATM    1  C   UNL     1      39.765 -13.381   3.451  1.00  0.00     0.177 A 
HETATM    2  N   UNL     1      40.412 -13.483   4.703  1.00  0.00    -0.276 N 
HETATM    3  C   UNL     1      40.288 -12.373   5.616  1.00  0.00     0.124 A 
HETATM    4  N   UNL     1      40.808 -12.370   6.829  1.00  0.00    -0.384 N 
HETATM    5  H   UNL     1      40.678 -11.584   7.448  1.00  0.00     0.157 HD
HETATM    6  H   UNL     1      41.324 -13.173   7.165  1.00  0.00     0.157 HD
HETATM    7  C   UNL     1      39.519 -11.260   5.157  1.00  0.00     0.081 A 
HETATM    8  C   UNL     1      38.900 -11.346   3.914  1.00  0.00     0.187 A 
HETATM    9  N   UNL     1      38.217 -10.253   3.610  1.00  0.00    -0.153 NA
HETATM   10  N   UNL     1      38.408  -9.456   4.678  1.00  0.00    -0.280 N 
HETATM   11  H   UNL     1      37.972  -8.539   4.670  1.00  0.00     0.189 HD
HETATM   12  C   UNL     1      39.208 -10.016   5.654  1.00  0.00     0.042 A 
HETATM   13  C   UNL     1      39.557  -9.278   6.886  1.00  0.00     0.071 C 
HETATM   14  N   UNL     1      39.005 -12.412   3.032  1.00  0.00    -0.202 NA
ENDROOT
BRANCH   1  15
HETATM   15  S   UNL     1      40.001 -14.683   2.256  1.00  0.00    -0.082 SA
BRANCH  15  16
HETATM   16  C   UNL     1      41.484 -14.070   1.396  1.00  0.00     0.185 C 
BRANCH  16  17
HETATM   17  C   UNL     1      41.654 -14.801   0.084  1.00  0.00     0.231 C 
HETATM   18  N   UNL     1      42.036 -16.106   0.004  1.00  0.00    -0.327 N 
HETATM   19  H   UNL     1      41.907 -16.448  -0.943  1.00  0.00     0.169 HD
HETATM   20  O   UNL     1      41.373 -14.230  -0.978  1.00  0.00    -0.272 OA
BRANCH  18  21
HETATM   21  C   UNL     1      42.588 -17.026   0.910  1.00  0.00     0.034 A 
HETATM   22  C   UNL     1      43.944 -17.306   1.049  1.00  0.00     0.032 A 
HETATM   23  C   UNL     1      44.376 -18.288   1.951  1.00  0.00     0.039 A 
HETATM   24  C   UNL     1      43.466 -19.009   2.724  1.00  0.00     0.068 A 
HETATM   25  C   UNL     1      42.109 -18.736   2.590  1.00  0.00     0.039 A 
HETATM   26  C   UNL     1      41.677 -17.760   1.682  1.00  0.00     0.032 A 
BRANCH  24  27
HETATM   27  O   UNL     1      44.025 -19.944   3.547  1.00  0.00    -0.352 OA
BRANCH  27  28
HETATM   28  C   UNL     1      44.917 -20.886   2.950  1.00  0.00     0.171 C 
HETATM   29  C   UNL     1      44.091 -21.847   2.113  1.00  0.00     0.034 C 
ENDBRANCH  27  28
ENDBRANCH  24  27
ENDBRANCH  18  21
ENDBRANCH  16  17
ENDBRANCH  15  16
ENDBRANCH   1  15
BRANCH   2  30
HETATM   30  C   UNL     1      41.107 -14.665   5.096  1.00  0.00     0.043 A 
HETATM   31  C   UNL     1      42.476 -14.804   4.819  1.00  0.00     0.031 A 
HETATM   32  C   UNL     1      43.175 -15.933   5.253  1.00  0.00     0.021 A 
HETATM   33  C   UNL     1      42.509 -16.925   5.969  1.00  0.00     0.011 A 
HETATM   34 BR   UNL     1      43.455 -18.450   6.561  1.00  0.00    -0.051 Br
HETATM   35  C   UNL     1      41.151 -16.801   6.255  1.00  0.00     0.021 A 
HETATM   36  C   UNL     1      40.452 -15.671   5.823  1.00  0.00     0.031 A 
ENDBRANCH   2  30
TORSDOF 7
ENDMDL
MODEL 6
REMARK VINA RESULT:      -7.9      2.447      5.635
REMARK  7 active torsions:
REMARK  status: ('A' for Active; 'I' for Inactive)
REMARK    1  A    between atoms: C_2  and  O_3 
REMARK    2  A    between atoms: O_3  and  C_4 
REMARK    3  A    between atoms: C_7  and  N_8 
REMARK       I    between atoms: N_8  and  C_9 
REMARK    4  A    between atoms: C_9  and  C_10 
REMARK    5  A    between atoms: C_10  and  S_11 
REMARK    6  A    between atoms: S_11  and  C_12 
REMARK    7  A    between atoms: N_13  and  C_14 
ROOT
HETATM    1  C   UNL     1      42.597 -13.993   1.893  1.00  0.00     0.177 A 
HETATM    2  N   UNL     1      42.299 -15.211   1.241  1.00  0.00    -0.276 N 
HETATM    3  C   UNL     1      41.594 -15.145  -0.016  1.00  0.00     0.124 A 
HETATM    4  N   UNL     1      41.299 -16.209  -0.740  1.00  0.00    -0.384 N 
HETATM    5  H   UNL     1      40.827 -16.121  -1.627  1.00  0.00     0.157 HD
HETATM    6  H   UNL     1      41.571 -17.131  -0.424  1.00  0.00     0.157 HD
HETATM    7  C   UNL     1      41.253 -13.839  -0.482  1.00  0.00     0.081 A 
HETATM    8  C   UNL     1      41.673 -12.738   0.258  1.00  0.00     0.187 A 
HETATM    9  N   UNL     1      41.297 -11.588  -0.283  1.00  0.00    -0.153 NA
HETATM   10  N   UNL     1      40.624 -11.966  -1.386  1.00  0.00    -0.280 N 
HETATM   11  H   UNL     1      40.228 -11.238  -1.973  1.00  0.00     0.189 HD
HETATM   12  C   UNL     1      40.553 -13.335  -1.553  1.00  0.00     0.042 A 
HETATM   13  C   UNL     1      39.826 -13.939  -2.689  1.00  0.00     0.071 C 
HETATM   14  N   UNL     1      42.359 -12.789   1.462  1.00  0.00    -0.202 NA
ENDROOT
BRANCH   1  15
HETATM   15  S   UNL     1      43.359 -14.048   3.504  1.00  0.00    -0.082 SA
BRANCH  15  16
HETATM   16  C   UNL     1      42.042 -13.297   4.512  1.00  0.00     0.185 C 
BRANCH  16  17
HETATM   17  C   UNL     1      41.029 -14.349   4.898  1.00  0.00     0.231 C 
HETATM   18  N   UNL     1      39.931 -14.637   4.143  1.00  0.00    -0.327 N 
HETATM   19  H   UNL     1      39.493 -15.489   4.478  1.00  0.00     0.169 HD
HETATM   20  O   UNL     1      41.217 -15.045   5.905  1.00  0.00    -0.272 OA
BRANCH  18  21
HETATM   21  C   UNL     1      39.282 -14.003   3.071  1.00  0.00     0.034 A 
HETATM   22  C   UNL     1      39.065 -12.635   2.955  1.00  0.00     0.032 A 
HETATM   23  C   UNL     1      38.354 -12.120   1.862  1.00  0.00     0.039 A 
HETATM   24  C   UNL     1      37.844 -12.959   0.872  1.00  0.00     0.068 A 
HETATM   25  C   UNL     1      38.055 -14.329   0.982  1.00  0.00     0.039 A 
HETATM   26  C   UNL     1      38.759 -14.845   2.078  1.00  0.00     0.032 A 
BRANCH  24  27
HETATM   27  O   UNL     1      37.159 -12.324  -0.123  1.00  0.00    -0.352 OA
BRANCH  27  28
HETATM   28  C   UNL     1      36.806 -10.958   0.099  1.00  0.00     0.171 C 
HETATM   29  C   UNL     1      37.234 -10.160  -1.120  1.00  0.00     0.034 C 
ENDBRANCH  27  28
ENDBRANCH  24  27
ENDBRANCH  18  21
ENDBRANCH  16  17
ENDBRANCH  15  16
ENDBRANCH   1  15
BRANCH   2  30
HETATM   30  C   UNL     1      42.737 -16.466   1.756  1.00  0.00     0.043 A 
HETATM   31  C   UNL     1      43.953 -17.021   1.326  1.00  0.00     0.031 A 
HETATM   32  C   UNL     1      44.416 -18.221   1.871  1.00  0.00     0.021 A 
HETATM   33  C   UNL     1      43.668 -18.869   2.851  1.00  0.00     0.011 A 
HETATM   34 BR   UNL     1      44.297 -20.490   3.591  1.00  0.00    -0.051 Br
HETATM   35  C   UNL     1      42.460 -18.331   3.291  1.00  0.00     0.021 A 
HETATM   36  C   UNL     1      41.998 -17.130   2.748  1.00  0.00     0.031 A 
ENDBRANCH   2  30
TORSDOF 7
ENDMDL
MODEL 7
REMARK VINA RESULT:      -7.4      3.652      8.111
REMARK  7 active torsions:
REMARK  status: ('A' for Active; 'I' for Inactive)
REMARK    1  A    between atoms: C_2  and  O_3 
REMARK    2  A    between atoms: O_3  and  C_4 
REMARK    3  A    between atoms: C_7  and  N_8 
REMARK       I    between atoms: N_8  and  C_9 
REMARK    4  A    between atoms: C_9  and  C_10 
REMARK    5  A    between atoms: C_10  and  S_11 
REMARK    6  A    between atoms: S_11  and  C_12 
REMARK    7  A    between atoms: N_13  and  C_14 
ROOT
HETATM    1  C   UNL     1      40.234 -14.744   3.490  1.00  0.00     0.177 A 
HETATM    2  N   UNL     1      41.300 -15.027   4.374  1.00  0.00    -0.276 N 
HETATM    3  C   UNL     1      41.582 -14.067   5.414  1.00  0.00     0.124 A 
HETATM    4  N   UNL     1      42.521 -14.241   6.326  1.00  0.00    -0.384 N 
HETATM    5  H   UNL     1      42.672 -13.559   7.053  1.00  0.00     0.157 HD
HETATM    6  H   UNL     1      43.085 -15.081   6.323  1.00  0.00     0.157 HD
HETATM    7  C   UNL     1      40.753 -12.905   5.444  1.00  0.00     0.081 A 
HETATM    8  C   UNL     1      39.708 -12.809   4.531  1.00  0.00     0.187 A 
HETATM    9  N   UNL     1      39.015 -11.688   4.668  1.00  0.00    -0.153 NA
HETATM   10  N   UNL     1      39.632 -11.060   5.685  1.00  0.00    -0.280 N 
HETATM   11  H   UNL     1      39.271 -10.155   5.974  1.00  0.00     0.189 HD
HETATM   12  C   UNL     1      40.713 -11.752   6.194  1.00  0.00     0.042 A 
HETATM   13  C   UNL     1      41.536 -11.205   7.292  1.00  0.00     0.071 C 
HETATM   14  N   UNL     1      39.421 -13.729   3.534  1.00  0.00    -0.202 NA
ENDROOT
BRANCH   1  15
HETATM   15  S   UNL     1      39.939 -15.849   2.123  1.00  0.00    -0.082 SA
BRANCH  15  16
HETATM   16  C   UNL     1      40.248 -14.727   0.724  1.00  0.00     0.185 C 
BRANCH  16  17
HETATM   17  C   UNL     1      41.308 -15.312  -0.179  1.00  0.00     0.231 C 
HETATM   18  N   UNL     1      41.181 -15.371  -1.534  1.00  0.00    -0.327 N 
HETATM   19  H   UNL     1      42.070 -15.623  -1.955  1.00  0.00     0.169 HD
HETATM   20  O   UNL     1      42.381 -15.700   0.304  1.00  0.00    -0.272 OA
BRANCH  18  21
HETATM   21  C   UNL     1      40.112 -15.207  -2.430  1.00  0.00     0.034 A 
HETATM   22  C   UNL     1      39.203 -14.154  -2.415  1.00  0.00     0.032 A 
HETATM   23  C   UNL     1      38.140 -14.123  -3.327  1.00  0.00     0.039 A 
HETATM   24  C   UNL     1      37.961 -15.141  -4.263  1.00  0.00     0.068 A 
HETATM   25  C   UNL     1      38.865 -16.198  -4.283  1.00  0.00     0.039 A 
HETATM   26  C   UNL     1      39.924 -16.233  -3.366  1.00  0.00     0.032 A 
BRANCH  24  27
HETATM   27  O   UNL     1      36.875 -14.990  -5.077  1.00  0.00    -0.352 OA
BRANCH  27  28
HETATM   28  C   UNL     1      35.839 -14.119  -4.624  1.00  0.00     0.171 C 
HETATM   29  C   UNL     1      35.542 -13.126  -5.733  1.00  0.00     0.034 C 
ENDBRANCH  27  28
ENDBRANCH  24  27
ENDBRANCH  18  21
ENDBRANCH  16  17
ENDBRANCH  15  16
ENDBRANCH   1  15
BRANCH   2  30
HETATM   30  C   UNL     1      42.032 -16.248   4.301  1.00  0.00     0.043 A 
HETATM   31  C   UNL     1      43.193 -16.329   3.515  1.00  0.00     0.031 A 
HETATM   32  C   UNL     1      43.947 -17.504   3.487  1.00  0.00     0.021 A 
HETATM   33  C   UNL     1      43.547 -18.601   4.247  1.00  0.00     0.011 A 
HETATM   34 BR   UNL     1      44.571 -20.189   4.212  1.00  0.00    -0.051 Br
HETATM   35  C   UNL     1      42.400 -18.536   5.035  1.00  0.00     0.021 A 
HETATM   36  C   UNL     1      41.647 -17.360   5.065  1.00  0.00     0.031 A 
ENDBRANCH   2  30
TORSDOF 7
ENDMDL
MODEL 8
REMARK VINA RESULT:      -7.3      3.889      8.307
REMARK  7 active torsions:
REMARK  status: ('A' for Active; 'I' for Inactive)
REMARK    1  A    between atoms: C_2  and  O_3 
REMARK    2  A    between atoms: O_3  and  C_4 
REMARK    3  A    between atoms: C_7  and  N_8 
REMARK       I    between atoms: N_8  and  C_9 
REMARK    4  A    between atoms: C_9  and  C_10 
REMARK    5  A    between atoms: C_10  and  S_11 
REMARK    6  A    between atoms: S_11  and  C_12 
REMARK    7  A    between atoms: N_13  and  C_14 
ROOT
HETATM    1  C   UNL     1      41.946 -17.271   2.332  1.00  0.00     0.177 A 
HETATM    2  N   UNL     1      42.473 -16.909   3.592  1.00  0.00    -0.276 N 
HETATM    3  C   UNL     1      43.393 -17.824   4.223  1.00  0.00     0.124 A 
HETATM    4  N   UNL     1      43.985 -17.577   5.377  1.00  0.00    -0.384 N 
HETATM    5  H   UNL     1      44.643 -18.230   5.774  1.00  0.00     0.157 HD
HETATM    6  H   UNL     1      43.807 -16.709   5.866  1.00  0.00     0.157 HD
HETATM    7  C   UNL     1      43.679 -19.027   3.508  1.00  0.00     0.081 A 
HETATM    8  C   UNL     1      43.116 -19.202   2.248  1.00  0.00     0.187 A 
HETATM    9  N   UNL     1      43.463 -20.353   1.692  1.00  0.00    -0.153 NA
HETATM   10  N   UNL     1      44.259 -20.921   2.617  1.00  0.00    -0.280 N 
HETATM   11  H   UNL     1      44.651 -21.835   2.409  1.00  0.00     0.189 HD
HETATM   12  C   UNL     1      44.419 -20.160   3.757  1.00  0.00     0.042 A 
HETATM   13  C   UNL     1      45.232 -20.633   4.897  1.00  0.00     0.071 C 
HETATM   14  N   UNL     1      42.238 -18.326   1.628  1.00  0.00    -0.202 NA
ENDROOT
BRANCH   1  15
HETATM   15  S   UNL     1      40.715 -16.220   1.584  1.00  0.00    -0.082 SA
BRANCH  15  16
HETATM   16  C   UNL     1      41.701 -15.457   0.258  1.00  0.00     0.185 C 
BRANCH  16  17
HETATM   17  C   UNL     1      40.885 -15.388  -1.012  1.00  0.00     0.231 C 
HETATM   18  N   UNL     1      39.904 -14.465  -1.217  1.00  0.00    -0.327 N 
HETATM   19  H   UNL     1      39.617 -14.473  -2.190  1.00  0.00     0.169 HD
HETATM   20  O   UNL     1      41.146 -16.149  -1.953  1.00  0.00    -0.272 OA
BRANCH  18  21
HETATM   21  C   UNL     1      39.206 -13.572  -0.387  1.00  0.00     0.034 A 
HETATM   22  C   UNL     1      37.994 -13.836   0.243  1.00  0.00     0.032 A 
HETATM   23  C   UNL     1      37.361 -12.846   1.005  1.00  0.00     0.039 A 
HETATM   24  C   UNL     1      37.920 -11.576   1.147  1.00  0.00     0.068 A 
HETATM   25  C   UNL     1      39.130 -11.303   0.518  1.00  0.00     0.039 A 
HETATM   26  C   UNL     1      39.760 -12.291  -0.250  1.00  0.00     0.032 A 
BRANCH  24  27
HETATM   27  O   UNL     1      37.187 -10.706   1.902  1.00  0.00    -0.352 OA
BRANCH  27  28
HETATM   28  C   UNL     1      37.896  -9.918   2.858  1.00  0.00     0.171 C 
HETATM   29  C   UNL     1      38.316 -10.830   3.998  1.00  0.00     0.034 C 
ENDBRANCH  27  28
ENDBRANCH  24  27
ENDBRANCH  18  21
ENDBRANCH  16  17
ENDBRANCH  15  16
ENDBRANCH   1  15
BRANCH   2  30
HETATM   30  C   UNL     1      42.175 -15.654   4.199  1.00  0.00     0.043 A 
HETATM   31  C   UNL     1      41.101 -15.541   5.097  1.00  0.00     0.031 A 
HETATM   32  C   UNL     1      40.840 -14.329   5.739  1.00  0.00     0.021 A 
HETATM   33  C   UNL     1      41.654 -13.225   5.491  1.00  0.00     0.011 A 
HETATM   34 BR   UNL     1      41.304 -11.587   6.364  1.00  0.00    -0.051 Br
HETATM   35  C   UNL     1      42.725 -13.321   4.605  1.00  0.00     0.021 A 
HETATM   36  C   UNL     1      42.988 -14.535   3.964  1.00  0.00     0.031 A 
ENDBRANCH   2  30
TORSDOF 7
ENDMDL
MODEL 9
REMARK VINA RESULT:      -7.3      3.393      4.927
REMARK  7 active torsions:
REMARK  status: ('A' for Active; 'I' for Inactive)
REMARK    1  A    between atoms: C_2  and  O_3 
REMARK    2  A    between atoms: O_3  and  C_4 
REMARK    3  A    between atoms: C_7  and  N_8 
REMARK       I    between atoms: N_8  and  C_9 
REMARK    4  A    between atoms: C_9  and  C_10 
REMARK    5  A    between atoms: C_10  and  S_11 
REMARK    6  A    between atoms: S_11  and  C_12 
REMARK    7  A    between atoms: N_13  and  C_14 
ROOT
HETATM    1  C   UNL     1      41.567 -12.176   4.417  1.00  0.00     0.177 A 
HETATM    2  N   UNL     1      40.649 -11.976   3.361  1.00  0.00    -0.276 N 
HETATM    3  C   UNL     1      39.689 -10.908   3.499  1.00  0.00     0.124 A 
HETATM    4  N   UNL     1      38.812 -10.595   2.563  1.00  0.00    -0.384 N 
HETATM    5  H   UNL     1      38.173  -9.824   2.686  1.00  0.00     0.157 HD
HETATM    6  H   UNL     1      38.790 -11.109   1.692  1.00  0.00     0.157 HD
HETATM    7  C   UNL     1      39.753 -10.152   4.709  1.00  0.00     0.081 A 
HETATM    8  C   UNL     1      40.758 -10.447   5.625  1.00  0.00     0.187 A 
HETATM    9  N   UNL     1      40.710  -9.673   6.699  1.00  0.00    -0.153 NA
HETATM   10  N   UNL     1      39.653  -8.874   6.463  1.00  0.00    -0.280 N 
HETATM   11  H   UNL     1      39.413  -8.183   7.168  1.00  0.00     0.189 HD
HETATM   12  C   UNL     1      39.019  -9.129   5.263  1.00  0.00     0.042 A 
HETATM   13  C   UNL     1      37.818  -8.375   4.846  1.00  0.00     0.071 C 
HETATM   14  N   UNL     1      41.692 -11.464   5.499  1.00  0.00    -0.202 NA
ENDROOT
BRANCH   1  15
HETATM   15  S   UNL     1      42.684 -13.563   4.330  1.00  0.00    -0.082 SA
BRANCH  15  16
HETATM   16  C   UNL     1      42.040 -14.586   5.690  1.00  0.00     0.185 C 
BRANCH  16  17
HETATM   17  C   UNL     1      40.757 -15.260   5.262  1.00  0.00     0.231 C 
HETATM   18  N   UNL     1      40.719 -16.506   4.714  1.00  0.00    -0.327 N 
HETATM   19  H   UNL     1      39.760 -16.840   4.675  1.00  0.00     0.169 HD
HETATM   20  O   UNL     1      39.670 -14.704   5.472  1.00  0.00    -0.272 OA
BRANCH  18  21
HETATM   21  C   UNL     1      41.683 -17.373   4.173  1.00  0.00     0.034 A 
HETATM   22  C   UNL     1      42.522 -18.203   4.908  1.00  0.00     0.032 A 
HETATM   23  C   UNL     1      43.487 -18.987   4.261  1.00  0.00     0.039 A 
HETATM   24  C   UNL     1      43.635 -18.952   2.875  1.00  0.00     0.068 A 
HETATM   25  C   UNL     1      42.801 -18.122   2.133  1.00  0.00     0.039 A 
HETATM   26  C   UNL     1      41.841 -17.333   2.781  1.00  0.00     0.032 A 
BRANCH  24  27
HETATM   27  O   UNL     1      44.625 -19.753   2.382  1.00  0.00    -0.352 OA
BRANCH  27  28
HETATM   28  C   UNL     1      44.589 -21.132   2.750  1.00  0.00     0.171 C 
HETATM   29  C   UNL     1      43.887 -21.895   1.641  1.00  0.00     0.034 C 
ENDBRANCH  27  28
ENDBRANCH  24  27
ENDBRANCH  18  21
ENDBRANCH  16  17
ENDBRANCH  15  16
ENDBRANCH   1  15
BRANCH   2  30
HETATM   30  C   UNL     1      40.704 -12.745   2.162  1.00  0.00     0.043 A 
HETATM   31  C   UNL     1      41.615 -12.408   1.148  1.00  0.00     0.031 A 
HETATM   32  C   UNL     1      41.715 -13.193  -0.003  1.00  0.00     0.021 A 
HETATM   33  C   UNL     1      40.907 -14.319  -0.144  1.00  0.00     0.011 A 
HETATM   34 BR   UNL     1      41.045 -15.383  -1.700  1.00  0.00    -0.051 Br
HETATM   35  C   UNL     1      39.999 -14.669   0.853  1.00  0.00     0.021 A 
HETATM   36  C   UNL     1      39.901 -13.886   2.006  1.00  0.00     0.031 A 
ENDBRANCH   2  30
TORSDOF 7
ENDMDL
MODEL 10
REMARK VINA RESULT:      -7.2      4.312      7.692
REMARK  7 active torsions:
REMARK  status: ('A' for Active; 'I' for Inactive)
REMARK    1  A    between atoms: C_2  and  O_3 
REMARK    2  A    between atoms: O_3  and  C_4 
REMARK    3  A    between atoms: C_7  and  N_8 
REMARK       I    between atoms: N_8  and  C_9 
REMARK    4  A    between atoms: C_9  and  C_10 
REMARK    5  A    between atoms: C_10  and  S_11 
REMARK    6  A    between atoms: S_11  and  C_12 
REMARK    7  A    between atoms: N_13  and  C_14 
ROOT
HETATM    1  C   UNL     1      41.695 -15.931   5.434  1.00  0.00     0.177 A 
HETATM    2  N   UNL     1      42.067 -16.317   4.126  1.00  0.00    -0.276 N 
HETATM    3  C   UNL     1      42.906 -17.482   3.983  1.00  0.00     0.124 A 
HETATM    4  N   UNL     1      43.282 -17.965   2.814  1.00  0.00    -0.384 N 
HETATM    5  H   UNL     1      43.848 -18.798   2.753  1.00  0.00     0.157 HD
HETATM    6  H   UNL     1      42.980 -17.520   1.957  1.00  0.00     0.157 HD
HETATM    7  C   UNL     1      43.291 -18.136   5.193  1.00  0.00     0.081 A 
HETATM    8  C   UNL     1      42.788 -17.657   6.398  1.00  0.00     0.187 A 
HETATM    9  N   UNL     1      43.217 -18.354   7.440  1.00  0.00    -0.153 NA
HETATM   10  N   UNL     1      44.009 -19.291   6.887  1.00  0.00    -0.280 N 
HETATM   11  H   UNL     1      44.464 -19.954   7.507  1.00  0.00     0.189 HD
HETATM   12  C   UNL     1      44.102 -19.200   5.513  1.00  0.00     0.042 A 
HETATM   13  C   UNL     1      44.952 -20.123   4.731  1.00  0.00     0.071 C 
HETATM   14  N   UNL     1      41.974 -16.544   6.547  1.00  0.00    -0.202 NA
ENDROOT
BRANCH   1  15
HETATM   15  S   UNL     1      40.761 -14.428   5.651  1.00  0.00    -0.082 SA
BRANCH  15  16
HETATM   16  C   UNL     1      42.117 -13.221   5.798  1.00  0.00     0.185 C 
BRANCH  16  17
HETATM   17  C   UNL     1      41.611 -11.839   5.457  1.00  0.00     0.231 C 
HETATM   18  N   UNL     1      41.406 -10.871   6.394  1.00  0.00    -0.327 N 
HETATM   19  H   UNL     1      41.250  -9.976   5.940  1.00  0.00     0.169 HD
HETATM   20  O   UNL     1      41.433 -11.523   4.273  1.00  0.00    -0.272 OA
BRANCH  18  21
HETATM   21  C   UNL     1      41.326 -10.860   7.796  1.00  0.00     0.034 A 
HETATM   22  C   UNL     1      40.149 -10.900   8.536  1.00  0.00     0.032 A 
HETATM   23  C   UNL     1      40.190 -10.829   9.935  1.00  0.00     0.039 A 
HETATM   24  C   UNL     1      41.400 -10.710  10.618  1.00  0.00     0.068 A 
HETATM   25  C   UNL     1      42.581 -10.667   9.884  1.00  0.00     0.039 A 
HETATM   26  C   UNL     1      42.540 -10.731   8.486  1.00  0.00     0.032 A 
BRANCH  24  27
HETATM   27  O   UNL     1      41.289 -10.634  11.977  1.00  0.00    -0.352 OA
BRANCH  27  28
HETATM   28  C   UNL     1      42.409 -11.071  12.746  1.00  0.00     0.171 C 
HETATM   29  C   UNL     1      42.331 -10.402  14.107  1.00  0.00     0.034 C 
ENDBRANCH  27  28
ENDBRANCH  24  27
ENDBRANCH  18  21
ENDBRANCH  16  17
ENDBRANCH  15  16
ENDBRANCH   1  15
BRANCH   2  30
HETATM   30  C   UNL     1      41.580 -15.633   2.974  1.00  0.00     0.043 A 
HETATM   31  C   UNL     1      40.310 -15.936   2.458  1.00  0.00     0.031 A 
HETATM   32  C   UNL     1      39.802 -15.229   1.366  1.00  0.00     0.021 A 
HETATM   33  C   UNL     1      40.561 -14.214   0.787  1.00  0.00     0.011 A 
HETATM   34 BR   UNL     1      39.872 -13.253  -0.688  1.00  0.00    -0.051 Br
HETATM   35  C   UNL     1      41.822 -13.898   1.289  1.00  0.00     0.021 A 
HETATM   36  C   UNL     1      42.328 -14.603   2.383  1.00  0.00     0.031 A 
ENDBRANCH   2  30
TORSDOF 7
ENDMDL
