MODEL 1
REMARK VINA RESULT:      -9.4      0.000      0.000
REMARK  5 active torsions:
REMARK  status: ('A' for Active; 'I' for Inactive)
REMARK    1  A    between atoms: C_7  and  C_8 
REMARK    2  A    between atoms: C_10  and  N_11 
REMARK       I    between atoms: N_11  and  C_12 
REMARK    3  A    between atoms: C_12  and  C_13 
REMARK    4  A    between atoms: C_15  and  O_16 
REMARK    5  A    between atoms: C_19  and  O_20 
ROOT
HETATM    1  C   UNL     1      44.961 -11.821   9.351  1.00  0.00     0.019 A 
HETATM    2  C   UNL     1      44.399 -12.816   8.531  1.00  0.00     0.045 A 
HETATM    3  C   UNL     1      45.117 -13.367   7.465  1.00  0.00     0.035 A 
HETATM    4  C   UNL     1      46.411 -12.900   7.208  1.00  0.00     0.029 A 
HETATM    5  C   UNL     1      46.975 -11.895   7.998  1.00  0.00     0.003 A 
HETATM    6  C   UNL     1      46.254 -11.363   9.065  1.00  0.00     0.016 A 
ENDROOT
BRANCH   3   7
HETATM    7  N   UNL     1      44.628 -14.405   6.635  1.00  0.00    -0.323 N 
HETATM    8  C   UNL     1      44.102 -15.620   7.042  1.00  0.00     0.256 C 
HETATM    9  O   UNL     1      43.920 -15.965   8.205  1.00  0.00    -0.267 OA
HETATM   10  H   UNL     1      44.713 -14.228   5.646  1.00  0.00     0.169 HD
BRANCH   8  11
HETATM   11  C   UNL     1      43.740 -16.598   5.964  1.00  0.00     0.037 A 
HETATM   12  C   UNL     1      44.352 -17.862   6.019  1.00  0.00     0.054 A 
HETATM   13  C   UNL     1      44.069 -18.830   5.059  1.00  0.00     0.071 A 
HETATM   14  C   UNL     1      43.184 -18.521   4.027  1.00  0.00     0.073 A 
HETATM   15  C   UNL     1      42.559 -17.274   3.958  1.00  0.00     0.071 A 
HETATM   16  C   UNL     1      42.826 -16.314   4.938  1.00  0.00     0.054 A 
BRANCH  13  17
HETATM   17  O   UNL     1      44.591 -20.093   5.014  1.00  0.00    -0.356 OA
HETATM   18  C   UNL     1      44.829 -20.642   3.723  1.00  0.00     0.210 C 
ENDBRANCH  13  17
BRANCH  15  19
HETATM   19  O   UNL     1      41.706 -17.126   2.899  1.00  0.00    -0.356 OA
HETATM   20  C   UNL     1      41.988 -17.870   1.721  1.00  0.00     0.210 C 
ENDBRANCH  15  19
ENDBRANCH   8  11
ENDBRANCH   3   7
BRANCH   1  21
HETATM   21  C   UNL     1      44.245 -11.288  10.510  1.00  0.00     0.181 A 
HETATM   22  O   UNL     1      43.001 -11.813  10.757  1.00  0.00    -0.289 OA
HETATM   23  C   UNL     1      42.598 -11.190  11.899  1.00  0.00     0.106 A 
HETATM   24  C   UNL     1      43.605 -10.323  12.285  1.00  0.00     0.094 A 
HETATM   25  C   UNL     1      41.405 -11.376  12.581  1.00  0.00     0.040 A 
HETATM   26  C   UNL     1      43.437  -9.571  13.457  1.00  0.00     0.041 A 
HETATM   27  N   UNL     1      44.642 -10.381  11.388  1.00  0.00    -0.221 NA
HETATM   28  C   UNL     1      42.252  -9.740  14.202  1.00  0.00    -0.060 A 
HETATM   29  C   UNL     1      42.034  -8.939  15.454  1.00  0.00     0.048 C 
HETATM   30  C   UNL     1      41.251 -10.621  13.751  1.00  0.00     0.009 A 
ENDBRANCH   1  21
TORSDOF 5
ENDMDL
MODEL 2
REMARK VINA RESULT:      -9.3      0.296      1.923
REMARK  5 active torsions:
REMARK  status: ('A' for Active; 'I' for Inactive)
REMARK    1  A    between atoms: C_7  and  C_8 
REMARK    2  A    between atoms: C_10  and  N_11 
REMARK       I    between atoms: N_11  and  C_12 
REMARK    3  A    between atoms: C_12  and  C_13 
REMARK    4  A    between atoms: C_15  and  O_16 
REMARK    5  A    between atoms: C_19  and  O_20 
ROOT
HETATM    1  C   UNL     1      44.949 -11.846   9.343  1.00  0.00     0.019 A 
HETATM    2  C   UNL     1      44.373 -12.831   8.520  1.00  0.00     0.045 A 
HETATM    3  C   UNL     1      45.081 -13.388   7.451  1.00  0.00     0.035 A 
HETATM    4  C   UNL     1      46.381 -12.938   7.194  1.00  0.00     0.029 A 
HETATM    5  C   UNL     1      46.960 -11.943   7.986  1.00  0.00     0.003 A 
HETATM    6  C   UNL     1      46.248 -11.405   9.057  1.00  0.00     0.016 A 
ENDROOT
BRANCH   3   7
HETATM    7  N   UNL     1      44.577 -14.416   6.618  1.00  0.00    -0.323 N 
HETATM    8  C   UNL     1      44.093 -15.651   7.018  1.00  0.00     0.256 C 
HETATM    9  O   UNL     1      43.967 -16.026   8.180  1.00  0.00    -0.267 OA
HETATM   10  H   UNL     1      44.616 -14.215   5.631  1.00  0.00     0.169 HD
BRANCH   8  11
HETATM   11  C   UNL     1      43.703 -16.610   5.934  1.00  0.00     0.037 A 
HETATM   12  C   UNL     1      42.693 -16.195   5.048  1.00  0.00     0.054 A 
HETATM   13  C   UNL     1      42.274 -17.025   4.011  1.00  0.00     0.071 A 
HETATM   14  C   UNL     1      42.854 -18.285   3.875  1.00  0.00     0.073 A 
HETATM   15  C   UNL     1      43.865 -18.713   4.739  1.00  0.00     0.071 A 
HETATM   16  C   UNL     1      44.301 -17.868   5.762  1.00  0.00     0.054 A 
BRANCH  13  17
HETATM   17  O   UNL     1      41.312 -16.728   3.085  1.00  0.00    -0.356 OA
HETATM   18  C   UNL     1      41.384 -17.419   1.843  1.00  0.00     0.210 C 
ENDBRANCH  13  17
BRANCH  15  19
HETATM   19  O   UNL     1      44.347 -19.965   4.469  1.00  0.00    -0.356 OA
HETATM   20  C   UNL     1      44.468 -20.340   3.103  1.00  0.00     0.210 C 
ENDBRANCH  15  19
ENDBRANCH   8  11
ENDBRANCH   3   7
BRANCH   1  21
HETATM   21  C   UNL     1      44.242 -11.309  10.505  1.00  0.00     0.181 A 
HETATM   22  O   UNL     1      42.995 -11.825  10.758  1.00  0.00    -0.289 OA
HETATM   23  C   UNL     1      42.603 -11.199  11.902  1.00  0.00     0.106 A 
HETATM   24  C   UNL     1      43.617 -10.338  12.283  1.00  0.00     0.094 A 
HETATM   25  C   UNL     1      41.412 -11.376  12.590  1.00  0.00     0.040 A 
HETATM   26  C   UNL     1      43.459  -9.584  13.455  1.00  0.00     0.041 A 
HETATM   27  N   UNL     1      44.649 -10.404  11.381  1.00  0.00    -0.221 NA
HETATM   28  C   UNL     1      42.277  -9.745  14.206  1.00  0.00    -0.060 A 
HETATM   29  C   UNL     1      42.070  -8.942  15.458  1.00  0.00     0.048 C 
HETATM   30  C   UNL     1      41.268 -10.619  13.760  1.00  0.00     0.009 A 
ENDBRANCH   1  21
TORSDOF 5
ENDMDL
MODEL 3
REMARK VINA RESULT:      -8.5      1.810     10.010
REMARK  5 active torsions:
REMARK  status: ('A' for Active; 'I' for Inactive)
REMARK    1  A    between atoms: C_7  and  C_8 
REMARK    2  A    between atoms: C_10  and  N_11 
REMARK       I    between atoms: N_11  and  C_12 
REMARK    3  A    between atoms: C_12  and  C_13 
REMARK    4  A    between atoms: C_15  and  O_16 
REMARK    5  A    between atoms: C_19  and  O_20 
ROOT
HETATM    1  C   UNL     1      44.752 -13.718   6.933  1.00  0.00     0.019 A 
HETATM    2  C   UNL     1      43.980 -13.159   7.969  1.00  0.00     0.045 A 
HETATM    3  C   UNL     1      44.533 -12.249   8.875  1.00  0.00     0.035 A 
HETATM    4  C   UNL     1      45.885 -11.908   8.750  1.00  0.00     0.029 A 
HETATM    5  C   UNL     1      46.671 -12.472   7.742  1.00  0.00     0.003 A 
HETATM    6  C   UNL     1      46.105 -13.368   6.837  1.00  0.00     0.016 A 
ENDROOT
BRANCH   3   7
HETATM    7  N   UNL     1      43.799 -11.614   9.906  1.00  0.00    -0.323 N 
HETATM    8  C   UNL     1      43.698 -12.016  11.227  1.00  0.00     0.256 C 
HETATM    9  O   UNL     1      44.288 -12.967  11.731  1.00  0.00    -0.267 OA
HETATM   10  H   UNL     1      43.277 -10.803   9.612  1.00  0.00     0.169 HD
BRANCH   8  11
HETATM   11  C   UNL     1      42.777 -11.227  12.108  1.00  0.00     0.037 A 
HETATM   12  C   UNL     1      41.458 -11.050  11.655  1.00  0.00     0.054 A 
HETATM   13  C   UNL     1      40.537 -10.332  12.414  1.00  0.00     0.071 A 
HETATM   14  C   UNL     1      40.947  -9.771  13.623  1.00  0.00     0.073 A 
HETATM   15  C   UNL     1      42.250  -9.943  14.096  1.00  0.00     0.071 A 
HETATM   16  C   UNL     1      43.164 -10.685  13.343  1.00  0.00     0.054 A 
BRANCH  13  17
HETATM   17  O   UNL     1      39.230 -10.103  12.084  1.00  0.00    -0.356 OA
HETATM   18  C   UNL     1      38.685  -8.844  12.462  1.00  0.00     0.210 C 
ENDBRANCH  13  17
BRANCH  15  19
HETATM   19  O   UNL     1      42.497  -9.349  15.303  1.00  0.00    -0.356 OA
HETATM   20  C   UNL     1      41.430  -9.302  16.241  1.00  0.00     0.210 C 
ENDBRANCH  15  19
ENDBRANCH   8  11
ENDBRANCH   3   7
BRANCH   1  21
HETATM   21  C   UNL     1      44.165 -14.616   5.939  1.00  0.00     0.181 A 
HETATM   22  O   UNL     1      44.054 -15.937   6.296  1.00  0.00    -0.289 OA
HETATM   23  C   UNL     1      43.437 -16.518   5.230  1.00  0.00     0.106 A 
HETATM   24  C   UNL     1      43.209 -15.534   4.285  1.00  0.00     0.094 A 
HETATM   25  C   UNL     1      43.081 -17.851   5.089  1.00  0.00     0.040 A 
HETATM   26  C   UNL     1      42.562 -15.880   3.090  1.00  0.00     0.041 A 
HETATM   27  N   UNL     1      43.689 -14.330   4.738  1.00  0.00    -0.221 NA
HETATM   28  C   UNL     1      42.155 -17.218   2.907  1.00  0.00    -0.060 A 
HETATM   29  C   UNL     1      41.472 -17.625   1.633  1.00  0.00     0.048 C 
HETATM   30  C   UNL     1      42.432 -18.183   3.893  1.00  0.00     0.009 A 
ENDBRANCH   1  21
TORSDOF 5
ENDMDL
MODEL 4
REMARK VINA RESULT:      -8.5      3.000     10.597
REMARK  5 active torsions:
REMARK  status: ('A' for Active; 'I' for Inactive)
REMARK    1  A    between atoms: C_7  and  C_8 
REMARK    2  A    between atoms: C_10  and  N_11 
REMARK       I    between atoms: N_11  and  C_12 
REMARK    3  A    between atoms: C_12  and  C_13 
REMARK    4  A    between atoms: C_15  and  O_16 
REMARK    5  A    between atoms: C_19  and  O_20 
ROOT
HETATM    1  C   UNL     1      41.336 -15.596   3.796  1.00  0.00     0.019 A 
HETATM    2  C   UNL     1      41.585 -14.839   4.956  1.00  0.00     0.045 A 
HETATM    3  C   UNL     1      40.824 -13.706   5.261  1.00  0.00     0.035 A 
HETATM    4  C   UNL     1      39.809 -13.318   4.379  1.00  0.00     0.029 A 
HETATM    5  C   UNL     1      39.564 -14.043   3.210  1.00  0.00     0.003 A 
HETATM    6  C   UNL     1      40.321 -15.178   2.925  1.00  0.00     0.016 A 
ENDROOT
BRANCH   3   7
HETATM    7  N   UNL     1      40.991 -12.934   6.435  1.00  0.00    -0.323 N 
HETATM    8  C   UNL     1      41.368 -11.603   6.512  1.00  0.00     0.256 C 
HETATM    9  O   UNL     1      41.559 -10.860   5.554  1.00  0.00    -0.267 OA
HETATM   10  H   UNL     1      40.844 -13.439   7.295  1.00  0.00     0.169 HD
BRANCH   8  11
HETATM   11  C   UNL     1      41.570 -11.033   7.883  1.00  0.00     0.037 A 
HETATM   12  C   UNL     1      40.430 -10.541   8.543  1.00  0.00     0.054 A 
HETATM   13  C   UNL     1      40.530  -9.997   9.821  1.00  0.00     0.071 A 
HETATM   14  C   UNL     1      41.781  -9.926  10.431  1.00  0.00     0.073 A 
HETATM   15  C   UNL     1      42.925 -10.417   9.797  1.00  0.00     0.071 A 
HETATM   16  C   UNL     1      42.817 -10.985   8.525  1.00  0.00     0.054 A 
BRANCH  13  17
HETATM   17  O   UNL     1      39.495  -9.499  10.564  1.00  0.00    -0.356 OA
HETATM   18  C   UNL     1      39.448  -9.880  11.934  1.00  0.00     0.210 C 
ENDBRANCH  13  17
BRANCH  15  19
HETATM   19  O   UNL     1      44.074 -10.293  10.527  1.00  0.00    -0.356 OA
HETATM   20  C   UNL     1      45.258 -10.868   9.990  1.00  0.00     0.210 C 
ENDBRANCH  15  19
ENDBRANCH   8  11
ENDBRANCH   3   7
BRANCH   1  21
HETATM   21  C   UNL     1      42.080 -16.821   3.506  1.00  0.00     0.181 A 
HETATM   22  O   UNL     1      42.949 -17.255   4.475  1.00  0.00    -0.289 OA
HETATM   23  C   UNL     1      43.452 -18.417   3.974  1.00  0.00     0.106 A 
HETATM   24  C   UNL     1      42.874 -18.628   2.735  1.00  0.00     0.094 A 
HETATM   25  C   UNL     1      44.371 -19.264   4.576  1.00  0.00     0.040 A 
HETATM   26  C   UNL     1      43.218 -19.782   2.015  1.00  0.00     0.041 A 
HETATM   27  N   UNL     1      42.014 -17.600   2.439  1.00  0.00    -0.221 NA
HETATM   28  C   UNL     1      44.130 -20.689   2.593  1.00  0.00    -0.060 A 
HETATM   29  C   UNL     1      44.531 -21.927   1.843  1.00  0.00     0.048 C 
HETATM   30  C   UNL     1      44.704 -20.413   3.848  1.00  0.00     0.009 A 
ENDBRANCH   1  21
TORSDOF 5
ENDMDL
MODEL 5
REMARK VINA RESULT:      -8.5      2.933     10.423
REMARK  5 active torsions:
REMARK  status: ('A' for Active; 'I' for Inactive)
REMARK    1  A    between atoms: C_7  and  C_8 
REMARK    2  A    between atoms: C_10  and  N_11 
REMARK       I    between atoms: N_11  and  C_12 
REMARK    3  A    between atoms: C_12  and  C_13 
REMARK    4  A    between atoms: C_15  and  O_16 
REMARK    5  A    between atoms: C_19  and  O_20 
ROOT
HETATM    1  C   UNL     1      41.344 -15.522   3.841  1.00  0.00     0.019 A 
HETATM    2  C   UNL     1      41.580 -14.780   5.013  1.00  0.00     0.045 A 
HETATM    3  C   UNL     1      40.826 -13.642   5.314  1.00  0.00     0.035 A 
HETATM    4  C   UNL     1      39.831 -13.233   4.418  1.00  0.00     0.029 A 
HETATM    5  C   UNL     1      39.600 -13.945   3.238  1.00  0.00     0.003 A 
HETATM    6  C   UNL     1      40.350 -15.085   2.955  1.00  0.00     0.016 A 
ENDROOT
BRANCH   3   7
HETATM    7  N   UNL     1      40.979 -12.883   6.499  1.00  0.00    -0.323 N 
HETATM    8  C   UNL     1      41.411 -11.571   6.599  1.00  0.00     0.256 C 
HETATM    9  O   UNL     1      41.673 -10.832   5.655  1.00  0.00    -0.267 OA
HETATM   10  H   UNL     1      40.777 -13.385   7.350  1.00  0.00     0.169 HD
BRANCH   8  11
HETATM   11  C   UNL     1      41.583 -11.016   7.981  1.00  0.00     0.037 A 
HETATM   12  C   UNL     1      42.884 -11.024   8.513  1.00  0.00     0.054 A 
HETATM   13  C   UNL     1      43.132 -10.524   9.789  1.00  0.00     0.071 A 
HETATM   14  C   UNL     1      42.067 -10.034  10.544  1.00  0.00     0.073 A 
HETATM   15  C   UNL     1      40.767 -10.009  10.030  1.00  0.00     0.071 A 
HETATM   16  C   UNL     1      40.527 -10.488   8.740  1.00  0.00     0.054 A 
BRANCH  13  17
HETATM   17  O   UNL     1      44.351 -10.469  10.407  1.00  0.00    -0.356 OA
HETATM   18  C   UNL     1      45.457 -11.005   9.688  1.00  0.00     0.210 C 
ENDBRANCH  13  17
BRANCH  15  19
HETATM   19  O   UNL     1      39.833  -9.485  10.881  1.00  0.00    -0.356 OA
HETATM   20  C   UNL     1      39.952  -9.803  12.261  1.00  0.00     0.210 C 
ENDBRANCH  15  19
ENDBRANCH   8  11
ENDBRANCH   3   7
BRANCH   1  21
HETATM   21  C   UNL     1      42.081 -16.752   3.551  1.00  0.00     0.181 A 
HETATM   22  O   UNL     1      42.961 -17.181   4.513  1.00  0.00    -0.289 OA
HETATM   23  C   UNL     1      43.453 -18.349   4.016  1.00  0.00     0.106 A 
HETATM   24  C   UNL     1      42.858 -18.570   2.787  1.00  0.00     0.094 A 
HETATM   25  C   UNL     1      44.378 -19.193   4.613  1.00  0.00     0.040 A 
HETATM   26  C   UNL     1      43.189 -19.731   2.074  1.00  0.00     0.041 A 
HETATM   27  N   UNL     1      41.998 -17.541   2.493  1.00  0.00    -0.221 NA
HETATM   28  C   UNL     1      44.106 -20.636   2.648  1.00  0.00    -0.060 A 
HETATM   29  C   UNL     1      44.492 -21.882   1.904  1.00  0.00     0.048 C 
HETATM   30  C   UNL     1      44.697 -20.350   3.892  1.00  0.00     0.009 A 
ENDBRANCH   1  21
TORSDOF 5
ENDMDL
MODEL 6
REMARK VINA RESULT:      -8.4      3.512     10.849
REMARK  5 active torsions:
REMARK  status: ('A' for Active; 'I' for Inactive)
REMARK    1  A    between atoms: C_7  and  C_8 
REMARK    2  A    between atoms: C_10  and  N_11 
REMARK       I    between atoms: N_11  and  C_12 
REMARK    3  A    between atoms: C_12  and  C_13 
REMARK    4  A    between atoms: C_15  and  O_16 
REMARK    5  A    between atoms: C_19  and  O_20 
ROOT
HETATM    1  C   UNL     1      41.132 -15.946   3.011  1.00  0.00     0.019 A 
HETATM    2  C   UNL     1      41.196 -15.123   4.150  1.00  0.00     0.045 A 
HETATM    3  C   UNL     1      40.363 -14.008   4.287  1.00  0.00     0.035 A 
HETATM    4  C   UNL     1      39.464 -13.706   3.257  1.00  0.00     0.029 A 
HETATM    5  C   UNL     1      39.405 -14.498   2.108  1.00  0.00     0.003 A 
HETATM    6  C   UNL     1      40.232 -15.614   1.990  1.00  0.00     0.016 A 
ENDROOT
BRANCH   3   7
HETATM    7  N   UNL     1      40.342 -13.171   5.429  1.00  0.00    -0.323 N 
HETATM    8  C   UNL     1      41.060 -12.003   5.620  1.00  0.00     0.256 C 
HETATM    9  O   UNL     1      41.791 -11.471   4.789  1.00  0.00    -0.267 OA
HETATM   10  H   UNL     1      39.759 -13.502   6.182  1.00  0.00     0.169 HD
BRANCH   8  11
HETATM   11  C   UNL     1      40.940 -11.344   6.961  1.00  0.00     0.037 A 
HETATM   12  C   UNL     1      39.640 -11.093   7.434  1.00  0.00     0.054 A 
HETATM   13  C   UNL     1      39.440 -10.486   8.671  1.00  0.00     0.071 A 
HETATM   14  C   UNL     1      40.548 -10.110   9.428  1.00  0.00     0.073 A 
HETATM   15  C   UNL     1      41.848 -10.358   8.981  1.00  0.00     0.071 A 
HETATM   16  C   UNL     1      42.045 -10.989   7.750  1.00  0.00     0.054 A 
BRANCH  13  17
HETATM   17  O   UNL     1      38.228 -10.202   9.239  1.00  0.00    -0.356 OA
HETATM   18  C   UNL     1      38.233  -9.309  10.346  1.00  0.00     0.210 C 
ENDBRANCH  13  17
BRANCH  15  19
HETATM   19  O   UNL     1      42.830  -9.947   9.840  1.00  0.00    -0.356 OA
HETATM   20  C   UNL     1      42.435  -9.555  11.148  1.00  0.00     0.210 C 
ENDBRANCH  15  19
ENDBRANCH   8  11
ENDBRANCH   3   7
BRANCH   1  21
HETATM   21  C   UNL     1      41.951 -17.152   2.890  1.00  0.00     0.181 A 
HETATM   22  O   UNL     1      42.794 -17.428   3.937  1.00  0.00    -0.289 OA
HETATM   23  C   UNL     1      43.378 -18.609   3.591  1.00  0.00     0.106 A 
HETATM   24  C   UNL     1      42.870 -18.987   2.361  1.00  0.00     0.094 A 
HETATM   25  C   UNL     1      44.310 -19.331   4.321  1.00  0.00     0.040 A 
HETATM   26  C   UNL     1      43.305 -20.192   1.791  1.00  0.00     0.041 A 
HETATM   27  N   UNL     1      41.974 -18.047   1.916  1.00  0.00    -0.221 NA
HETATM   28  C   UNL     1      44.233 -20.978   2.503  1.00  0.00    -0.060 A 
HETATM   29  C   UNL     1      44.731 -22.267   1.914  1.00  0.00     0.048 C 
HETATM   30  C   UNL     1      44.734 -20.534   3.741  1.00  0.00     0.009 A 
ENDBRANCH   1  21
TORSDOF 5
ENDMDL
MODEL 7
REMARK VINA RESULT:      -8.3      6.153     10.789
REMARK  5 active torsions:
REMARK  status: ('A' for Active; 'I' for Inactive)
REMARK    1  A    between atoms: C_7  and  C_8 
REMARK    2  A    between atoms: C_10  and  N_11 
REMARK       I    between atoms: N_11  and  C_12 
REMARK    3  A    between atoms: C_12  and  C_13 
REMARK    4  A    between atoms: C_15  and  O_16 
REMARK    5  A    between atoms: C_19  and  O_20 
ROOT
HETATM    1  C   UNL     1      41.054 -13.969   0.641  1.00  0.00     0.019 A 
HETATM    2  C   UNL     1      41.547 -15.101   1.315  1.00  0.00     0.045 A 
HETATM    3  C   UNL     1      42.327 -14.976   2.469  1.00  0.00     0.035 A 
HETATM    4  C   UNL     1      42.630 -13.695   2.944  1.00  0.00     0.029 A 
HETATM    5  C   UNL     1      42.169 -12.559   2.273  1.00  0.00     0.003 A 
HETATM    6  C   UNL     1      41.382 -12.698   1.131  1.00  0.00     0.016 A 
ENDROOT
BRANCH   3   7
HETATM    7  N   UNL     1      42.810 -16.074   3.220  1.00  0.00    -0.323 N 
HETATM    8  C   UNL     1      43.690 -17.055   2.793  1.00  0.00     0.256 C 
HETATM    9  O   UNL     1      44.243 -17.089   1.698  1.00  0.00    -0.267 OA
HETATM   10  H   UNL     1      42.432 -16.145   4.153  1.00  0.00     0.169 HD
BRANCH   8  11
HETATM   11  C   UNL     1      43.976 -18.174   3.749  1.00  0.00     0.037 A 
HETATM   12  C   UNL     1      43.967 -17.859   5.120  1.00  0.00     0.054 A 
HETATM   13  C   UNL     1      44.221 -18.840   6.075  1.00  0.00     0.071 A 
HETATM   14  C   UNL     1      44.505 -20.138   5.654  1.00  0.00     0.073 A 
HETATM   15  C   UNL     1      44.510 -20.474   4.297  1.00  0.00     0.071 A 
HETATM   16  C   UNL     1      44.230 -19.492   3.343  1.00  0.00     0.054 A 
BRANCH  13  17
HETATM   17  O   UNL     1      44.229 -18.657   7.430  1.00  0.00    -0.356 OA
HETATM   18  C   UNL     1      43.361 -17.654   7.946  1.00  0.00     0.210 C 
ENDBRANCH  13  17
BRANCH  15  19
HETATM   19  O   UNL     1      44.789 -21.788   4.041  1.00  0.00    -0.356 OA
HETATM   20  C   UNL     1      44.446 -22.294   2.758  1.00  0.00     0.210 C 
ENDBRANCH  15  19
ENDBRANCH   8  11
ENDBRANCH   3   7
BRANCH   1  21
HETATM   21  C   UNL     1      40.181 -14.091  -0.525  1.00  0.00     0.181 A 
HETATM   22  O   UNL     1      40.550 -15.012  -1.474  1.00  0.00    -0.289 OA
HETATM   23  C   UNL     1      39.551 -14.955  -2.398  1.00  0.00     0.106 A 
HETATM   24  C   UNL     1      38.635 -14.010  -1.973  1.00  0.00     0.094 A 
HETATM   25  C   UNL     1      39.439 -15.703  -3.561  1.00  0.00     0.040 A 
HETATM   26  C   UNL     1      37.492 -13.777  -2.752  1.00  0.00     0.041 A 
HETATM   27  N   UNL     1      39.051 -13.455  -0.789  1.00  0.00    -0.221 NA
HETATM   28  C   UNL     1      37.316 -14.529  -3.932  1.00  0.00    -0.060 A 
HETATM   29  C   UNL     1      36.111 -14.294  -4.796  1.00  0.00     0.048 C 
HETATM   30  C   UNL     1      38.291 -15.463  -4.328  1.00  0.00     0.009 A 
ENDBRANCH   1  21
TORSDOF 5
ENDMDL
MODEL 8
REMARK VINA RESULT:      -8.3      7.291     11.207
REMARK  5 active torsions:
REMARK  status: ('A' for Active; 'I' for Inactive)
REMARK    1  A    between atoms: C_7  and  C_8 
REMARK    2  A    between atoms: C_10  and  N_11 
REMARK       I    between atoms: N_11  and  C_12 
REMARK    3  A    between atoms: C_12  and  C_13 
REMARK    4  A    between atoms: C_15  and  O_16 
REMARK    5  A    between atoms: C_19  and  O_20 
ROOT
HETATM    1  C   UNL     1      42.683 -15.942   2.592  1.00  0.00     0.019 A 
HETATM    2  C   UNL     1      41.652 -15.727   1.659  1.00  0.00     0.045 A 
HETATM    3  C   UNL     1      41.287 -14.435   1.267  1.00  0.00     0.035 A 
HETATM    4  C   UNL     1      41.955 -13.343   1.833  1.00  0.00     0.029 A 
HETATM    5  C   UNL     1      42.964 -13.538   2.780  1.00  0.00     0.003 A 
HETATM    6  C   UNL     1      43.328 -14.831   3.152  1.00  0.00     0.016 A 
ENDROOT
BRANCH   3   7
HETATM    7  N   UNL     1      40.295 -14.154   0.297  1.00  0.00    -0.323 N 
HETATM    8  C   UNL     1      40.396 -14.324  -1.073  1.00  0.00     0.256 C 
HETATM    9  O   UNL     1      41.356 -14.812  -1.662  1.00  0.00    -0.267 OA
HETATM   10  H   UNL     1      39.445 -13.757   0.668  1.00  0.00     0.169 HD
BRANCH   8  11
HETATM   11  C   UNL     1      39.237 -13.860  -1.902  1.00  0.00     0.037 A 
HETATM   12  C   UNL     1      38.786 -12.546  -1.688  1.00  0.00     0.054 A 
HETATM   13  C   UNL     1      37.716 -12.035  -2.419  1.00  0.00     0.071 A 
HETATM   14  C   UNL     1      37.082 -12.852  -3.353  1.00  0.00     0.073 A 
HETATM   15  C   UNL     1      37.520 -14.158  -3.588  1.00  0.00     0.071 A 
HETATM   16  C   UNL     1      38.610 -14.659  -2.871  1.00  0.00     0.054 A 
BRANCH  13  17
HETATM   17  O   UNL     1      37.197 -10.774  -2.306  1.00  0.00    -0.356 OA
HETATM   18  C   UNL     1      36.220 -10.396  -3.269  1.00  0.00     0.210 C 
ENDBRANCH  13  17
BRANCH  15  19
HETATM   19  O   UNL     1      36.810 -14.830  -4.544  1.00  0.00    -0.356 OA
HETATM   20  C   UNL     1      35.573 -14.264  -4.961  1.00  0.00     0.210 C 
ENDBRANCH  15  19
ENDBRANCH   8  11
ENDBRANCH   3   7
BRANCH   1  21
HETATM   21  C   UNL     1      43.119 -17.290   2.955  1.00  0.00     0.181 A 
HETATM   22  O   UNL     1      43.072 -18.238   1.963  1.00  0.00    -0.289 OA
HETATM   23  C   UNL     1      43.575 -19.359   2.551  1.00  0.00     0.106 A 
HETATM   24  C   UNL     1      43.895 -19.043   3.860  1.00  0.00     0.094 A 
HETATM   25  C   UNL     1      43.755 -20.605   1.969  1.00  0.00     0.040 A 
HETATM   26  C   UNL     1      44.455 -20.035   4.678  1.00  0.00     0.041 A 
HETATM   27  N   UNL     1      43.588 -17.729   4.112  1.00  0.00    -0.221 NA
HETATM   28  C   UNL     1      44.682 -21.313   4.127  1.00  0.00    -0.060 A 
HETATM   29  C   UNL     1      45.266 -22.403   4.980  1.00  0.00     0.048 C 
HETATM   30  C   UNL     1      44.317 -21.585   2.796  1.00  0.00     0.009 A 
ENDBRANCH   1  21
TORSDOF 5
ENDMDL
MODEL 9
REMARK VINA RESULT:      -8.3      3.269     10.493
REMARK  5 active torsions:
REMARK  status: ('A' for Active; 'I' for Inactive)
REMARK    1  A    between atoms: C_7  and  C_8 
REMARK    2  A    between atoms: C_10  and  N_11 
REMARK       I    between atoms: N_11  and  C_12 
REMARK    3  A    between atoms: C_12  and  C_13 
REMARK    4  A    between atoms: C_15  and  O_16 
REMARK    5  A    between atoms: C_19  and  O_20 
ROOT
HETATM    1  C   UNL     1      40.805 -13.846   4.462  1.00  0.00     0.019 A 
HETATM    2  C   UNL     1      40.964 -13.349   5.769  1.00  0.00     0.045 A 
HETATM    3  C   UNL     1      40.240 -12.240   6.216  1.00  0.00     0.035 A 
HETATM    4  C   UNL     1      39.355 -11.610   5.334  1.00  0.00     0.029 A 
HETATM    5  C   UNL     1      39.203 -12.075   4.025  1.00  0.00     0.003 A 
HETATM    6  C   UNL     1      39.921 -13.189   3.595  1.00  0.00     0.016 A 
ENDROOT
BRANCH   3   7
HETATM    7  N   UNL     1      40.317 -11.724   7.532  1.00  0.00    -0.323 N 
HETATM    8  C   UNL     1      41.235 -10.807   8.016  1.00  0.00     0.256 C 
HETATM    9  O   UNL     1      42.100 -10.245   7.351  1.00  0.00    -0.267 OA
HETATM   10  H   UNL     1      39.639 -12.106   8.174  1.00  0.00     0.169 HD
BRANCH   8  11
HETATM   11  C   UNL     1      41.169 -10.488   9.479  1.00  0.00     0.037 A 
HETATM   12  C   UNL     1      42.394 -10.359  10.159  1.00  0.00     0.054 A 
HETATM   13  C   UNL     1      42.422 -10.061  11.519  1.00  0.00     0.071 A 
HETATM   14  C   UNL     1      41.218  -9.913  12.206  1.00  0.00     0.073 A 
HETATM   15  C   UNL     1      39.991 -10.029  11.548  1.00  0.00     0.071 A 
HETATM   16  C   UNL     1      39.966 -10.303  10.178  1.00  0.00     0.054 A 
BRANCH  13  17
HETATM   17  O   UNL     1      43.546  -9.901  12.282  1.00  0.00    -0.356 OA
HETATM   18  C   UNL     1      43.355  -9.452  13.618  1.00  0.00     0.210 C 
ENDBRANCH  13  17
BRANCH  15  19
HETATM   19  O   UNL     1      38.899  -9.841  12.350  1.00  0.00    -0.356 OA
HETATM   20  C   UNL     1      37.859  -9.006  11.858  1.00  0.00     0.210 C 
ENDBRANCH  15  19
ENDBRANCH   8  11
ENDBRANCH   3   7
BRANCH   1  21
HETATM   21  C   UNL     1      41.506 -15.046   4.007  1.00  0.00     0.181 A 
HETATM   22  O   UNL     1      42.067 -14.992   2.756  1.00  0.00    -0.289 OA
HETATM   23  C   UNL     1      42.688 -16.197   2.619  1.00  0.00     0.106 A 
HETATM   24  C   UNL     1      42.472 -16.919   3.779  1.00  0.00     0.094 A 
HETATM   25  C   UNL     1      43.419 -16.645   1.529  1.00  0.00     0.040 A 
HETATM   26  C   UNL     1      43.032 -18.200   3.893  1.00  0.00     0.041 A 
HETATM   27  N   UNL     1      41.706 -16.185   4.650  1.00  0.00    -0.221 NA
HETATM   28  C   UNL     1      43.806 -18.694   2.823  1.00  0.00    -0.060 A 
HETATM   29  C   UNL     1      44.408 -20.068   2.907  1.00  0.00     0.048 C 
HETATM   30  C   UNL     1      43.975 -17.925   1.657  1.00  0.00     0.009 A 
ENDBRANCH   1  21
TORSDOF 5
ENDMDL
MODEL 10
REMARK VINA RESULT:      -8.2      7.373     11.701
REMARK  5 active torsions:
REMARK  status: ('A' for Active; 'I' for Inactive)
REMARK    1  A    between atoms: C_7  and  C_8 
REMARK    2  A    between atoms: C_10  and  N_11 
REMARK       I    between atoms: N_11  and  C_12 
REMARK    3  A    between atoms: C_12  and  C_13 
REMARK    4  A    between atoms: C_15  and  O_16 
REMARK    5  A    between atoms: C_19  and  O_20 
ROOT
HETATM    1  C   UNL     1      40.993 -16.197   2.664  1.00  0.00     0.019 A 
HETATM    2  C   UNL     1      40.256 -15.851   1.516  1.00  0.00     0.045 A 
HETATM    3  C   UNL     1      39.470 -14.696   1.480  1.00  0.00     0.035 A 
HETATM    4  C   UNL     1      39.409 -13.885   2.619  1.00  0.00     0.029 A 
HETATM    5  C   UNL     1      40.114 -14.226   3.775  1.00  0.00     0.003 A 
HETATM    6  C   UNL     1      40.905 -15.374   3.794  1.00  0.00     0.016 A 
ENDROOT
BRANCH   3   7
HETATM    7  N   UNL     1      38.747 -14.267   0.341  1.00  0.00    -0.323 N 
HETATM    8  C   UNL     1      39.264 -13.942  -0.902  1.00  0.00     0.256 C 
HETATM    9  O   UNL     1      40.443 -14.036  -1.231  1.00  0.00    -0.267 OA
HETATM   10  H   UNL     1      37.755 -14.164   0.487  1.00  0.00     0.169 HD
BRANCH   8  11
HETATM   11  C   UNL     1      38.300 -13.418  -1.923  1.00  0.00     0.037 A 
HETATM   12  C   UNL     1      37.867 -14.320  -2.911  1.00  0.00     0.054 A 
HETATM   13  C   UNL     1      36.969 -13.916  -3.896  1.00  0.00     0.071 A 
HETATM   14  C   UNL     1      36.520 -12.596  -3.903  1.00  0.00     0.073 A 
HETATM   15  C   UNL     1      36.931 -11.686  -2.925  1.00  0.00     0.071 A 
HETATM   16  C   UNL     1      37.813 -12.102  -1.924  1.00  0.00     0.054 A 
BRANCH  13  17
HETATM   17  O   UNL     1      36.470 -14.701  -4.898  1.00  0.00    -0.356 OA
HETATM   18  C   UNL     1      35.450 -14.132  -5.710  1.00  0.00     0.210 C 
ENDBRANCH  13  17
BRANCH  15  19
HETATM   19  O   UNL     1      36.393 -10.436  -3.054  1.00  0.00    -0.356 OA
HETATM   20  C   UNL     1      35.779 -10.111  -4.294  1.00  0.00     0.210 C 
ENDBRANCH  15  19
ENDBRANCH   8  11
ENDBRANCH   3   7
BRANCH   1  21
HETATM   21  C   UNL     1      41.872 -17.366   2.688  1.00  0.00     0.181 A 
HETATM   22  O   UNL     1      42.590 -17.571   3.839  1.00  0.00    -0.289 OA
HETATM   23  C   UNL     1      43.263 -18.732   3.608  1.00  0.00     0.106 A 
HETATM   24  C   UNL     1      42.930 -19.170   2.339  1.00  0.00     0.094 A 
HETATM   25  C   UNL     1      44.129 -19.387   4.472  1.00  0.00     0.040 A 
HETATM   26  C   UNL     1      43.485 -20.369   1.869  1.00  0.00     0.041 A 
HETATM   27  N   UNL     1      42.055 -18.287   1.755  1.00  0.00    -0.221 NA
HETATM   28  C   UNL     1      44.351 -21.088   2.717  1.00  0.00    -0.060 A 
HETATM   29  C   UNL     1      44.975 -22.368   2.239  1.00  0.00     0.048 C 
HETATM   30  C   UNL     1      44.674 -20.585   3.991  1.00  0.00     0.009 A 
ENDBRANCH   1  21
TORSDOF 5
ENDMDL
