MODEL 1
REMARK VINA RESULT:      -7.5      0.000      0.000
REMARK  9 active torsions:
REMARK  status: ('A' for Active; 'I' for Inactive)
REMARK    1  A    between atoms: C_2  and  C_3 
REMARK    2  A    between atoms: C_6  and  C_7 
REMARK    3  A    between atoms: C_7  and  C_8 
REMARK    4  A    between atoms: C_8  and  N_9 
REMARK    5  A    between atoms: N_9  and  C_11 
REMARK    6  A    between atoms: N_9  and  C_25 
REMARK    7  A    between atoms: C_11  and  C_12 
REMARK       I    between atoms: C_12  and  N_13 
REMARK    8  A    between atoms: N_13  and  C_14 
REMARK    9  A    between atoms: C_17  and  N_18 
REMARK       I    between atoms: N_18  and  C_19 
ROOT
HETATM    1  N   UNL     1      43.962 -19.058   6.411  1.00  0.00    -0.056 N 
HETATM    2  H   UNL     1      43.097 -18.748   5.940  1.00  0.00     0.280 HD
ENDROOT
BRANCH   1   3
HETATM    3  C   UNL     1      44.618 -17.758   6.948  1.00  0.00     0.319 C 
BRANCH   3   4
HETATM    4  C   UNL     1      43.555 -16.791   7.444  1.00  0.00     0.187 C 
HETATM    5  O   UNL     1      43.513 -16.592   8.665  1.00  0.00    -0.290 OA
BRANCH   4   6
HETATM    6  C   UNL     1      42.550 -16.243   6.541  1.00  0.00     0.039 A 
HETATM    7  C   UNL     1      42.651 -15.350   5.415  1.00  0.00     0.006 A 
HETATM    8  C   UNL     1      41.378 -15.266   4.837  1.00  0.00     0.049 A 
HETATM    9  C   UNL     1      43.689 -14.603   4.810  1.00  0.00     0.015 A 
HETATM   10  C   UNL     1      41.093 -14.532   3.668  1.00  0.00    -0.031 A 
HETATM   11  N   UNL     1      40.524 -16.003   5.625  1.00  0.00    -0.364 N 
HETATM   12  C   UNL     1      42.164 -13.828   3.094  1.00  0.00     0.009 A 
HETATM   13  C   UNL     1      43.435 -13.856   3.655  1.00  0.00     0.002 A 
HETATM   14  C   UNL     1      41.214 -16.592   6.643  1.00  0.00     0.104 A 
HETATM   15  H   UNL     1      39.529 -16.095   5.460  1.00  0.00     0.165 HD
BRANCH  10  16
HETATM   16  C   UNL     1      39.723 -14.453   3.040  1.00  0.00     0.036 C 
HETATM   17  C   UNL     1      39.281 -13.013   2.833  1.00  0.00     0.010 C 
ENDBRANCH  10  16
ENDBRANCH   4   6
ENDBRANCH   3   4
ENDBRANCH   1   3
BRANCH   1  18
HETATM   18  C   UNL     1      44.822 -19.705   5.300  1.00  0.00     0.338 C 
BRANCH  18  19
HETATM   19  C   UNL     1      44.274 -19.477   3.883  1.00  0.00     0.248 C 
HETATM   20  N   UNL     1      43.337 -18.466   3.801  1.00  0.00    -0.326 N 
HETATM   21  H   UNL     1      42.896 -18.135   4.653  1.00  0.00     0.169 HD
HETATM   22  O   UNL     1      44.724 -20.132   2.945  1.00  0.00    -0.271 OA
BRANCH  20  23
HETATM   23  C   UNL     1      42.844 -17.874   2.616  1.00  0.00     0.034 A 
HETATM   24  C   UNL     1      41.474 -17.984   2.362  1.00  0.00     0.032 A 
HETATM   25  C   UNL     1      40.908 -17.414   1.213  1.00  0.00     0.032 A 
HETATM   26  C   UNL     1      41.699 -16.713   0.304  1.00  0.00     0.034 A 
HETATM   27  C   UNL     1      43.066 -16.587   0.569  1.00  0.00     0.032 A 
HETATM   28  C   UNL     1      43.635 -17.163   1.713  1.00  0.00     0.032 A 
BRANCH  26  29
HETATM   29  N   UNL     1      41.212 -16.124  -0.880  1.00  0.00    -0.328 N 
HETATM   30  C   UNL     1      40.812 -14.813  -1.063  1.00  0.00     0.218 C 
HETATM   31  C   UNL     1      40.314 -14.544  -2.462  1.00  0.00     0.117 C 
HETATM   32  O   UNL     1      40.857 -13.912  -0.232  1.00  0.00    -0.274 OA
HETATM   33  H   UNL     1      41.145 -16.733  -1.685  1.00  0.00     0.169 HD
ENDBRANCH  26  29
ENDBRANCH  20  23
ENDBRANCH  18  19
ENDBRANCH   1  18
BRANCH   1  34
HETATM   34  C   UNL     1      43.607 -20.033   7.509  1.00  0.00     0.231 C 
HETATM   35  C   UNL     1      43.757 -21.458   7.008  1.00  0.00     0.034 C 
ENDBRANCH   1  34
TORSDOF 9
ENDMDL
MODEL 2
REMARK VINA RESULT:      -7.5      5.315      9.322
REMARK  9 active torsions:
REMARK  status: ('A' for Active; 'I' for Inactive)
REMARK    1  A    between atoms: C_2  and  C_3 
REMARK    2  A    between atoms: C_6  and  C_7 
REMARK    3  A    between atoms: C_7  and  C_8 
REMARK    4  A    between atoms: C_8  and  N_9 
REMARK    5  A    between atoms: N_9  and  C_11 
REMARK    6  A    between atoms: N_9  and  C_25 
REMARK    7  A    between atoms: C_11  and  C_12 
REMARK       I    between atoms: C_12  and  N_13 
REMARK    8  A    between atoms: N_13  and  C_14 
REMARK    9  A    between atoms: C_17  and  N_18 
REMARK       I    between atoms: N_18  and  C_19 
ROOT
HETATM    1  N   UNL     1      43.903 -14.665   7.100  1.00  0.00    -0.056 N 
HETATM    2  H   UNL     1      43.464 -14.657   8.035  1.00  0.00     0.280 HD
ENDROOT
BRANCH   1   3
HETATM    3  C   UNL     1      44.700 -15.995   7.041  1.00  0.00     0.319 C 
BRANCH   3   4
HETATM    4  C   UNL     1      43.764 -17.185   7.186  1.00  0.00     0.187 C 
HETATM    5  O   UNL     1      43.023 -17.190   8.177  1.00  0.00    -0.290 OA
BRANCH   4   6
HETATM    6  C   UNL     1      43.844 -18.324   6.280  1.00  0.00     0.039 A 
HETATM    7  C   UNL     1      43.817 -18.416   4.842  1.00  0.00     0.006 A 
HETATM    8  C   UNL     1      44.061 -19.754   4.508  1.00  0.00     0.049 A 
HETATM    9  C   UNL     1      43.621 -17.506   3.777  1.00  0.00     0.015 A 
HETATM   10  C   UNL     1      44.176 -20.223   3.183  1.00  0.00    -0.031 A 
HETATM   11  N   UNL     1      44.146 -20.459   5.686  1.00  0.00    -0.364 N 
HETATM   12  C   UNL     1      43.996 -19.275   2.165  1.00  0.00     0.009 A 
HETATM   13  C   UNL     1      43.717 -17.944   2.452  1.00  0.00     0.002 A 
HETATM   14  C   UNL     1      44.019 -19.615   6.749  1.00  0.00     0.104 A 
HETATM   15  H   UNL     1      44.288 -21.460   5.744  1.00  0.00     0.165 HD
BRANCH  10  16
HETATM   16  C   UNL     1      44.451 -21.664   2.825  1.00  0.00     0.036 C 
HETATM   17  C   UNL     1      44.097 -21.961   1.377  1.00  0.00     0.010 C 
ENDBRANCH  10  16
ENDBRANCH   4   6
ENDBRANCH   3   4
ENDBRANCH   1   3
BRANCH   1  18
HETATM   18  C   UNL     1      44.849 -13.441   7.083  1.00  0.00     0.338 C 
BRANCH  18  19
HETATM   19  C   UNL     1      44.862 -12.652   8.401  1.00  0.00     0.248 C 
HETATM   20  N   UNL     1      43.813 -11.763   8.532  1.00  0.00    -0.326 N 
HETATM   21  H   UNL     1      43.284 -11.502   7.707  1.00  0.00     0.169 HD
HETATM   22  O   UNL     1      45.725 -12.890   9.243  1.00  0.00    -0.271 OA
BRANCH  20  23
HETATM   23  C   UNL     1      43.429 -11.087   9.713  1.00  0.00     0.034 A 
HETATM   24  C   UNL     1      42.148 -10.530   9.750  1.00  0.00     0.032 A 
HETATM   25  C   UNL     1      41.690  -9.853  10.889  1.00  0.00     0.032 A 
HETATM   26  C   UNL     1      42.500  -9.735  12.017  1.00  0.00     0.034 A 
HETATM   27  C   UNL     1      43.774 -10.310  11.987  1.00  0.00     0.032 A 
HETATM   28  C   UNL     1      44.237 -10.979  10.846  1.00  0.00     0.032 A 
BRANCH  26  29
HETATM   29  N   UNL     1      42.123  -9.061  13.196  1.00  0.00    -0.328 N 
HETATM   30  C   UNL     1      41.420  -9.575  14.271  1.00  0.00     0.218 C 
HETATM   31  C   UNL     1      41.166  -8.549  15.347  1.00  0.00     0.117 C 
HETATM   32  O   UNL     1      41.042 -10.734  14.409  1.00  0.00    -0.274 OA
HETATM   33  H   UNL     1      42.394  -8.087  13.258  1.00  0.00     0.169 HD
ENDBRANCH  26  29
ENDBRANCH  20  23
ENDBRANCH  18  19
ENDBRANCH   1  18
BRANCH   1  34
HETATM   34  C   UNL     1      42.827 -14.579   6.045  1.00  0.00     0.231 C 
HETATM   35  C   UNL     1      43.392 -13.973   4.773  1.00  0.00     0.034 C 
ENDBRANCH   1  34
TORSDOF 9
ENDMDL
MODEL 3
REMARK VINA RESULT:      -7.3      2.274      5.140
REMARK  9 active torsions:
REMARK  status: ('A' for Active; 'I' for Inactive)
REMARK    1  A    between atoms: C_2  and  C_3 
REMARK    2  A    between atoms: C_6  and  C_7 
REMARK    3  A    between atoms: C_7  and  C_8 
REMARK    4  A    between atoms: C_8  and  N_9 
REMARK    5  A    between atoms: N_9  and  C_11 
REMARK    6  A    between atoms: N_9  and  C_25 
REMARK    7  A    between atoms: C_11  and  C_12 
REMARK       I    between atoms: C_12  and  N_13 
REMARK    8  A    between atoms: N_13  and  C_14 
REMARK    9  A    between atoms: C_17  and  N_18 
REMARK       I    between atoms: N_18  and  C_19 
ROOT
HETATM    1  N   UNL     1      43.983 -14.316   6.318  1.00  0.00    -0.056 N 
HETATM    2  H   UNL     1      44.047 -14.663   5.348  1.00  0.00     0.280 HD
ENDROOT
BRANCH   1   3
HETATM    3  C   UNL     1      43.583 -15.554   7.164  1.00  0.00     0.319 C 
BRANCH   3   4
HETATM    4  C   UNL     1      42.665 -16.469   6.369  1.00  0.00     0.187 C 
HETATM    5  O   UNL     1      41.449 -16.278   6.493  1.00  0.00    -0.290 OA
BRANCH   4   6
HETATM    6  C   UNL     1      43.193 -17.602   5.619  1.00  0.00     0.039 A 
HETATM    7  C   UNL     1      42.986 -18.038   4.261  1.00  0.00     0.006 A 
HETATM    8  C   UNL     1      43.849 -19.119   4.038  1.00  0.00     0.049 A 
HETATM    9  C   UNL     1      42.166 -17.629   3.184  1.00  0.00     0.015 A 
HETATM   10  C   UNL     1      43.980 -19.775   2.797  1.00  0.00    -0.031 A 
HETATM   11  N   UNL     1      44.486 -19.385   5.228  1.00  0.00    -0.364 N 
HETATM   12  C   UNL     1      43.159 -19.315   1.755  1.00  0.00     0.009 A 
HETATM   13  C   UNL     1      42.265 -18.269   1.943  1.00  0.00     0.002 A 
HETATM   14  C   UNL     1      44.103 -18.484   6.177  1.00  0.00     0.104 A 
HETATM   15  H   UNL     1      45.147 -20.139   5.367  1.00  0.00     0.165 HD
BRANCH  10  16
HETATM   16  C   UNL     1      44.918 -20.933   2.555  1.00  0.00     0.036 C 
HETATM   17  C   UNL     1      44.250 -22.041   1.757  1.00  0.00     0.010 C 
ENDBRANCH  10  16
ENDBRANCH   4   6
ENDBRANCH   3   4
ENDBRANCH   1   3
BRANCH   1  18
HETATM   18  C   UNL     1      42.854 -13.258   6.299  1.00  0.00     0.338 C 
BRANCH  18  19
HETATM   19  C   UNL     1      42.258 -13.016   4.904  1.00  0.00     0.248 C 
HETATM   20  N   UNL     1      42.132 -14.162   4.142  1.00  0.00    -0.326 N 
HETATM   21  H   UNL     1      42.646 -14.993   4.416  1.00  0.00     0.169 HD
HETATM   22  O   UNL     1      41.890 -11.887   4.587  1.00  0.00    -0.271 OA
BRANCH  20  23
HETATM   23  C   UNL     1      41.407 -14.291   2.935  1.00  0.00     0.034 A 
HETATM   24  C   UNL     1      42.120 -14.169   1.740  1.00  0.00     0.032 A 
HETATM   25  C   UNL     1      41.474 -14.295   0.501  1.00  0.00     0.032 A 
HETATM   26  C   UNL     1      40.107 -14.558   0.438  1.00  0.00     0.034 A 
HETATM   27  C   UNL     1      39.399 -14.699   1.635  1.00  0.00     0.032 A 
HETATM   28  C   UNL     1      40.041 -14.565   2.873  1.00  0.00     0.032 A 
BRANCH  26  29
HETATM   29  N   UNL     1      39.380 -14.685  -0.763  1.00  0.00    -0.328 N 
HETATM   30  C   UNL     1      38.528 -13.755  -1.332  1.00  0.00     0.218 C 
HETATM   31  C   UNL     1      37.894 -14.249  -2.609  1.00  0.00     0.117 C 
HETATM   32  O   UNL     1      38.294 -12.627  -0.913  1.00  0.00    -0.274 OA
HETATM   33  H   UNL     1      39.492 -15.559  -1.261  1.00  0.00     0.169 HD
ENDBRANCH  26  29
ENDBRANCH  20  23
ENDBRANCH  18  19
ENDBRANCH   1  18
BRANCH   1  34
HETATM   34  C   UNL     1      45.315 -13.732   6.726  1.00  0.00     0.231 C 
HETATM   35  C   UNL     1      45.198 -13.071   8.087  1.00  0.00     0.034 C 
ENDBRANCH   1  34
TORSDOF 9
ENDMDL
MODEL 4
REMARK VINA RESULT:      -7.1      1.650      2.077
REMARK  9 active torsions:
REMARK  status: ('A' for Active; 'I' for Inactive)
REMARK    1  A    between atoms: C_2  and  C_3 
REMARK    2  A    between atoms: C_6  and  C_7 
REMARK    3  A    between atoms: C_7  and  C_8 
REMARK    4  A    between atoms: C_8  and  N_9 
REMARK    5  A    between atoms: N_9  and  C_11 
REMARK    6  A    between atoms: N_9  and  C_25 
REMARK    7  A    between atoms: C_11  and  C_12 
REMARK       I    between atoms: C_12  and  N_13 
REMARK    8  A    between atoms: N_13  and  C_14 
REMARK    9  A    between atoms: C_17  and  N_18 
REMARK       I    between atoms: N_18  and  C_19 
ROOT
HETATM    1  N   UNL     1      44.058 -19.041   6.259  1.00  0.00    -0.056 N 
HETATM    2  H   UNL     1      43.200 -18.519   6.016  1.00  0.00     0.280 HD
ENDROOT
BRANCH   1   3
HETATM    3  C   UNL     1      44.852 -18.098   7.200  1.00  0.00     0.319 C 
BRANCH   3   4
HETATM    4  C   UNL     1      43.964 -16.968   7.697  1.00  0.00     0.187 C 
HETATM    5  O   UNL     1      43.456 -17.112   8.816  1.00  0.00    -0.290 OA
BRANCH   4   6
HETATM    6  C   UNL     1      43.616 -15.844   6.834  1.00  0.00     0.039 A 
HETATM    7  C   UNL     1      42.366 -15.430   6.250  1.00  0.00     0.006 A 
HETATM    8  C   UNL     1      42.594 -14.202   5.614  1.00  0.00     0.049 A 
HETATM    9  C   UNL     1      41.054 -15.955   6.195  1.00  0.00     0.015 A 
HETATM   10  C   UNL     1      41.585 -13.448   4.981  1.00  0.00    -0.031 A 
HETATM   11  N   UNL     1      43.936 -13.926   5.731  1.00  0.00    -0.364 N 
HETATM   12  C   UNL     1      40.296 -14.005   4.976  1.00  0.00     0.009 A 
HETATM   13  C   UNL     1      40.035 -15.236   5.564  1.00  0.00     0.002 A 
HETATM   14  C   UNL     1      44.555 -14.899   6.459  1.00  0.00     0.104 A 
HETATM   15  H   UNL     1      44.389 -13.112   5.335  1.00  0.00     0.165 HD
BRANCH  10  16
HETATM   16  C   UNL     1      41.830 -12.120   4.307  1.00  0.00     0.036 C 
HETATM   17  C   UNL     1      41.210 -12.070   2.919  1.00  0.00     0.010 C 
ENDBRANCH  10  16
ENDBRANCH   4   6
ENDBRANCH   3   4
ENDBRANCH   1   3
BRANCH   1  18
HETATM   18  C   UNL     1      44.799 -19.254   4.918  1.00  0.00     0.338 C 
BRANCH  18  19
HETATM   19  C   UNL     1      43.994 -18.806   3.689  1.00  0.00     0.248 C 
HETATM   20  N   UNL     1      43.037 -17.849   3.964  1.00  0.00    -0.326 N 
HETATM   21  H   UNL     1      42.755 -17.700   4.927  1.00  0.00     0.169 HD
HETATM   22  O   UNL     1      44.276 -19.257   2.581  1.00  0.00    -0.271 OA
BRANCH  20  23
HETATM   23  C   UNL     1      42.322 -17.081   3.017  1.00  0.00     0.034 A 
HETATM   24  C   UNL     1      40.978 -17.405   2.808  1.00  0.00     0.032 A 
HETATM   25  C   UNL     1      40.199 -16.684   1.892  1.00  0.00     0.032 A 
HETATM   26  C   UNL     1      40.745 -15.618   1.180  1.00  0.00     0.034 A 
HETATM   27  C   UNL     1      42.084 -15.283   1.404  1.00  0.00     0.032 A 
HETATM   28  C   UNL     1      42.867 -16.008   2.312  1.00  0.00     0.032 A 
BRANCH  26  29
HETATM   29  N   UNL     1      40.037 -14.853   0.232  1.00  0.00    -0.328 N 
HETATM   30  C   UNL     1      38.929 -14.055   0.455  1.00  0.00     0.218 C 
HETATM   31  C   UNL     1      38.412 -13.408  -0.806  1.00  0.00     0.117 C 
HETATM   32  O   UNL     1      38.393 -13.834   1.536  1.00  0.00    -0.274 OA
HETATM   33  H   UNL     1      40.378 -14.897  -0.720  1.00  0.00     0.169 HD
ENDBRANCH  26  29
ENDBRANCH  20  23
ENDBRANCH  18  19
ENDBRANCH   1  18
BRANCH   1  34
HETATM   34  C   UNL     1      43.674 -20.343   6.921  1.00  0.00     0.231 C 
HETATM   35  C   UNL     1      44.251 -21.512   6.141  1.00  0.00     0.034 C 
ENDBRANCH   1  34
TORSDOF 9
ENDMDL
MODEL 5
REMARK VINA RESULT:      -7.0      2.450      6.580
REMARK  9 active torsions:
REMARK  status: ('A' for Active; 'I' for Inactive)
REMARK    1  A    between atoms: C_2  and  C_3 
REMARK    2  A    between atoms: C_6  and  C_7 
REMARK    3  A    between atoms: C_7  and  C_8 
REMARK    4  A    between atoms: C_8  and  N_9 
REMARK    5  A    between atoms: N_9  and  C_11 
REMARK    6  A    between atoms: N_9  and  C_25 
REMARK    7  A    between atoms: C_11  and  C_12 
REMARK       I    between atoms: C_12  and  N_13 
REMARK    8  A    between atoms: N_13  and  C_14 
REMARK    9  A    between atoms: C_17  and  N_18 
REMARK       I    between atoms: N_18  and  C_19 
ROOT
HETATM    1  N   UNL     1      41.169 -13.036  -0.558  1.00  0.00    -0.056 N 
HETATM    2  H   UNL     1      41.701 -13.470   0.214  1.00  0.00     0.280 HD
ENDROOT
BRANCH   1   3
HETATM    3  C   UNL     1      40.066 -12.195   0.136  1.00  0.00     0.319 C 
BRANCH   3   4
HETATM    4  C   UNL     1      40.264 -12.195   1.643  1.00  0.00     0.187 C 
HETATM    5  O   UNL     1      40.391 -11.089   2.186  1.00  0.00    -0.290 OA
BRANCH   4   6
HETATM    6  C   UNL     1      40.439 -13.439   2.383  1.00  0.00     0.039 A 
HETATM    7  C   UNL     1      41.552 -13.966   3.132  1.00  0.00     0.006 A 
HETATM    8  C   UNL     1      41.116 -15.149   3.742  1.00  0.00     0.049 A 
HETATM    9  C   UNL     1      42.887 -13.566   3.370  1.00  0.00     0.015 A 
HETATM   10  C   UNL     1      41.911 -15.920   4.615  1.00  0.00    -0.031 A 
HETATM   11  N   UNL     1      39.828 -15.378   3.316  1.00  0.00    -0.364 N 
HETATM   12  C   UNL     1      43.221 -15.466   4.835  1.00  0.00     0.009 A 
HETATM   13  C   UNL     1      43.704 -14.317   4.222  1.00  0.00     0.002 A 
HETATM   14  C   UNL     1      39.414 -14.362   2.506  1.00  0.00     0.104 A 
HETATM   15  H   UNL     1      39.274 -16.184   3.576  1.00  0.00     0.165 HD
BRANCH  10  16
HETATM   16  C   UNL     1      41.436 -17.189   5.281  1.00  0.00     0.036 C 
HETATM   17  C   UNL     1      42.599 -18.081   5.686  1.00  0.00     0.010 C 
ENDBRANCH  10  16
ENDBRANCH   4   6
ENDBRANCH   3   4
ENDBRANCH   1   3
BRANCH   1  18
HETATM   18  C   UNL     1      40.562 -14.219  -1.349  1.00  0.00     0.338 C 
BRANCH  18  19
HETATM   19  C   UNL     1      41.199 -15.577  -1.017  1.00  0.00     0.248 C 
HETATM   20  N   UNL     1      41.872 -15.599   0.189  1.00  0.00    -0.326 N 
HETATM   21  H   UNL     1      42.122 -14.719   0.628  1.00  0.00     0.169 HD
HETATM   22  O   UNL     1      41.028 -16.530  -1.774  1.00  0.00    -0.271 OA
BRANCH  20  23
HETATM   23  C   UNL     1      42.343 -16.748   0.865  1.00  0.00     0.034 A 
HETATM   24  C   UNL     1      43.699 -16.789   1.199  1.00  0.00     0.032 A 
HETATM   25  C   UNL     1      44.240 -17.889   1.879  1.00  0.00     0.032 A 
HETATM   26  C   UNL     1      43.430 -18.962   2.249  1.00  0.00     0.034 A 
HETATM   27  C   UNL     1      42.070 -18.911   1.931  1.00  0.00     0.032 A 
HETATM   28  C   UNL     1      41.529 -17.816   1.244  1.00  0.00     0.032 A 
BRANCH  26  29
HETATM   29  N   UNL     1      43.896 -20.111   2.920  1.00  0.00    -0.328 N 
HETATM   30  C   UNL     1      44.124 -21.364   2.383  1.00  0.00     0.218 C 
HETATM   31  C   UNL     1      44.590 -22.365   3.411  1.00  0.00     0.117 C 
HETATM   32  O   UNL     1      44.008 -21.686   1.205  1.00  0.00    -0.274 OA
HETATM   33  H   UNL     1      44.078 -20.004   3.910  1.00  0.00     0.169 HD
ENDBRANCH  26  29
ENDBRANCH  20  23
ENDBRANCH  18  19
ENDBRANCH   1  18
BRANCH   1  34
HETATM   34  C   UNL     1      42.105 -12.199  -1.397  1.00  0.00     0.231 C 
HETATM   35  C   UNL     1      42.837 -11.200  -0.519  1.00  0.00     0.034 C 
ENDBRANCH   1  34
TORSDOF 9
ENDMDL
MODEL 6
REMARK VINA RESULT:      -7.0      2.500      5.083
REMARK  9 active torsions:
REMARK  status: ('A' for Active; 'I' for Inactive)
REMARK    1  A    between atoms: C_2  and  C_3 
REMARK    2  A    between atoms: C_6  and  C_7 
REMARK    3  A    between atoms: C_7  and  C_8 
REMARK    4  A    between atoms: C_8  and  N_9 
REMARK    5  A    between atoms: N_9  and  C_11 
REMARK    6  A    between atoms: N_9  and  C_25 
REMARK    7  A    between atoms: C_11  and  C_12 
REMARK       I    between atoms: C_12  and  N_13 
REMARK    8  A    between atoms: N_13  and  C_14 
REMARK    9  A    between atoms: C_17  and  N_18 
REMARK       I    between atoms: N_18  and  C_19 
ROOT
HETATM    1  N   UNL     1      44.185 -14.849   6.339  1.00  0.00    -0.056 N 
HETATM    2  H   UNL     1      44.588 -15.409   5.570  1.00  0.00     0.280 HD
ENDROOT
BRANCH   1   3
HETATM    3  C   UNL     1      43.670 -15.891   7.367  1.00  0.00     0.319 C 
BRANCH   3   4
HETATM    4  C   UNL     1      42.719 -16.872   6.702  1.00  0.00     0.187 C 
HETATM    5  O   UNL     1      41.533 -16.820   7.052  1.00  0.00    -0.290 OA
BRANCH   4   6
HETATM    6  C   UNL     1      43.211 -17.914   5.808  1.00  0.00     0.039 A 
HETATM    7  C   UNL     1      43.064 -18.114   4.388  1.00  0.00     0.006 A 
HETATM    8  C   UNL     1      43.857 -19.215   4.041  1.00  0.00     0.049 A 
HETATM    9  C   UNL     1      42.350 -17.474   3.348  1.00  0.00     0.015 A 
HETATM   10  C   UNL     1      44.023 -19.677   2.720  1.00  0.00    -0.031 A 
HETATM   11  N   UNL     1      44.392 -19.715   5.206  1.00  0.00    -0.364 N 
HETATM   12  C   UNL     1      43.310 -18.992   1.723  1.00  0.00     0.009 A 
HETATM   13  C   UNL     1      42.485 -17.918   2.028  1.00  0.00     0.002 A 
HETATM   14  C   UNL     1      44.014 -18.945   6.266  1.00  0.00     0.104 A 
HETATM   15  H   UNL     1      44.985 -20.534   5.257  1.00  0.00     0.165 HD
BRANCH  10  16
HETATM   16  C   UNL     1      44.888 -20.856   2.346  1.00  0.00     0.036 C 
HETATM   17  C   UNL     1      44.071 -21.979   1.725  1.00  0.00     0.010 C 
ENDBRANCH  10  16
ENDBRANCH   4   6
ENDBRANCH   3   4
ENDBRANCH   1   3
BRANCH   1  18
HETATM   18  C   UNL     1      43.017 -14.060   5.702  1.00  0.00     0.338 C 
BRANCH  18  19
HETATM   19  C   UNL     1      43.154 -13.871   4.184  1.00  0.00     0.248 C 
HETATM   20  N   UNL     1      41.952 -13.901   3.504  1.00  0.00    -0.326 N 
HETATM   21  H   UNL     1      41.135 -14.284   3.968  1.00  0.00     0.169 HD
HETATM   22  O   UNL     1      44.262 -13.654   3.697  1.00  0.00    -0.271 OA
BRANCH  20  23
HETATM   23  C   UNL     1      41.740 -13.520   2.159  1.00  0.00     0.034 A 
HETATM   24  C   UNL     1      41.636 -12.154   1.885  1.00  0.00     0.032 A 
HETATM   25  C   UNL     1      41.435 -11.696   0.575  1.00  0.00     0.032 A 
HETATM   26  C   UNL     1      41.349 -12.597  -0.485  1.00  0.00     0.034 A 
HETATM   27  C   UNL     1      41.472 -13.962  -0.212  1.00  0.00     0.032 A 
HETATM   28  C   UNL     1      41.665 -14.422   1.097  1.00  0.00     0.032 A 
BRANCH  26  29
HETATM   29  N   UNL     1      41.135 -12.222  -1.827  1.00  0.00    -0.328 N 
HETATM   30  C   UNL     1      42.003 -12.377  -2.892  1.00  0.00     0.218 C 
HETATM   31  C   UNL     1      41.449 -11.826  -4.183  1.00  0.00     0.117 C 
HETATM   32  O   UNL     1      43.103 -12.919  -2.865  1.00  0.00    -0.274 OA
HETATM   33  H   UNL     1      40.244 -11.785  -2.030  1.00  0.00     0.169 HD
ENDBRANCH  26  29
ENDBRANCH  20  23
ENDBRANCH  18  19
ENDBRANCH   1  18
BRANCH   1  34
HETATM   34  C   UNL     1      45.253 -13.944   6.906  1.00  0.00     0.231 C 
HETATM   35  C   UNL     1      44.727 -13.226   8.136  1.00  0.00     0.034 C 
ENDBRANCH   1  34
TORSDOF 9
ENDMDL
MODEL 7
REMARK VINA RESULT:      -6.9      2.016      6.527
REMARK  9 active torsions:
REMARK  status: ('A' for Active; 'I' for Inactive)
REMARK    1  A    between atoms: C_2  and  C_3 
REMARK    2  A    between atoms: C_6  and  C_7 
REMARK    3  A    between atoms: C_7  and  C_8 
REMARK    4  A    between atoms: C_8  and  N_9 
REMARK    5  A    between atoms: N_9  and  C_11 
REMARK    6  A    between atoms: N_9  and  C_25 
REMARK    7  A    between atoms: C_11  and  C_12 
REMARK       I    between atoms: C_12  and  N_13 
REMARK    8  A    between atoms: N_13  and  C_14 
REMARK    9  A    between atoms: C_17  and  N_18 
REMARK       I    between atoms: N_18  and  C_19 
ROOT
HETATM    1  N   UNL     1      39.505 -13.504   0.624  1.00  0.00    -0.056 N 
HETATM    2  H   UNL     1      39.380 -12.490   0.777  1.00  0.00     0.280 HD
ENDROOT
BRANCH   1   3
HETATM    3  C   UNL     1      39.258 -14.154   2.010  1.00  0.00     0.319 C 
BRANCH   3   4
HETATM    4  C   UNL     1      39.679 -13.210   3.125  1.00  0.00     0.187 C 
HETATM    5  O   UNL     1      39.056 -12.144   3.214  1.00  0.00    -0.290 OA
BRANCH   4   6
HETATM    6  C   UNL     1      40.850 -13.488   3.949  1.00  0.00     0.039 A 
HETATM    7  C   UNL     1      41.116 -14.507   4.933  1.00  0.00     0.006 A 
HETATM    8  C   UNL     1      42.457 -14.372   5.316  1.00  0.00     0.049 A 
HETATM    9  C   UNL     1      40.369 -15.543   5.540  1.00  0.00     0.015 A 
HETATM   10  C   UNL     1      43.106 -15.238   6.219  1.00  0.00    -0.031 A 
HETATM   11  N   UNL     1      42.958 -13.270   4.663  1.00  0.00    -0.364 N 
HETATM   12  C   UNL     1      42.324 -16.263   6.775  1.00  0.00     0.009 A 
HETATM   13  C   UNL     1      40.982 -16.411   6.449  1.00  0.00     0.002 A 
HETATM   14  C   UNL     1      42.008 -12.736   3.843  1.00  0.00     0.104 A 
HETATM   15  H   UNL     1      43.900 -12.917   4.776  1.00  0.00     0.165 HD
BRANCH  10  16
HETATM   16  C   UNL     1      44.554 -15.098   6.622  1.00  0.00     0.036 C 
HETATM   17  C   UNL     1      44.785 -13.855   7.466  1.00  0.00     0.010 C 
ENDBRANCH  10  16
ENDBRANCH   4   6
ENDBRANCH   3   4
ENDBRANCH   1   3
BRANCH   1  18
HETATM   18  C   UNL     1      40.977 -13.671   0.177  1.00  0.00     0.338 C 
BRANCH  18  19
HETATM   19  C   UNL     1      41.501 -15.109   0.301  1.00  0.00     0.248 C 
HETATM   20  N   UNL     1      42.374 -15.298   1.355  1.00  0.00    -0.326 N 
HETATM   21  H   UNL     1      42.799 -14.488   1.792  1.00  0.00     0.169 HD
HETATM   22  O   UNL     1      41.087 -15.975  -0.467  1.00  0.00    -0.271 OA
BRANCH  20  23
HETATM   23  C   UNL     1      42.822 -16.541   1.860  1.00  0.00     0.034 A 
HETATM   24  C   UNL     1      42.084 -17.119   2.896  1.00  0.00     0.032 A 
HETATM   25  C   UNL     1      42.459 -18.354   3.443  1.00  0.00     0.032 A 
HETATM   26  C   UNL     1      43.569 -19.040   2.954  1.00  0.00     0.034 A 
HETATM   27  C   UNL     1      44.295 -18.470   1.904  1.00  0.00     0.032 A 
HETATM   28  C   UNL     1      43.927 -17.231   1.361  1.00  0.00     0.032 A 
BRANCH  26  29
HETATM   29  N   UNL     1      44.021 -20.277   3.455  1.00  0.00    -0.328 N 
HETATM   30  C   UNL     1      44.687 -20.509   4.645  1.00  0.00     0.218 C 
HETATM   31  C   UNL     1      45.047 -21.961   4.839  1.00  0.00     0.117 C 
HETATM   32  O   UNL     1      44.960 -19.677   5.504  1.00  0.00    -0.274 OA
HETATM   33  H   UNL     1      43.839 -21.086   2.874  1.00  0.00     0.169 HD
ENDBRANCH  26  29
ENDBRANCH  20  23
ENDBRANCH  18  19
ENDBRANCH   1  18
BRANCH   1  34
HETATM   34  C   UNL     1      38.526 -13.971  -0.426  1.00  0.00     0.231 C 
HETATM   35  C   UNL     1      38.835 -13.310  -1.757  1.00  0.00     0.034 C 
ENDBRANCH   1  34
TORSDOF 9
ENDMDL
MODEL 8
REMARK VINA RESULT:      -6.9      2.343      5.419
REMARK  9 active torsions:
REMARK  status: ('A' for Active; 'I' for Inactive)
REMARK    1  A    between atoms: C_2  and  C_3 
REMARK    2  A    between atoms: C_6  and  C_7 
REMARK    3  A    between atoms: C_7  and  C_8 
REMARK    4  A    between atoms: C_8  and  N_9 
REMARK    5  A    between atoms: N_9  and  C_11 
REMARK    6  A    between atoms: N_9  and  C_25 
REMARK    7  A    between atoms: C_11  and  C_12 
REMARK       I    between atoms: C_12  and  N_13 
REMARK    8  A    between atoms: N_13  and  C_14 
REMARK    9  A    between atoms: C_17  and  N_18 
REMARK       I    between atoms: N_18  and  C_19 
ROOT
HETATM    1  N   UNL     1      42.899 -13.942   5.116  1.00  0.00    -0.056 N 
HETATM    2  H   UNL     1      43.253 -14.434   4.279  1.00  0.00     0.280 HD
ENDROOT
BRANCH   1   3
HETATM    3  C   UNL     1      41.841 -14.897   5.729  1.00  0.00     0.319 C 
BRANCH   3   4
HETATM    4  C   UNL     1      41.585 -16.075   4.802  1.00  0.00     0.187 C 
HETATM    5  O   UNL     1      40.646 -15.958   4.004  1.00  0.00    -0.290 OA
BRANCH   4   6
HETATM    6  C   UNL     1      42.317 -17.327   4.950  1.00  0.00     0.039 A 
HETATM    7  C   UNL     1      42.896 -18.225   3.983  1.00  0.00     0.006 A 
HETATM    8  C   UNL     1      43.593 -19.208   4.696  1.00  0.00     0.049 A 
HETATM    9  C   UNL     1      42.916 -18.310   2.571  1.00  0.00     0.015 A 
HETATM   10  C   UNL     1      44.350 -20.230   4.088  1.00  0.00    -0.031 A 
HETATM   11  N   UNL     1      43.376 -18.971   6.034  1.00  0.00    -0.364 N 
HETATM   12  C   UNL     1      44.355 -20.256   2.685  1.00  0.00     0.009 A 
HETATM   13  C   UNL     1      43.648 -19.321   1.939  1.00  0.00     0.002 A 
HETATM   14  C   UNL     1      42.618 -17.850   6.196  1.00  0.00     0.104 A 
HETATM   15  H   UNL     1      43.738 -19.549   6.783  1.00  0.00     0.165 HD
BRANCH  10  16
HETATM   16  C   UNL     1      45.110 -21.282   4.859  1.00  0.00     0.036 C 
HETATM   17  C   UNL     1      44.639 -22.686   4.510  1.00  0.00     0.010 C 
ENDBRANCH  10  16
ENDBRANCH   4   6
ENDBRANCH   3   4
ENDBRANCH   1   3
BRANCH   1  18
HETATM   18  C   UNL     1      42.245 -12.646   4.580  1.00  0.00     0.338 C 
BRANCH  18  19
HETATM   19  C   UNL     1      41.547 -12.821   3.223  1.00  0.00     0.248 C 
HETATM   20  N   UNL     1      42.275 -13.560   2.310  1.00  0.00    -0.326 N 
HETATM   21  H   UNL     1      43.265 -13.708   2.476  1.00  0.00     0.169 HD
HETATM   22  O   UNL     1      40.416 -12.370   3.059  1.00  0.00    -0.271 OA
BRANCH  20  23
HETATM   23  C   UNL     1      41.799 -14.085   1.087  1.00  0.00     0.034 A 
HETATM   24  C   UNL     1      41.491 -13.175   0.072  1.00  0.00     0.032 A 
HETATM   25  C   UNL     1      41.024 -13.618  -1.173  1.00  0.00     0.032 A 
HETATM   26  C   UNL     1      40.869 -14.979  -1.430  1.00  0.00     0.034 A 
HETATM   27  C   UNL     1      41.196 -15.889  -0.420  1.00  0.00     0.032 A 
HETATM   28  C   UNL     1      41.655 -15.448   0.828  1.00  0.00     0.032 A 
BRANCH  26  29
HETATM   29  N   UNL     1      40.392 -15.507  -2.647  1.00  0.00    -0.328 N 
HETATM   30  C   UNL     1      39.118 -15.390  -3.172  1.00  0.00     0.218 C 
HETATM   31  C   UNL     1      38.959 -16.115  -4.486  1.00  0.00     0.117 C 
HETATM   32  O   UNL     1      38.184 -14.758  -2.690  1.00  0.00    -0.274 OA
HETATM   33  H   UNL     1      41.060 -16.035  -3.195  1.00  0.00     0.169 HD
ENDBRANCH  26  29
ENDBRANCH  20  23
ENDBRANCH  18  19
ENDBRANCH   1  18
BRANCH   1  34
HETATM   34  C   UNL     1      44.051 -13.664   6.052  1.00  0.00     0.231 C 
HETATM   35  C   UNL     1      44.481 -14.946   6.742  1.00  0.00     0.034 C 
ENDBRANCH   1  34
TORSDOF 9
ENDMDL
MODEL 9
REMARK VINA RESULT:      -6.8      1.992      4.864
REMARK  9 active torsions:
REMARK  status: ('A' for Active; 'I' for Inactive)
REMARK    1  A    between atoms: C_2  and  C_3 
REMARK    2  A    between atoms: C_6  and  C_7 
REMARK    3  A    between atoms: C_7  and  C_8 
REMARK    4  A    between atoms: C_8  and  N_9 
REMARK    5  A    between atoms: N_9  and  C_11 
REMARK    6  A    between atoms: N_9  and  C_25 
REMARK    7  A    between atoms: C_11  and  C_12 
REMARK       I    between atoms: C_12  and  N_13 
REMARK    8  A    between atoms: N_13  and  C_14 
REMARK    9  A    between atoms: C_17  and  N_18 
REMARK       I    between atoms: N_18  and  C_19 
ROOT
HETATM    1  N   UNL     1      42.202 -14.792   6.288  1.00  0.00    -0.056 N 
HETATM    2  H   UNL     1      41.930 -14.711   7.281  1.00  0.00     0.280 HD
ENDROOT
BRANCH   1   3
HETATM    3  C   UNL     1      43.658 -15.327   6.311  1.00  0.00     0.319 C 
BRANCH   3   4
HETATM    4  C   UNL     1      43.713 -16.696   6.971  1.00  0.00     0.187 C 
HETATM    5  O   UNL     1      43.768 -16.713   8.208  1.00  0.00    -0.290 OA
BRANCH   4   6
HETATM    6  C   UNL     1      43.842 -17.913   6.179  1.00  0.00     0.039 A 
HETATM    7  C   UNL     1      43.863 -18.138   4.756  1.00  0.00     0.006 A 
HETATM    8  C   UNL     1      44.140 -19.496   4.556  1.00  0.00     0.049 A 
HETATM    9  C   UNL     1      43.686 -17.335   3.605  1.00  0.00     0.015 A 
HETATM   10  C   UNL     1      44.306 -20.085   3.286  1.00  0.00    -0.031 A 
HETATM   11  N   UNL     1      44.198 -20.087   5.797  1.00  0.00    -0.364 N 
HETATM   12  C   UNL     1      44.142 -19.239   2.177  1.00  0.00     0.009 A 
HETATM   13  C   UNL     1      43.831 -17.893   2.330  1.00  0.00     0.002 A 
HETATM   14  C   UNL     1      44.024 -19.150   6.772  1.00  0.00     0.104 A 
HETATM   15  H   UNL     1      44.355 -21.075   5.953  1.00  0.00     0.165 HD
BRANCH  10  16
HETATM   16  C   UNL     1      44.616 -21.547   3.072  1.00  0.00     0.036 C 
HETATM   17  C   UNL     1      44.222 -22.008   1.678  1.00  0.00     0.010 C 
ENDBRANCH  10  16
ENDBRANCH   4   6
ENDBRANCH   3   4
ENDBRANCH   1   3
BRANCH   1  18
HETATM   18  C   UNL     1      42.140 -13.350   5.730  1.00  0.00     0.338 C 
BRANCH  18  19
HETATM   19  C   UNL     1      41.514 -13.256   4.330  1.00  0.00     0.248 C 
HETATM   20  N   UNL     1      42.268 -13.851   3.338  1.00  0.00    -0.326 N 
HETATM   21  H   UNL     1      43.242 -14.066   3.523  1.00  0.00     0.169 HD
HETATM   22  O   UNL     1      40.408 -12.737   4.193  1.00  0.00    -0.271 OA
BRANCH  20  23
HETATM   23  C   UNL     1      41.845 -14.133   2.019  1.00  0.00     0.034 A 
HETATM   24  C   UNL     1      41.283 -15.390   1.777  1.00  0.00     0.032 A 
HETATM   25  C   UNL     1      40.830 -15.741   0.497  1.00  0.00     0.032 A 
HETATM   26  C   UNL     1      40.918 -14.836  -0.560  1.00  0.00     0.034 A 
HETATM   27  C   UNL     1      41.462 -13.572  -0.312  1.00  0.00     0.032 A 
HETATM   28  C   UNL     1      41.923 -13.222   0.965  1.00  0.00     0.032 A 
BRANCH  26  29
HETATM   29  N   UNL     1      40.499 -15.113  -1.877  1.00  0.00    -0.328 N 
HETATM   30  C   UNL     1      39.307 -14.747  -2.475  1.00  0.00     0.218 C 
HETATM   31  C   UNL     1      39.187 -15.248  -3.893  1.00  0.00     0.117 C 
HETATM   32  O   UNL     1      38.418 -14.066  -1.975  1.00  0.00    -0.274 OA
HETATM   33  H   UNL     1      41.146 -15.646  -2.445  1.00  0.00     0.169 HD
ENDBRANCH  26  29
ENDBRANCH  20  23
ENDBRANCH  18  19
ENDBRANCH   1  18
BRANCH   1  34
HETATM   34  C   UNL     1      41.245 -15.726   5.586  1.00  0.00     0.231 C 
HETATM   35  C   UNL     1      40.469 -16.540   6.606  1.00  0.00     0.034 C 
ENDBRANCH   1  34
TORSDOF 9
ENDMDL
MODEL 10
REMARK VINA RESULT:      -6.8      2.209      6.215
REMARK  9 active torsions:
REMARK  status: ('A' for Active; 'I' for Inactive)
REMARK    1  A    between atoms: C_2  and  C_3 
REMARK    2  A    between atoms: C_6  and  C_7 
REMARK    3  A    between atoms: C_7  and  C_8 
REMARK    4  A    between atoms: C_8  and  N_9 
REMARK    5  A    between atoms: N_9  and  C_11 
REMARK    6  A    between atoms: N_9  and  C_25 
REMARK    7  A    between atoms: C_11  and  C_12 
REMARK       I    between atoms: C_12  and  N_13 
REMARK    8  A    between atoms: N_13  and  C_14 
REMARK    9  A    between atoms: C_17  and  N_18 
REMARK       I    between atoms: N_18  and  C_19 
ROOT
HETATM    1  N   UNL     1      41.140 -13.581   2.382  1.00  0.00    -0.056 N 
HETATM    2  H   UNL     1      41.564 -14.107   3.164  1.00  0.00     0.280 HD
ENDROOT
BRANCH   1   3
HETATM    3  C   UNL     1      40.131 -12.610   3.050  1.00  0.00     0.319 C 
BRANCH   3   4
HETATM    4  C   UNL     1      40.178 -12.748   4.563  1.00  0.00     0.187 C 
HETATM    5  O   UNL     1      39.870 -11.746   5.221  1.00  0.00    -0.290 OA
BRANCH   4   6
HETATM    6  C   UNL     1      40.699 -13.954   5.197  1.00  0.00     0.039 A 
HETATM    7  C   UNL     1      42.014 -14.300   5.674  1.00  0.00     0.006 A 
HETATM    8  C   UNL     1      41.908 -15.543   6.311  1.00  0.00     0.049 A 
HETATM    9  C   UNL     1      43.289 -13.690   5.647  1.00  0.00     0.015 A 
HETATM   10  C   UNL     1      42.981 -16.182   6.966  1.00  0.00    -0.031 A 
HETATM   11  N   UNL     1      40.612 -15.974   6.152  1.00  0.00    -0.364 N 
HETATM   12  C   UNL     1      44.220 -15.523   6.928  1.00  0.00     0.009 A 
HETATM   13  C   UNL     1      44.376 -14.306   6.277  1.00  0.00     0.002 A 
HETATM   14  C   UNL     1      39.881 -15.032   5.490  1.00  0.00     0.104 A 
HETATM   15  H   UNL     1      40.259 -16.861   6.487  1.00  0.00     0.165 HD
BRANCH  10  16
HETATM   16  C   UNL     1      42.863 -17.517   7.661  1.00  0.00     0.036 C 
HETATM   17  C   UNL     1      44.197 -18.245   7.711  1.00  0.00     0.010 C 
ENDBRANCH  10  16
ENDBRANCH   4   6
ENDBRANCH   3   4
ENDBRANCH   1   3
BRANCH   1  18
HETATM   18  C   UNL     1      40.415 -14.644   1.522  1.00  0.00     0.338 C 
BRANCH  18  19
HETATM   19  C   UNL     1      40.820 -16.088   1.854  1.00  0.00     0.248 C 
HETATM   20  N   UNL     1      42.186 -16.291   1.900  1.00  0.00    -0.326 N 
HETATM   21  H   UNL     1      42.799 -15.599   1.482  1.00  0.00     0.169 HD
HETATM   22  O   UNL     1      39.951 -16.920   2.106  1.00  0.00    -0.271 OA
BRANCH  20  23
HETATM   23  C   UNL     1      42.847 -17.432   2.408  1.00  0.00     0.034 A 
HETATM   24  C   UNL     1      42.793 -18.601   1.645  1.00  0.00     0.032 A 
HETATM   25  C   UNL     1      43.432 -19.772   2.077  1.00  0.00     0.032 A 
HETATM   26  C   UNL     1      44.149 -19.790   3.273  1.00  0.00     0.034 A 
HETATM   27  C   UNL     1      44.218 -18.614   4.025  1.00  0.00     0.032 A 
HETATM   28  C   UNL     1      43.573 -17.445   3.600  1.00  0.00     0.032 A 
BRANCH  26  29
HETATM   29  N   UNL     1      44.807 -20.926   3.785  1.00  0.00    -0.328 N 
HETATM   30  C   UNL     1      44.663 -21.485   5.041  1.00  0.00     0.218 C 
HETATM   31  C   UNL     1      45.557 -22.682   5.253  1.00  0.00     0.117 C 
HETATM   32  O   UNL     1      43.892 -21.117   5.921  1.00  0.00    -0.274 OA
HETATM   33  H   UNL     1      45.463 -21.378   3.161  1.00  0.00     0.169 HD
ENDBRANCH  26  29
ENDBRANCH  20  23
ENDBRANCH  18  19
ENDBRANCH   1  18
BRANCH   1  34
HETATM   34  C   UNL     1      42.228 -12.864   1.620  1.00  0.00     0.231 C 
HETATM   35  C   UNL     1      41.862 -12.777   0.149  1.00  0.00     0.034 C 
ENDBRANCH   1  34
TORSDOF 9
ENDMDL
