MODEL 1
REMARK VINA RESULT:      -8.4      0.000      0.000
REMARK  4 active torsions:
REMARK  status: ('A' for Active; 'I' for Inactive)
REMARK    1  A    between atoms: N_2  and  C_3 
REMARK    2  A    between atoms: C_5  and  C_6 
REMARK    3  A    between atoms: C_6  and  C_7 
REMARK    4  A    between atoms: C_13  and  O_14 
ROOT
HETATM    1  C   UNL     1      40.292 -15.428   1.817  1.00  0.00     0.113 A 
HETATM    2  N   UNL     1      41.383 -16.218   1.866  1.00  0.00    -0.223 NA
HETATM    3  C   UNL     1      42.129 -16.375   0.741  1.00  0.00     0.106 A 
HETATM    4  N   UNL     1      41.831 -15.782  -0.427  1.00  0.00    -0.347 N 
HETATM    5  H   UNL     1      42.407 -15.939  -1.251  1.00  0.00     0.167 HD
HETATM    6  C   UNL     1      40.766 -14.985  -0.473  1.00  0.00     0.020 A 
HETATM    7  C   UNL     1      39.975 -14.781   0.645  1.00  0.00     0.005 A 
HETATM    8  C   UNL     1      38.844 -13.859   0.321  1.00  0.00     0.044 C 
HETATM    9  C   UNL     1      39.341 -13.220  -0.990  1.00  0.00     0.011 C 
HETATM   10  C   UNL     1      40.259 -14.249  -1.669  1.00  0.00     0.058 C 
ENDROOT
BRANCH   3  11
HETATM   11  C   UNL     1      43.314 -17.298   0.808  1.00  0.00     0.085 C 
BRANCH  11  12
HETATM   12  C   UNL     1      43.275 -18.208   2.041  1.00  0.00     0.021 C 
HETATM   13  C   UNL     1      44.000 -17.623   3.252  1.00  0.00     0.181 C 
HETATM   14  O   UNL     1      43.757 -18.428   4.404  1.00  0.00    -0.347 OA
HETATM   15  C   UNL     1      44.068 -19.758   4.269  1.00  0.00     0.108 A 
HETATM   16  C   UNL     1      44.152 -20.353   2.993  1.00  0.00    -0.021 A 
HETATM   17  C   UNL     1      44.257 -20.539   5.421  1.00  0.00     0.102 A 
HETATM   18  C   UNL     1      43.934 -19.555   1.737  1.00  0.00     0.048 C 
HETATM   19  C   UNL     1      44.473 -21.713   2.877  1.00  0.00     0.010 A 
HETATM   20  C   UNL     1      44.679 -22.483   4.016  1.00  0.00     0.003 A 
HETATM   21  C   UNL     1      44.566 -21.899   5.275  1.00  0.00     0.039 A 
BRANCH  17  22
HETATM   22  O   UNL     1      44.190 -20.164   6.735  1.00  0.00    -0.353 OA
HETATM   23  C   UNL     1      43.546 -21.016   7.667  1.00  0.00     0.210 C 
ENDBRANCH  17  22
ENDBRANCH  11  12
ENDBRANCH   3  11
BRANCH   1  24
HETATM   24  N   UNL     1      39.536 -15.194   2.961  1.00  0.00    -0.281 NA
HETATM   25  C   UNL     1      40.277 -14.855   4.167  1.00  0.00     0.114 C 
HETATM   26  H   UNL     1      38.859 -15.933   3.132  1.00  0.00     0.128 HD
ENDBRANCH   1  24
TORSDOF 4
ENDMDL
MODEL 2
REMARK VINA RESULT:      -8.0      2.870      8.007
REMARK  4 active torsions:
REMARK  status: ('A' for Active; 'I' for Inactive)
REMARK    1  A    between atoms: N_2  and  C_3 
REMARK    2  A    between atoms: C_5  and  C_6 
REMARK    3  A    between atoms: C_6  and  C_7 
REMARK    4  A    between atoms: C_13  and  O_14 
ROOT
HETATM    1  C   UNL     1      44.020 -18.677   5.140  1.00  0.00     0.113 A 
HETATM    2  N   UNL     1      43.140 -17.657   5.095  1.00  0.00    -0.223 NA
HETATM    3  C   UNL     1      42.394 -17.484   3.972  1.00  0.00     0.106 A 
HETATM    4  N   UNL     1      42.492 -18.280   2.896  1.00  0.00    -0.347 N 
HETATM    5  H   UNL     1      41.926 -18.107   2.068  1.00  0.00     0.167 HD
HETATM    6  C   UNL     1      43.344 -19.300   2.945  1.00  0.00     0.020 A 
HETATM    7  C   UNL     1      44.124 -19.531   4.065  1.00  0.00     0.005 A 
HETATM    8  C   UNL     1      44.999 -20.724   3.856  1.00  0.00     0.044 C 
HETATM    9  C   UNL     1      44.305 -21.400   2.658  1.00  0.00     0.011 C 
HETATM   10  C   UNL     1      43.612 -20.288   1.855  1.00  0.00     0.058 C 
ENDROOT
BRANCH   3  11
HETATM   11  C   UNL     1      41.453 -16.312   3.929  1.00  0.00     0.085 C 
BRANCH  11  12
HETATM   12  C   UNL     1      41.023 -15.962   2.501  1.00  0.00     0.021 C 
HETATM   13  C   UNL     1      42.008 -15.047   1.776  1.00  0.00     0.181 C 
HETATM   14  O   UNL     1      41.643 -14.924   0.402  1.00  0.00    -0.347 OA
HETATM   15  C   UNL     1      40.357 -14.505   0.170  1.00  0.00     0.108 A 
HETATM   16  C   UNL     1      39.361 -14.653   1.158  1.00  0.00    -0.021 A 
HETATM   17  C   UNL     1      40.026 -13.968  -1.084  1.00  0.00     0.102 A 
HETATM   18  C   UNL     1      39.671 -15.243   2.506  1.00  0.00     0.048 C 
HETATM   19  C   UNL     1      38.054 -14.215   0.901  1.00  0.00     0.010 A 
HETATM   20  C   UNL     1      37.729 -13.666  -0.333  1.00  0.00     0.003 A 
HETATM   21  C   UNL     1      38.708 -13.550  -1.317  1.00  0.00     0.039 A 
BRANCH  17  22
HETATM   22  O   UNL     1      40.829 -13.770  -2.175  1.00  0.00    -0.353 OA
HETATM   23  C   UNL     1      41.025 -14.833  -3.092  1.00  0.00     0.210 C 
ENDBRANCH  17  22
ENDBRANCH  11  12
ENDBRANCH   3  11
BRANCH   1  24
HETATM   24  N   UNL     1      44.759 -18.925   6.292  1.00  0.00    -0.281 NA
HETATM   25  C   UNL     1      44.037 -18.841   7.553  1.00  0.00     0.114 C 
HETATM   26  H   UNL     1      45.622 -18.388   6.318  1.00  0.00     0.128 HD
ENDBRANCH   1  24
TORSDOF 4
ENDMDL
MODEL 3
REMARK VINA RESULT:      -8.0      3.160      7.988
REMARK  4 active torsions:
REMARK  status: ('A' for Active; 'I' for Inactive)
REMARK    1  A    between atoms: N_2  and  C_3 
REMARK    2  A    between atoms: C_5  and  C_6 
REMARK    3  A    between atoms: C_6  and  C_7 
REMARK    4  A    between atoms: C_13  and  O_14 
ROOT
HETATM    1  C   UNL     1      43.948 -18.343   4.567  1.00  0.00     0.113 A 
HETATM    2  N   UNL     1      43.025 -17.418   4.238  1.00  0.00    -0.223 NA
HETATM    3  C   UNL     1      42.309 -17.585   3.095  1.00  0.00     0.106 A 
HETATM    4  N   UNL     1      42.479 -18.630   2.268  1.00  0.00    -0.347 N 
HETATM    5  H   UNL     1      41.933 -18.709   1.413  1.00  0.00     0.167 HD
HETATM    6  C   UNL     1      43.374 -19.555   2.601  1.00  0.00     0.020 A 
HETATM    7  C   UNL     1      44.126 -19.442   3.758  1.00  0.00     0.005 A 
HETATM    8  C   UNL     1      45.061 -20.601   3.889  1.00  0.00     0.044 C 
HETATM    9  C   UNL     1      44.439 -21.603   2.898  1.00  0.00     0.011 C 
HETATM   10  C   UNL     1      43.722 -20.778   1.817  1.00  0.00     0.058 C 
ENDROOT
BRANCH   3  11
HETATM   11  C   UNL     1      41.318 -16.516   2.725  1.00  0.00     0.085 C 
BRANCH  11  12
HETATM   12  C   UNL     1      41.777 -15.687   1.522  1.00  0.00     0.021 C 
HETATM   13  C   UNL     1      41.491 -14.193   1.668  1.00  0.00     0.181 C 
HETATM   14  O   UNL     1      42.115 -13.468   0.608  1.00  0.00    -0.347 OA
HETATM   15  C   UNL     1      41.792 -13.885  -0.658  1.00  0.00     0.108 A 
HETATM   16  C   UNL     1      41.293 -15.185  -0.885  1.00  0.00    -0.021 A 
HETATM   17  C   UNL     1      42.007 -13.018  -1.742  1.00  0.00     0.102 A 
HETATM   18  C   UNL     1      41.070 -16.150   0.246  1.00  0.00     0.048 C 
HETATM   19  C   UNL     1      40.968 -15.590  -2.188  1.00  0.00     0.010 A 
HETATM   20  C   UNL     1      41.162 -14.726  -3.259  1.00  0.00     0.003 A 
HETATM   21  C   UNL     1      41.683 -13.454  -3.034  1.00  0.00     0.039 A 
BRANCH  17  22
HETATM   22  O   UNL     1      42.505 -11.743  -1.738  1.00  0.00    -0.353 OA
HETATM   23  C   UNL     1      42.480 -10.986  -2.936  1.00  0.00     0.210 C 
ENDBRANCH  17  22
ENDBRANCH  11  12
ENDBRANCH   3  11
BRANCH   1  24
HETATM   24  N   UNL     1      44.659 -18.240   5.758  1.00  0.00    -0.281 NA
HETATM   25  C   UNL     1      44.418 -17.045   6.554  1.00  0.00     0.114 C 
HETATM   26  H   UNL     1      45.653 -18.410   5.628  1.00  0.00     0.128 HD
ENDBRANCH   1  24
TORSDOF 4
ENDMDL
MODEL 4
REMARK VINA RESULT:      -7.8      2.068      2.915
REMARK  4 active torsions:
REMARK  status: ('A' for Active; 'I' for Inactive)
REMARK    1  A    between atoms: N_2  and  C_3 
REMARK    2  A    between atoms: C_5  and  C_6 
REMARK    3  A    between atoms: C_6  and  C_7 
REMARK    4  A    between atoms: C_13  and  O_14 
ROOT
HETATM    1  C   UNL     1      41.930 -13.549   0.673  1.00  0.00     0.113 A 
HETATM    2  N   UNL     1      41.671 -14.743   1.241  1.00  0.00    -0.223 NA
HETATM    3  C   UNL     1      41.329 -15.789   0.443  1.00  0.00     0.106 A 
HETATM    4  N   UNL     1      41.231 -15.691  -0.893  1.00  0.00    -0.347 N 
HETATM    5  H   UNL     1      40.955 -16.494  -1.454  1.00  0.00     0.167 HD
HETATM    6  C   UNL     1      41.506 -14.519  -1.459  1.00  0.00     0.020 A 
HETATM    7  C   UNL     1      41.869 -13.422  -0.696  1.00  0.00     0.005 A 
HETATM    8  C   UNL     1      42.110 -12.234  -1.571  1.00  0.00     0.044 C 
HETATM    9  C   UNL     1      42.269 -12.904  -2.950  1.00  0.00     0.011 C 
HETATM   10  C   UNL     1      41.443 -14.200  -2.917  1.00  0.00     0.058 C 
ENDROOT
BRANCH   3  11
HETATM   11  C   UNL     1      40.999 -17.098   1.104  1.00  0.00     0.085 C 
BRANCH  11  12
HETATM   12  C   UNL     1      42.089 -17.546   2.084  1.00  0.00     0.021 C 
HETATM   13  C   UNL     1      42.480 -19.015   1.928  1.00  0.00     0.181 C 
HETATM   14  O   UNL     1      43.623 -19.306   2.733  1.00  0.00    -0.347 OA
HETATM   15  C   UNL     1      43.502 -18.991   4.063  1.00  0.00     0.108 A 
HETATM   16  C   UNL     1      42.552 -18.042   4.496  1.00  0.00    -0.021 A 
HETATM   17  C   UNL     1      44.368 -19.591   4.991  1.00  0.00     0.102 A 
HETATM   18  C   UNL     1      41.621 -17.363   3.530  1.00  0.00     0.048 C 
HETATM   19  C   UNL     1      42.443 -17.738   5.861  1.00  0.00     0.010 A 
HETATM   20  C   UNL     1      43.288 -18.345   6.784  1.00  0.00     0.003 A 
HETATM   21  C   UNL     1      44.244 -19.258   6.347  1.00  0.00     0.039 A 
BRANCH  17  22
HETATM   22  O   UNL     1      45.365 -20.502   4.773  1.00  0.00    -0.353 OA
HETATM   23  C   UNL     1      45.076 -21.885   4.884  1.00  0.00     0.210 C 
ENDBRANCH  17  22
ENDBRANCH  11  12
ENDBRANCH   3  11
BRANCH   1  24
HETATM   24  N   UNL     1      42.342 -12.471   1.449  1.00  0.00    -0.281 NA
HETATM   25  C   UNL     1      41.621 -12.258   2.695  1.00  0.00     0.114 C 
HETATM   26  H   UNL     1      42.415 -11.614   0.907  1.00  0.00     0.128 HD
ENDBRANCH   1  24
TORSDOF 4
ENDMDL
MODEL 5
REMARK VINA RESULT:      -7.7      1.968      3.192
REMARK  4 active torsions:
REMARK  status: ('A' for Active; 'I' for Inactive)
REMARK    1  A    between atoms: N_2  and  C_3 
REMARK    2  A    between atoms: C_5  and  C_6 
REMARK    3  A    between atoms: C_6  and  C_7 
REMARK    4  A    between atoms: C_13  and  O_14 
ROOT
HETATM    1  C   UNL     1      41.670 -13.043   0.368  1.00  0.00     0.113 A 
HETATM    2  N   UNL     1      41.011 -13.749   1.307  1.00  0.00    -0.223 NA
HETATM    3  C   UNL     1      40.270 -14.822   0.921  1.00  0.00     0.106 A 
HETATM    4  N   UNL     1      40.158 -15.213  -0.359  1.00  0.00    -0.347 N 
HETATM    5  H   UNL     1      39.580 -16.012  -0.608  1.00  0.00     0.167 HD
HETATM    6  C   UNL     1      40.824 -14.530  -1.286  1.00  0.00     0.020 A 
HETATM    7  C   UNL     1      41.601 -13.435  -0.950  1.00  0.00     0.005 A 
HETATM    8  C   UNL     1      42.227 -12.844  -2.172  1.00  0.00     0.044 C 
HETATM    9  C   UNL     1      42.066 -13.998  -3.181  1.00  0.00     0.011 C 
HETATM   10  C   UNL     1      40.820 -14.793  -2.757  1.00  0.00     0.058 C 
ENDROOT
BRANCH   3  11
HETATM   11  C   UNL     1      39.508 -15.566   1.981  1.00  0.00     0.085 C 
BRANCH  11  12
HETATM   12  C   UNL     1      40.372 -16.610   2.696  1.00  0.00     0.021 C 
HETATM   13  C   UNL     1      41.173 -16.039   3.865  1.00  0.00     0.181 C 
HETATM   14  O   UNL     1      41.796 -17.095   4.595  1.00  0.00    -0.347 OA
HETATM   15  C   UNL     1      42.585 -17.936   3.853  1.00  0.00     0.108 A 
HETATM   16  C   UNL     1      42.412 -18.045   2.457  1.00  0.00    -0.021 A 
HETATM   17  C   UNL     1      43.543 -18.730   4.504  1.00  0.00     0.102 A 
HETATM   18  C   UNL     1      41.382 -17.228   1.727  1.00  0.00     0.048 C 
HETATM   19  C   UNL     1      43.232 -18.910   1.718  1.00  0.00     0.010 A 
HETATM   20  C   UNL     1      44.194 -19.682   2.358  1.00  0.00     0.003 A 
HETATM   21  C   UNL     1      44.341 -19.594   3.740  1.00  0.00     0.039 A 
BRANCH  17  22
HETATM   22  O   UNL     1      43.844 -18.795   5.838  1.00  0.00    -0.353 OA
HETATM   23  C   UNL     1      45.002 -18.134   6.319  1.00  0.00     0.210 C 
ENDBRANCH  17  22
ENDBRANCH  11  12
ENDBRANCH   3  11
BRANCH   1  24
HETATM   24  N   UNL     1      42.487 -11.976   0.728  1.00  0.00    -0.281 NA
HETATM   25  C   UNL     1      41.868 -10.658   0.724  1.00  0.00     0.114 C 
HETATM   26  H   UNL     1      43.368 -11.978   0.220  1.00  0.00     0.128 HD
ENDBRANCH   1  24
TORSDOF 4
ENDMDL
MODEL 6
REMARK VINA RESULT:      -7.7      2.993      7.854
REMARK  4 active torsions:
REMARK  status: ('A' for Active; 'I' for Inactive)
REMARK    1  A    between atoms: N_2  and  C_3 
REMARK    2  A    between atoms: C_5  and  C_6 
REMARK    3  A    between atoms: C_6  and  C_7 
REMARK    4  A    between atoms: C_13  and  O_14 
ROOT
HETATM    1  C   UNL     1      44.434 -19.213   4.798  1.00  0.00     0.113 A 
HETATM    2  N   UNL     1      44.185 -18.188   3.960  1.00  0.00    -0.223 NA
HETATM    3  C   UNL     1      44.126 -18.433   2.624  1.00  0.00     0.106 A 
HETATM    4  N   UNL     1      44.308 -19.653   2.093  1.00  0.00    -0.347 N 
HETATM    5  H   UNL     1      44.272 -19.792   1.086  1.00  0.00     0.167 HD
HETATM    6  C   UNL     1      44.534 -20.671   2.920  1.00  0.00     0.020 A 
HETATM    7  C   UNL     1      44.595 -20.481   4.290  1.00  0.00     0.005 A 
HETATM    8  C   UNL     1      44.871 -21.776   4.984  1.00  0.00     0.044 C 
HETATM    9  C   UNL     1      44.521 -22.791   3.879  1.00  0.00     0.011 C 
HETATM   10  C   UNL     1      44.775 -22.093   2.533  1.00  0.00     0.058 C 
ENDROOT
BRANCH   3  11
HETATM   11  C   UNL     1      43.893 -17.266   1.706  1.00  0.00     0.085 C 
BRANCH  11  12
HETATM   12  C   UNL     1      42.573 -16.546   2.002  1.00  0.00     0.021 C 
HETATM   13  C   UNL     1      41.671 -16.400   0.777  1.00  0.00     0.181 C 
HETATM   14  O   UNL     1      40.393 -15.900   1.166  1.00  0.00    -0.347 OA
HETATM   15  C   UNL     1      40.412 -14.726   1.877  1.00  0.00     0.108 A 
HETATM   16  C   UNL     1      41.573 -14.319   2.567  1.00  0.00    -0.021 A 
HETATM   17  C   UNL     1      39.243 -13.950   1.951  1.00  0.00     0.102 A 
HETATM   18  C   UNL     1      42.836 -15.133   2.530  1.00  0.00     0.048 C 
HETATM   19  C   UNL     1      41.571 -13.115   3.285  1.00  0.00     0.010 A 
HETATM   20  C   UNL     1      40.421 -12.336   3.344  1.00  0.00     0.003 A 
HETATM   21  C   UNL     1      39.268 -12.756   2.686  1.00  0.00     0.039 A 
BRANCH  17  22
HETATM   22  O   UNL     1      38.019 -14.182   1.385  1.00  0.00    -0.353 OA
HETATM   23  C   UNL     1      37.579 -13.352   0.324  1.00  0.00     0.210 C 
ENDBRANCH  17  22
ENDBRANCH  11  12
ENDBRANCH   3  11
BRANCH   1  24
HETATM   24  N   UNL     1      44.443 -19.014   6.175  1.00  0.00    -0.281 NA
HETATM   25  C   UNL     1      45.217 -17.881   6.660  1.00  0.00     0.114 C 
HETATM   26  H   UNL     1      44.665 -19.866   6.684  1.00  0.00     0.128 HD
ENDBRANCH   1  24
TORSDOF 4
ENDMDL
MODEL 7
REMARK VINA RESULT:      -7.7      3.195      8.238
REMARK  4 active torsions:
REMARK  status: ('A' for Active; 'I' for Inactive)
REMARK    1  A    between atoms: N_2  and  C_3 
REMARK    2  A    between atoms: C_5  and  C_6 
REMARK    3  A    between atoms: C_6  and  C_7 
REMARK    4  A    between atoms: C_13  and  O_14 
ROOT
HETATM    1  C   UNL     1      43.702 -19.564   2.597  1.00  0.00     0.113 A 
HETATM    2  N   UNL     1      42.844 -18.912   1.787  1.00  0.00    -0.223 NA
HETATM    3  C   UNL     1      42.124 -17.875   2.293  1.00  0.00     0.106 A 
HETATM    4  N   UNL     1      42.223 -17.467   3.569  1.00  0.00    -0.347 N 
HETATM    5  H   UNL     1      41.655 -16.696   3.913  1.00  0.00     0.167 HD
HETATM    6  C   UNL     1      43.084 -18.094   4.365  1.00  0.00     0.020 A 
HETATM    7  C   UNL     1      43.850 -19.151   3.901  1.00  0.00     0.005 A 
HETATM    8  C   UNL     1      44.720 -19.683   4.994  1.00  0.00     0.044 C 
HETATM    9  C   UNL     1      44.678 -18.522   6.006  1.00  0.00     0.011 C 
HETATM   10  C   UNL     1      43.333 -17.805   5.809  1.00  0.00     0.058 C 
ENDROOT
BRANCH   3  11
HETATM   11  C   UNL     1      41.140 -17.194   1.383  1.00  0.00     0.085 C 
BRANCH  11  12
HETATM   12  C   UNL     1      41.737 -15.960   0.699  1.00  0.00     0.021 C 
HETATM   13  C   UNL     1      41.448 -14.655   1.439  1.00  0.00     0.181 C 
HETATM   14  O   UNL     1      42.191 -13.585   0.855  1.00  0.00    -0.347 OA
HETATM   15  C   UNL     1      42.008 -13.410  -0.493  1.00  0.00     0.108 A 
HETATM   16  C   UNL     1      41.528 -14.463  -1.300  1.00  0.00    -0.021 A 
HETATM   17  C   UNL     1      42.350 -12.179  -1.077  1.00  0.00     0.102 A 
HETATM   18  C   UNL     1      41.172 -15.802  -0.715  1.00  0.00     0.048 C 
HETATM   19  C   UNL     1      41.346 -14.261  -2.675  1.00  0.00     0.010 A 
HETATM   20  C   UNL     1      41.665 -13.037  -3.252  1.00  0.00     0.003 A 
HETATM   21  C   UNL     1      42.168 -12.009  -2.457  1.00  0.00     0.039 A 
BRANCH  17  22
HETATM   22  O   UNL     1      42.853 -11.054  -0.482  1.00  0.00    -0.353 OA
HETATM   23  C   UNL     1      43.596 -10.132  -1.261  1.00  0.00     0.210 C 
ENDBRANCH  17  22
ENDBRANCH  11  12
ENDBRANCH   3  11
BRANCH   1  24
HETATM   24  N   UNL     1      44.499 -20.590   2.103  1.00  0.00    -0.281 NA
HETATM   25  C   UNL     1      43.828 -21.849   1.814  1.00  0.00     0.114 C 
HETATM   26  H   UNL     1      45.335 -20.731   2.664  1.00  0.00     0.128 HD
ENDBRANCH   1  24
TORSDOF 4
ENDMDL
MODEL 8
REMARK VINA RESULT:      -7.7      3.395      8.092
REMARK  4 active torsions:
REMARK  status: ('A' for Active; 'I' for Inactive)
REMARK    1  A    between atoms: N_2  and  C_3 
REMARK    2  A    between atoms: C_5  and  C_6 
REMARK    3  A    between atoms: C_6  and  C_7 
REMARK    4  A    between atoms: C_13  and  O_14 
ROOT
HETATM    1  C   UNL     1      41.767 -17.487   4.330  1.00  0.00     0.113 A 
HETATM    2  N   UNL     1      41.085 -16.855   3.355  1.00  0.00    -0.223 NA
HETATM    3  C   UNL     1      41.469 -17.034   2.063  1.00  0.00     0.106 A 
HETATM    4  N   UNL     1      42.504 -17.812   1.707  1.00  0.00    -0.347 N 
HETATM    5  H   UNL     1      42.769 -17.907   0.729  1.00  0.00     0.167 HD
HETATM    6  C   UNL     1      43.166 -18.455   2.665  1.00  0.00     0.020 A 
HETATM    7  C   UNL     1      42.813 -18.317   3.997  1.00  0.00     0.005 A 
HETATM    8  C   UNL     1      43.720 -19.130   4.864  1.00  0.00     0.044 C 
HETATM    9  C   UNL     1      44.346 -20.087   3.831  1.00  0.00     0.011 C 
HETATM   10  C   UNL     1      44.347 -19.351   2.481  1.00  0.00     0.058 C 
ENDROOT
BRANCH   3  11
HETATM   11  C   UNL     1      40.722 -16.281   0.998  1.00  0.00     0.085 C 
BRANCH  11  12
HETATM   12  C   UNL     1      41.550 -15.137   0.403  1.00  0.00     0.021 C 
HETATM   13  C   UNL     1      41.416 -13.825   1.174  1.00  0.00     0.181 C 
HETATM   14  O   UNL     1      42.355 -12.870   0.682  1.00  0.00    -0.347 OA
HETATM   15  C   UNL     1      42.297 -12.628  -0.667  1.00  0.00     0.108 A 
HETATM   16  C   UNL     1      41.718 -13.569  -1.544  1.00  0.00    -0.021 A 
HETATM   17  C   UNL     1      42.866 -11.451  -1.178  1.00  0.00     0.102 A 
HETATM   18  C   UNL     1      41.118 -14.851  -1.037  1.00  0.00     0.048 C 
HETATM   19  C   UNL     1      41.667 -13.301  -2.920  1.00  0.00     0.010 A 
HETATM   20  C   UNL     1      42.212 -12.127  -3.425  1.00  0.00     0.003 A 
HETATM   21  C   UNL     1      42.811 -11.215  -2.559  1.00  0.00     0.039 A 
BRANCH  17  22
HETATM   22  O   UNL     1      43.495 -10.437  -0.508  1.00  0.00    -0.353 OA
HETATM   23  C   UNL     1      43.848  -9.257  -1.209  1.00  0.00     0.210 C 
ENDBRANCH  17  22
ENDBRANCH  11  12
ENDBRANCH   3  11
BRANCH   1  24
HETATM   24  N   UNL     1      41.368 -17.378   5.658  1.00  0.00    -0.281 NA
HETATM   25  C   UNL     1      41.054 -16.037   6.130  1.00  0.00     0.114 C 
HETATM   26  H   UNL     1      42.003 -17.859   6.290  1.00  0.00     0.128 HD
ENDBRANCH   1  24
TORSDOF 4
ENDMDL
MODEL 9
REMARK VINA RESULT:      -7.5      2.522      3.527
REMARK  4 active torsions:
REMARK  status: ('A' for Active; 'I' for Inactive)
REMARK    1  A    between atoms: N_2  and  C_3 
REMARK    2  A    between atoms: C_5  and  C_6 
REMARK    3  A    between atoms: C_6  and  C_7 
REMARK    4  A    between atoms: C_13  and  O_14 
ROOT
HETATM    1  C   UNL     1      42.667 -13.930   5.571  1.00  0.00     0.113 A 
HETATM    2  N   UNL     1      43.293 -14.752   4.705  1.00  0.00    -0.223 NA
HETATM    3  C   UNL     1      42.639 -15.138   3.578  1.00  0.00     0.106 A 
HETATM    4  N   UNL     1      41.390 -14.742   3.282  1.00  0.00    -0.347 N 
HETATM    5  H   UNL     1      40.929 -15.067   2.435  1.00  0.00     0.167 HD
HETATM    6  C   UNL     1      40.777 -13.914   4.123  1.00  0.00     0.020 A 
HETATM    7  C   UNL     1      41.398 -13.481   5.282  1.00  0.00     0.005 A 
HETATM    8  C   UNL     1      40.492 -12.574   6.052  1.00  0.00     0.044 C 
HETATM    9  C   UNL     1      39.457 -12.197   4.975  1.00  0.00     0.011 C 
HETATM   10  C   UNL     1      39.392 -13.372   3.986  1.00  0.00     0.058 C 
ENDROOT
BRANCH   3  11
HETATM   11  C   UNL     1      43.340 -16.092   2.652  1.00  0.00     0.085 C 
BRANCH  11  12
HETATM   12  C   UNL     1      43.362 -17.524   3.198  1.00  0.00     0.021 C 
HETATM   13  C   UNL     1      44.355 -17.723   4.342  1.00  0.00     0.181 C 
HETATM   14  O   UNL     1      44.181 -19.016   4.921  1.00  0.00    -0.347 OA
HETATM   15  C   UNL     1      44.259 -20.069   4.045  1.00  0.00     0.108 A 
HETATM   16  C   UNL     1      44.043 -19.876   2.664  1.00  0.00    -0.021 A 
HETATM   17  C   UNL     1      44.510 -21.358   4.542  1.00  0.00     0.102 A 
HETATM   18  C   UNL     1      43.750 -18.514   2.097  1.00  0.00     0.048 C 
HETATM   19  C   UNL     1      44.129 -20.965   1.786  1.00  0.00     0.010 A 
HETATM   20  C   UNL     1      44.397 -22.239   2.274  1.00  0.00     0.003 A 
HETATM   21  C   UNL     1      44.580 -22.430   3.641  1.00  0.00     0.039 A 
BRANCH  17  22
HETATM   22  O   UNL     1      44.715 -21.757   5.834  1.00  0.00    -0.353 OA
HETATM   23  C   UNL     1      43.726 -21.479   6.811  1.00  0.00     0.210 C 
ENDBRANCH  17  22
ENDBRANCH  11  12
ENDBRANCH   3  11
BRANCH   1  24
HETATM   24  N   UNL     1      43.323 -13.464   6.705  1.00  0.00    -0.281 NA
HETATM   25  C   UNL     1      44.484 -14.227   7.139  1.00  0.00     0.114 C 
HETATM   26  H   UNL     1      42.682 -13.287   7.474  1.00  0.00     0.128 HD
ENDBRANCH   1  24
TORSDOF 4
ENDMDL
MODEL 10
REMARK VINA RESULT:      -7.3      3.101      7.937
REMARK  4 active torsions:
REMARK  status: ('A' for Active; 'I' for Inactive)
REMARK    1  A    between atoms: N_2  and  C_3 
REMARK    2  A    between atoms: C_5  and  C_6 
REMARK    3  A    between atoms: C_6  and  C_7 
REMARK    4  A    between atoms: C_13  and  O_14 
ROOT
HETATM    1  C   UNL     1      44.130 -19.649   4.774  1.00  0.00     0.113 A 
HETATM    2  N   UNL     1      43.705 -19.408   3.518  1.00  0.00    -0.223 NA
HETATM    3  C   UNL     1      42.737 -18.474   3.322  1.00  0.00     0.106 A 
HETATM    4  N   UNL     1      42.176 -17.777   4.323  1.00  0.00    -0.347 N 
HETATM    5  H   UNL     1      41.443 -17.097   4.135  1.00  0.00     0.167 HD
HETATM    6  C   UNL     1      42.609 -17.997   5.561  1.00  0.00     0.020 A 
HETATM    7  C   UNL     1      43.599 -18.930   5.820  1.00  0.00     0.005 A 
HETATM    8  C   UNL     1      43.889 -18.991   7.285  1.00  0.00     0.044 C 
HETATM    9  C   UNL     1      43.260 -17.671   7.772  1.00  0.00     0.011 C 
HETATM   10  C   UNL     1      42.110 -17.341   6.807  1.00  0.00     0.058 C 
ENDROOT
BRANCH   3  11
HETATM   11  C   UNL     1      42.247 -18.256   1.917  1.00  0.00     0.085 C 
BRANCH  11  12
HETATM   12  C   UNL     1      41.616 -16.873   1.728  1.00  0.00     0.021 C 
HETATM   13  C   UNL     1      40.113 -16.847   2.003  1.00  0.00     0.181 C 
HETATM   14  O   UNL     1      39.636 -15.502   1.996  1.00  0.00    -0.347 OA
HETATM   15  C   UNL     1      39.918 -14.784   0.861  1.00  0.00     0.108 A 
HETATM   16  C   UNL     1      40.975 -15.166   0.009  1.00  0.00    -0.021 A 
HETATM   17  C   UNL     1      39.170 -13.630   0.577  1.00  0.00     0.102 A 
HETATM   18  C   UNL     1      41.812 -16.383   0.291  1.00  0.00     0.048 C 
HETATM   19  C   UNL     1      41.244 -14.419  -1.147  1.00  0.00     0.010 A 
HETATM   20  C   UNL     1      40.492 -13.287  -1.440  1.00  0.00     0.003 A 
HETATM   21  C   UNL     1      39.468 -12.896  -0.580  1.00  0.00     0.039 A 
BRANCH  17  22
HETATM   22  O   UNL     1      38.135 -13.079   1.283  1.00  0.00    -0.353 OA
HETATM   23  C   UNL     1      38.411 -12.076   2.246  1.00  0.00     0.210 C 
ENDBRANCH  17  22
ENDBRANCH  11  12
ENDBRANCH   3  11
BRANCH   1  24
HETATM   24  N   UNL     1      45.161 -20.553   5.011  1.00  0.00    -0.281 NA
HETATM   25  C   UNL     1      44.769 -21.941   5.209  1.00  0.00     0.114 C 
HETATM   26  H   UNL     1      45.792 -20.233   5.741  1.00  0.00     0.128 HD
ENDBRANCH   1  24
TORSDOF 4
ENDMDL
