MODEL 1
REMARK VINA RESULT:      -9.3      0.000      0.000
REMARK  6 active torsions:
REMARK  status: ('A' for Active; 'I' for Inactive)
REMARK    1  A    between atoms: O_2  and  C_3 
REMARK    2  A    between atoms: C_5  and  C_6 
REMARK    3  A    between atoms: C_12  and  C_13 
REMARK       I    between atoms: C_13  and  N_14 
REMARK    4  A    between atoms: N_14  and  C_15 
REMARK    5  A    between atoms: C_17  and  O_18 
REMARK    6  A    between atoms: C_23  and  C_24 
ROOT
HETATM    1  C   UNL     1      41.702 -17.479   4.741  1.00  0.00     0.118 C 
HETATM    2  N   UNL     1      40.953 -16.619   3.799  1.00  0.00    -0.365 N 
HETATM    3  C   UNL     1      41.566 -15.499   3.314  1.00  0.00     0.138 A 
HETATM    4  N   UNL     1      42.701 -14.997   3.910  1.00  0.00    -0.240 N 
HETATM    5  N   UNL     1      43.217 -13.936   3.275  1.00  0.00    -0.181 NA
HETATM    6  C   UNL     1      42.339 -13.704   2.295  1.00  0.00     0.160 A 
HETATM    7  C   UNL     1      41.281 -14.648   2.261  1.00  0.00     0.096 A 
HETATM    8  C   UNL     1      43.319 -15.552   5.101  1.00  0.00     0.221 C 
HETATM    9  C   UNL     1      42.362 -16.555   5.778  1.00  0.00     0.066 C 
HETATM   10  H   UNL     1      39.969 -16.527   4.063  1.00  0.00     0.161 HD
ENDROOT
BRANCH   7  11
HETATM   11  C   UNL     1      40.193 -14.681   1.296  1.00  0.00     0.261 C 
HETATM   12  N   UNL     1      40.525 -14.144   0.067  1.00  0.00    -0.323 N 
HETATM   13  H   UNL     1      41.443 -13.715   0.021  1.00  0.00     0.169 HD
HETATM   14  O   UNL     1      39.104 -15.150   1.606  1.00  0.00    -0.267 OA
BRANCH  12  15
HETATM   15  C   UNL     1      39.747 -14.113  -1.107  1.00  0.00     0.037 A 
HETATM   16  C   UNL     1      40.022 -14.879  -2.242  1.00  0.00     0.066 A 
HETATM   17  C   UNL     1      39.210 -14.763  -3.370  1.00  0.00     0.067 A 
HETATM   18  C   UNL     1      38.129 -13.893  -3.390  1.00  0.00     0.036 A 
HETATM   19  C   UNL     1      37.845 -13.129  -2.261  1.00  0.00     0.005 A 
HETATM   20  C   UNL     1      38.650 -13.242  -1.123  1.00  0.00     0.029 A 
BRANCH  17  21
HETATM   21  O   UNL     1      39.452 -15.500  -4.493  1.00  0.00    -0.361 OA
HETATM   22  H   UNL     1      40.136 -16.160  -4.286  1.00  0.00     0.217 HD
ENDBRANCH  17  21
ENDBRANCH  12  15
ENDBRANCH   7  11
BRANCH   1  23
HETATM   23  C   UNL     1      42.664 -18.419   4.014  1.00  0.00    -0.033 A 
HETATM   24  C   UNL     1      43.591 -19.204   4.723  1.00  0.00     0.046 A 
HETATM   25  C   UNL     1      44.446 -20.095   4.068  1.00  0.00     0.068 A 
HETATM   26  C   UNL     1      44.437 -20.172   2.679  1.00  0.00     0.037 A 
HETATM   27  C   UNL     1      43.562 -19.368   1.951  1.00  0.00     0.003 A 
HETATM   28  C   UNL     1      42.690 -18.495   2.611  1.00  0.00     0.009 A 
BRANCH  25  29
HETATM   29  O   UNL     1      45.289 -20.812   4.872  1.00  0.00    -0.356 OA
HETATM   30  C   UNL     1      44.924 -22.181   5.020  1.00  0.00     0.210 C 
ENDBRANCH  25  29
ENDBRANCH   1  23
BRANCH   8  31
HETATM   31  C   UNL     1      43.697 -14.477   6.098  1.00  0.00     0.409 C 
HETATM   32  F   UNL     1      42.714 -13.561   6.263  1.00  0.00    -0.169 F 
HETATM   33  F   UNL     1      43.896 -15.047   7.319  1.00  0.00    -0.169 F 
HETATM   34  F   UNL     1      44.841 -13.830   5.799  1.00  0.00    -0.169 F 
ENDBRANCH   8  31
TORSDOF 6
ENDMDL
MODEL 2
REMARK VINA RESULT:      -9.2      1.040      1.474
REMARK  6 active torsions:
REMARK  status: ('A' for Active; 'I' for Inactive)
REMARK    1  A    between atoms: O_2  and  C_3 
REMARK    2  A    between atoms: C_5  and  C_6 
REMARK    3  A    between atoms: C_12  and  C_13 
REMARK       I    between atoms: C_13  and  N_14 
REMARK    4  A    between atoms: N_14  and  C_15 
REMARK    5  A    between atoms: C_17  and  O_18 
REMARK    6  A    between atoms: C_23  and  C_24 
ROOT
HETATM    1  C   UNL     1      42.111 -17.416   5.491  1.00  0.00     0.118 C 
HETATM    2  N   UNL     1      41.392 -16.694   4.419  1.00  0.00    -0.365 N 
HETATM    3  C   UNL     1      42.018 -15.642   3.810  1.00  0.00     0.138 A 
HETATM    4  N   UNL     1      43.131 -15.058   4.373  1.00  0.00    -0.240 N 
HETATM    5  N   UNL     1      43.666 -14.087   3.621  1.00  0.00    -0.181 NA
HETATM    6  C   UNL     1      42.821 -13.993   2.590  1.00  0.00     0.160 A 
HETATM    7  C   UNL     1      41.768 -14.940   2.646  1.00  0.00     0.096 A 
HETATM    8  C   UNL     1      43.710 -15.447   5.646  1.00  0.00     0.221 C 
HETATM    9  C   UNL     1      42.732 -16.359   6.418  1.00  0.00     0.066 C 
HETATM   10  H   UNL     1      40.399 -16.574   4.635  1.00  0.00     0.161 HD
ENDROOT
BRANCH   7  11
HETATM   11  C   UNL     1      40.713 -15.108   1.657  1.00  0.00     0.261 C 
HETATM   12  N   UNL     1      40.897 -14.352   0.516  1.00  0.00    -0.323 N 
HETATM   13  H   UNL     1      41.684 -13.712   0.548  1.00  0.00     0.169 HD
HETATM   14  O   UNL     1      39.772 -15.861   1.877  1.00  0.00    -0.267 OA
BRANCH  12  15
HETATM   15  C   UNL     1      40.127 -14.356  -0.663  1.00  0.00     0.037 A 
HETATM   16  C   UNL     1      40.526 -14.975  -1.850  1.00  0.00     0.066 A 
HETATM   17  C   UNL     1      39.707 -14.906  -2.977  1.00  0.00     0.067 A 
HETATM   18  C   UNL     1      38.499 -14.224  -2.947  1.00  0.00     0.036 A 
HETATM   19  C   UNL     1      38.092 -13.608  -1.766  1.00  0.00     0.005 A 
HETATM   20  C   UNL     1      38.902 -13.677  -0.628  1.00  0.00     0.029 A 
BRANCH  17  21
HETATM   21  O   UNL     1      40.069 -15.503  -4.150  1.00  0.00    -0.361 OA
HETATM   22  H   UNL     1      39.388 -15.307  -4.818  1.00  0.00     0.217 HD
ENDBRANCH  17  21
ENDBRANCH  12  15
ENDBRANCH   7  11
BRANCH   1  23
HETATM   23  C   UNL     1      43.099 -18.437   4.927  1.00  0.00    -0.033 A 
HETATM   24  C   UNL     1      42.959 -18.945   3.623  1.00  0.00     0.046 A 
HETATM   25  C   UNL     1      43.880 -19.847   3.086  1.00  0.00     0.068 A 
HETATM   26  C   UNL     1      44.930 -20.315   3.870  1.00  0.00     0.037 A 
HETATM   27  C   UNL     1      45.063 -19.866   5.182  1.00  0.00     0.003 A 
HETATM   28  C   UNL     1      44.152 -18.942   5.708  1.00  0.00     0.009 A 
BRANCH  25  29
HETATM   29  O   UNL     1      43.640 -20.252   1.802  1.00  0.00    -0.356 OA
HETATM   30  C   UNL     1      43.900 -21.634   1.572  1.00  0.00     0.210 C 
ENDBRANCH  25  29
ENDBRANCH   1  23
BRANCH   8  31
HETATM   31  C   UNL     1      44.051 -14.247   6.505  1.00  0.00     0.409 C 
HETATM   32  F   UNL     1      43.072 -13.313   6.494  1.00  0.00    -0.169 F 
HETATM   33  F   UNL     1      44.183 -14.646   7.801  1.00  0.00    -0.169 F 
HETATM   34  F   UNL     1      45.215 -13.653   6.178  1.00  0.00    -0.169 F 
ENDBRANCH   8  31
TORSDOF 6
ENDMDL
MODEL 3
REMARK VINA RESULT:      -8.6      2.957      8.363
REMARK  6 active torsions:
REMARK  status: ('A' for Active; 'I' for Inactive)
REMARK    1  A    between atoms: O_2  and  C_3 
REMARK    2  A    between atoms: C_5  and  C_6 
REMARK    3  A    between atoms: C_12  and  C_13 
REMARK       I    between atoms: C_13  and  N_14 
REMARK    4  A    between atoms: N_14  and  C_15 
REMARK    5  A    between atoms: C_17  and  O_18 
REMARK    6  A    between atoms: C_23  and  C_24 
ROOT
HETATM    1  C   UNL     1      41.243 -13.789  -1.368  1.00  0.00     0.118 C 
HETATM    2  N   UNL     1      41.917 -14.785  -0.509  1.00  0.00    -0.365 N 
HETATM    3  C   UNL     1      41.256 -15.243   0.597  1.00  0.00     0.138 A 
HETATM    4  N   UNL     1      40.154 -14.582   1.088  1.00  0.00    -0.240 N 
HETATM    5  N   UNL     1      39.582 -15.194   2.133  1.00  0.00    -0.181 NA
HETATM    6  C   UNL     1      40.392 -16.230   2.367  1.00  0.00     0.160 A 
HETATM    7  C   UNL     1      41.460 -16.321   1.440  1.00  0.00     0.096 A 
HETATM    8  C   UNL     1      39.621 -13.348   0.538  1.00  0.00     0.221 C 
HETATM    9  C   UNL     1      40.635 -12.722  -0.443  1.00  0.00     0.066 C 
HETATM   10  H   UNL     1      42.914 -14.586  -0.398  1.00  0.00     0.161 HD
ENDROOT
BRANCH   7  11
HETATM   11  C   UNL     1      42.486 -17.353   1.412  1.00  0.00     0.261 C 
HETATM   12  N   UNL     1      42.386 -18.261   2.447  1.00  0.00    -0.323 N 
HETATM   13  H   UNL     1      41.678 -18.045   3.141  1.00  0.00     0.169 HD
HETATM   14  O   UNL     1      43.335 -17.359   0.528  1.00  0.00    -0.267 OA
BRANCH  12  15
HETATM   15  C   UNL     1      43.147 -19.428   2.656  1.00  0.00     0.037 A 
HETATM   16  C   UNL     1      44.016 -19.607   3.735  1.00  0.00     0.066 A 
HETATM   17  C   UNL     1      44.749 -20.788   3.847  1.00  0.00     0.067 A 
HETATM   18  C   UNL     1      44.637 -21.795   2.899  1.00  0.00     0.036 A 
HETATM   19  C   UNL     1      43.771 -21.627   1.822  1.00  0.00     0.005 A 
HETATM   20  C   UNL     1      43.026 -20.449   1.704  1.00  0.00     0.029 A 
BRANCH  17  21
HETATM   21  O   UNL     1      45.603 -20.993   4.892  1.00  0.00    -0.361 OA
HETATM   22  H   UNL     1      45.243 -21.704   5.449  1.00  0.00     0.217 HD
ENDBRANCH  17  21
ENDBRANCH  12  15
ENDBRANCH   7  11
BRANCH   1  23
HETATM   23  C   UNL     1      40.252 -14.443  -2.331  1.00  0.00    -0.033 A 
HETATM   24  C   UNL     1      39.016 -13.841  -2.628  1.00  0.00     0.046 A 
HETATM   25  C   UNL     1      38.123 -14.412  -3.537  1.00  0.00     0.068 A 
HETATM   26  C   UNL     1      38.419 -15.639  -4.123  1.00  0.00     0.037 A 
HETATM   27  C   UNL     1      39.615 -16.281  -3.808  1.00  0.00     0.003 A 
HETATM   28  C   UNL     1      40.519 -15.693  -2.916  1.00  0.00     0.009 A 
BRANCH  25  29
HETATM   29  O   UNL     1      36.963 -13.719  -3.750  1.00  0.00    -0.356 OA
HETATM   30  C   UNL     1      37.147 -12.316  -3.909  1.00  0.00     0.210 C 
ENDBRANCH  25  29
ENDBRANCH   1  23
BRANCH   8  31
HETATM   31  C   UNL     1      39.289 -12.340   1.618  1.00  0.00     0.409 C 
HETATM   32  F   UNL     1      40.212 -12.327   2.608  1.00  0.00    -0.169 F 
HETATM   33  F   UNL     1      39.288 -11.089   1.080  1.00  0.00    -0.169 F 
HETATM   34  F   UNL     1      38.072 -12.509   2.170  1.00  0.00    -0.169 F 
ENDBRANCH   8  31
TORSDOF 6
ENDMDL
MODEL 4
REMARK VINA RESULT:      -8.5      3.978      7.522
REMARK  6 active torsions:
REMARK  status: ('A' for Active; 'I' for Inactive)
REMARK    1  A    between atoms: O_2  and  C_3 
REMARK    2  A    between atoms: C_5  and  C_6 
REMARK    3  A    between atoms: C_12  and  C_13 
REMARK       I    between atoms: C_13  and  N_14 
REMARK    4  A    between atoms: N_14  and  C_15 
REMARK    5  A    between atoms: C_17  and  O_18 
REMARK    6  A    between atoms: C_23  and  C_24 
ROOT
HETATM    1  C   UNL     1      43.675 -16.282   2.292  1.00  0.00     0.118 C 
HETATM    2  N   UNL     1      43.800 -15.494   3.537  1.00  0.00    -0.365 N 
HETATM    3  C   UNL     1      42.695 -15.350   4.329  1.00  0.00     0.138 A 
HETATM    4  N   UNL     1      41.437 -15.635   3.849  1.00  0.00    -0.240 N 
HETATM    5  N   UNL     1      40.470 -15.507   4.766  1.00  0.00    -0.181 NA
HETATM    6  C   UNL     1      41.120 -15.046   5.839  1.00  0.00     0.160 A 
HETATM    7  C   UNL     1      42.517 -14.926   5.633  1.00  0.00     0.096 A 
HETATM    8  C   UNL     1      41.151 -16.058   2.489  1.00  0.00     0.221 C 
HETATM    9  C   UNL     1      42.384 -15.827   1.591  1.00  0.00     0.066 C 
HETATM   10  H   UNL     1      44.386 -14.666   3.410  1.00  0.00     0.161 HD
ENDROOT
BRANCH   7  11
HETATM   11  C   UNL     1      43.494 -14.484   6.618  1.00  0.00     0.261 C 
HETATM   12  N   UNL     1      43.345 -13.163   6.992  1.00  0.00    -0.323 N 
HETATM   13  H   UNL     1      42.643 -12.646   6.471  1.00  0.00     0.169 HD
HETATM   14  O   UNL     1      44.347 -15.258   7.035  1.00  0.00    -0.267 OA
BRANCH  12  15
HETATM   15  C   UNL     1      44.048 -12.456   7.986  1.00  0.00     0.037 A 
HETATM   16  C   UNL     1      43.448 -11.569   8.883  1.00  0.00     0.066 A 
HETATM   17  C   UNL     1      44.230 -10.894   9.819  1.00  0.00     0.067 A 
HETATM   18  C   UNL     1      45.604 -11.080   9.875  1.00  0.00     0.036 A 
HETATM   19  C   UNL     1      46.211 -11.966   8.988  1.00  0.00     0.005 A 
HETATM   20  C   UNL     1      45.434 -12.654   8.050  1.00  0.00     0.029 A 
BRANCH  17  21
HETATM   21  O   UNL     1      43.672 -10.023  10.709  1.00  0.00    -0.361 OA
HETATM   22  H   UNL     1      42.704 -10.101  10.650  1.00  0.00     0.217 HD
ENDBRANCH  17  21
ENDBRANCH  12  15
ENDBRANCH   7  11
BRANCH   1  23
HETATM   23  C   UNL     1      43.767 -17.785   2.556  1.00  0.00    -0.033 A 
HETATM   24  C   UNL     1      44.129 -18.283   3.821  1.00  0.00     0.046 A 
HETATM   25  C   UNL     1      44.176 -19.654   4.081  1.00  0.00     0.068 A 
HETATM   26  C   UNL     1      43.927 -20.564   3.058  1.00  0.00     0.037 A 
HETATM   27  C   UNL     1      43.615 -20.097   1.783  1.00  0.00     0.003 A 
HETATM   28  C   UNL     1      43.543 -18.722   1.532  1.00  0.00     0.009 A 
BRANCH  25  29
HETATM   29  O   UNL     1      44.526 -20.008   5.355  1.00  0.00    -0.356 OA
HETATM   30  C   UNL     1      44.682 -18.904   6.241  1.00  0.00     0.210 C 
ENDBRANCH  25  29
ENDBRANCH   1  23
BRANCH   8  31
HETATM   31  C   UNL     1      39.966 -15.321   1.902  1.00  0.00     0.409 C 
HETATM   32  F   UNL     1      39.856 -14.060   2.382  1.00  0.00    -0.169 F 
HETATM   33  F   UNL     1      40.132 -15.204   0.555  1.00  0.00    -0.169 F 
HETATM   34  F   UNL     1      38.787 -15.951   2.078  1.00  0.00    -0.169 F 
ENDBRANCH   8  31
TORSDOF 6
ENDMDL
MODEL 5
REMARK VINA RESULT:      -8.4      1.617      2.256
REMARK  6 active torsions:
REMARK  status: ('A' for Active; 'I' for Inactive)
REMARK    1  A    between atoms: O_2  and  C_3 
REMARK    2  A    between atoms: C_5  and  C_6 
REMARK    3  A    between atoms: C_12  and  C_13 
REMARK       I    between atoms: C_13  and  N_14 
REMARK    4  A    between atoms: N_14  and  C_15 
REMARK    5  A    between atoms: C_17  and  O_18 
REMARK    6  A    between atoms: C_23  and  C_24 
ROOT
HETATM    1  C   UNL     1      41.798 -17.485   4.813  1.00  0.00     0.118 C 
HETATM    2  N   UNL     1      41.176 -16.478   3.927  1.00  0.00    -0.365 N 
HETATM    3  C   UNL     1      41.905 -15.373   3.586  1.00  0.00     0.138 A 
HETATM    4  N   UNL     1      43.041 -15.031   4.283  1.00  0.00    -0.240 N 
HETATM    5  N   UNL     1      43.677 -13.963   3.784  1.00  0.00    -0.181 NA
HETATM    6  C   UNL     1      42.878 -13.563   2.790  1.00  0.00     0.160 A 
HETATM    7  C   UNL     1      41.750 -14.404   2.611  1.00  0.00     0.096 A 
HETATM    8  C   UNL     1      43.544 -15.748   5.441  1.00  0.00     0.221 C 
HETATM    9  C   UNL     1      42.471 -16.725   5.967  1.00  0.00     0.066 C 
HETATM   10  H   UNL     1      40.189 -16.326   4.151  1.00  0.00     0.161 HD
ENDROOT
BRANCH   7  11
HETATM   11  C   UNL     1      40.719 -14.250   1.596  1.00  0.00     0.261 C 
HETATM   12  N   UNL     1      39.953 -13.111   1.752  1.00  0.00    -0.323 N 
HETATM   13  H   UNL     1      40.141 -12.580   2.597  1.00  0.00     0.169 HD
HETATM   14  O   UNL     1      40.589 -15.089   0.713  1.00  0.00    -0.267 OA
BRANCH  12  15
HETATM   15  C   UNL     1      38.951 -12.613   0.897  1.00  0.00     0.037 A 
HETATM   16  C   UNL     1      37.624 -12.416   1.287  1.00  0.00     0.066 A 
HETATM   17  C   UNL     1      36.693 -11.942   0.363  1.00  0.00     0.067 A 
HETATM   18  C   UNL     1      37.058 -11.666  -0.948  1.00  0.00     0.036 A 
HETATM   19  C   UNL     1      38.380 -11.855  -1.343  1.00  0.00     0.005 A 
HETATM   20  C   UNL     1      39.323 -12.324  -0.423  1.00  0.00     0.029 A 
BRANCH  17  21
HETATM   21  O   UNL     1      35.390 -11.737   0.714  1.00  0.00    -0.361 OA
HETATM   22  H   UNL     1      34.915 -11.384  -0.058  1.00  0.00     0.217 HD
ENDBRANCH  17  21
ENDBRANCH  12  15
ENDBRANCH   7  11
BRANCH   1  23
HETATM   23  C   UNL     1      42.719 -18.431   4.043  1.00  0.00    -0.033 A 
HETATM   24  C   UNL     1      43.676 -19.219   4.708  1.00  0.00     0.046 A 
HETATM   25  C   UNL     1      44.494 -20.115   4.015  1.00  0.00     0.068 A 
HETATM   26  C   UNL     1      44.419 -20.195   2.628  1.00  0.00     0.037 A 
HETATM   27  C   UNL     1      43.513 -19.389   1.942  1.00  0.00     0.003 A 
HETATM   28  C   UNL     1      42.678 -18.510   2.640  1.00  0.00     0.009 A 
BRANCH  25  29
HETATM   29  O   UNL     1      45.372 -20.835   4.779  1.00  0.00    -0.356 OA
HETATM   30  C   UNL     1      44.934 -22.157   5.075  1.00  0.00     0.210 C 
ENDBRANCH  25  29
ENDBRANCH   1  23
BRANCH   8  31
HETATM   31  C   UNL     1      43.951 -14.811   6.558  1.00  0.00     0.409 C 
HETATM   32  F   UNL     1      43.901 -15.407   7.772  1.00  0.00    -0.169 F 
HETATM   33  F   UNL     1      45.246 -14.428   6.374  1.00  0.00    -0.169 F 
HETATM   34  F   UNL     1      43.230 -13.674   6.608  1.00  0.00    -0.169 F 
ENDBRANCH   8  31
TORSDOF 6
ENDMDL
MODEL 6
REMARK VINA RESULT:      -8.4      4.013      6.001
REMARK  6 active torsions:
REMARK  status: ('A' for Active; 'I' for Inactive)
REMARK    1  A    between atoms: O_2  and  C_3 
REMARK    2  A    between atoms: C_5  and  C_6 
REMARK    3  A    between atoms: C_12  and  C_13 
REMARK       I    between atoms: C_13  and  N_14 
REMARK    4  A    between atoms: N_14  and  C_15 
REMARK    5  A    between atoms: C_17  and  O_18 
REMARK    6  A    between atoms: C_23  and  C_24 
ROOT
HETATM    1  C   UNL     1      41.533 -17.336   4.733  1.00  0.00     0.118 C 
HETATM    2  N   UNL     1      41.467 -15.912   5.126  1.00  0.00    -0.365 N 
HETATM    3  C   UNL     1      42.551 -15.357   5.747  1.00  0.00     0.138 A 
HETATM    4  N   UNL     1      43.539 -16.148   6.287  1.00  0.00    -0.240 N 
HETATM    5  N   UNL     1      44.563 -15.453   6.799  1.00  0.00    -0.181 NA
HETATM    6  C   UNL     1      44.177 -14.182   6.657  1.00  0.00     0.160 A 
HETATM    7  C   UNL     1      42.926 -14.051   6.003  1.00  0.00     0.096 A 
HETATM    8  C   UNL     1      43.518 -17.600   6.299  1.00  0.00     0.221 C 
HETATM    9  C   UNL     1      42.111 -18.113   5.927  1.00  0.00     0.066 C 
HETATM   10  H   UNL     1      40.547 -15.657   5.493  1.00  0.00     0.161 HD
ENDROOT
BRANCH   7  11
HETATM   11  C   UNL     1      42.257 -12.801   5.675  1.00  0.00     0.261 C 
HETATM   12  N   UNL     1      41.669 -12.185   6.763  1.00  0.00    -0.323 N 
HETATM   13  H   UNL     1      41.695 -12.720   7.625  1.00  0.00     0.169 HD
HETATM   14  O   UNL     1      42.247 -12.388   4.522  1.00  0.00    -0.267 OA
BRANCH  12  15
HETATM   15  C   UNL     1      41.037 -10.927   6.814  1.00  0.00     0.037 A 
HETATM   16  C   UNL     1      39.799 -10.655   6.228  1.00  0.00     0.066 A 
HETATM   17  C   UNL     1      39.261  -9.371   6.308  1.00  0.00     0.067 A 
HETATM   18  C   UNL     1      39.939  -8.348   6.956  1.00  0.00     0.036 A 
HETATM   19  C   UNL     1      41.172  -8.611   7.547  1.00  0.00     0.005 A 
HETATM   20  C   UNL     1      41.717  -9.898   7.478  1.00  0.00     0.029 A 
BRANCH  17  21
HETATM   21  O   UNL     1      38.052  -9.075   5.747  1.00  0.00    -0.361 OA
HETATM   22  H   UNL     1      38.085  -9.311   4.804  1.00  0.00     0.217 HD
ENDBRANCH  17  21
ENDBRANCH  12  15
ENDBRANCH   7  11
BRANCH   1  23
HETATM   23  C   UNL     1      42.285 -17.530   3.417  1.00  0.00    -0.033 A 
HETATM   24  C   UNL     1      42.828 -18.779   3.063  1.00  0.00     0.046 A 
HETATM   25  C   UNL     1      43.481 -18.975   1.844  1.00  0.00     0.068 A 
HETATM   26  C   UNL     1      43.666 -17.903   0.976  1.00  0.00     0.037 A 
HETATM   27  C   UNL     1      43.182 -16.644   1.325  1.00  0.00     0.003 A 
HETATM   28  C   UNL     1      42.505 -16.458   2.536  1.00  0.00     0.009 A 
BRANCH  25  29
HETATM   29  O   UNL     1      43.948 -20.240   1.613  1.00  0.00    -0.356 OA
HETATM   30  C   UNL     1      44.600 -20.829   2.734  1.00  0.00     0.210 C 
ENDBRANCH  25  29
ENDBRANCH   1  23
BRANCH   8  31
HETATM   31  C   UNL     1      43.911 -18.163   7.648  1.00  0.00     0.409 C 
HETATM   32  F   UNL     1      43.401 -17.443   8.674  1.00  0.00    -0.169 F 
HETATM   33  F   UNL     1      43.403 -19.421   7.775  1.00  0.00    -0.169 F 
HETATM   34  F   UNL     1      45.241 -18.280   7.826  1.00  0.00    -0.169 F 
ENDBRANCH   8  31
TORSDOF 6
ENDMDL
MODEL 7
REMARK VINA RESULT:      -8.2      4.245      7.349
REMARK  6 active torsions:
REMARK  status: ('A' for Active; 'I' for Inactive)
REMARK    1  A    between atoms: O_2  and  C_3 
REMARK    2  A    between atoms: C_5  and  C_6 
REMARK    3  A    between atoms: C_12  and  C_13 
REMARK       I    between atoms: C_13  and  N_14 
REMARK    4  A    between atoms: N_14  and  C_15 
REMARK    5  A    between atoms: C_17  and  O_18 
REMARK    6  A    between atoms: C_23  and  C_24 
ROOT
HETATM    1  C   UNL     1      43.944 -17.060   3.336  1.00  0.00     0.118 C 
HETATM    2  N   UNL     1      43.716 -15.747   3.977  1.00  0.00    -0.365 N 
HETATM    3  C   UNL     1      42.438 -15.407   4.326  1.00  0.00     0.138 A 
HETATM    4  N   UNL     1      41.359 -16.093   3.818  1.00  0.00    -0.240 N 
HETATM    5  N   UNL     1      40.182 -15.682   4.308  1.00  0.00    -0.181 NA
HETATM    6  C   UNL     1      40.515 -14.649   5.087  1.00  0.00     0.160 A 
HETATM    7  C   UNL     1      41.913 -14.424   5.144  1.00  0.00     0.096 A 
HETATM    8  C   UNL     1      41.451 -17.179   2.858  1.00  0.00     0.221 C 
HETATM    9  C   UNL     1      42.869 -17.232   2.251  1.00  0.00     0.066 C 
HETATM   10  H   UNL     1      44.290 -15.011   3.559  1.00  0.00     0.161 HD
ENDROOT
BRANCH   7  11
HETATM   11  C   UNL     1      42.585 -13.398   5.928  1.00  0.00     0.261 C 
HETATM   12  N   UNL     1      43.642 -13.876   6.677  1.00  0.00    -0.323 N 
HETATM   13  H   UNL     1      43.758 -14.884   6.661  1.00  0.00     0.169 HD
HETATM   14  O   UNL     1      42.199 -12.236   5.887  1.00  0.00    -0.267 OA
BRANCH  12  15
HETATM   15  C   UNL     1      44.557 -13.142   7.457  1.00  0.00     0.037 A 
HETATM   16  C   UNL     1      45.895 -12.947   7.109  1.00  0.00     0.066 A 
HETATM   17  C   UNL     1      46.735 -12.226   7.958  1.00  0.00     0.067 A 
HETATM   18  C   UNL     1      46.267 -11.700   9.154  1.00  0.00     0.036 A 
HETATM   19  C   UNL     1      44.933 -11.886   9.507  1.00  0.00     0.005 A 
HETATM   20  C   UNL     1      44.081 -12.602   8.659  1.00  0.00     0.029 A 
BRANCH  17  21
HETATM   21  O   UNL     1      48.046 -12.017   7.643  1.00  0.00    -0.361 OA
HETATM   22  H   UNL     1      48.509 -12.873   7.668  1.00  0.00     0.217 HD
ENDBRANCH  17  21
ENDBRANCH  12  15
ENDBRANCH   7  11
BRANCH   1  23
HETATM   23  C   UNL     1      44.009 -18.192   4.361  1.00  0.00    -0.033 A 
HETATM   24  C   UNL     1      43.758 -17.956   5.725  1.00  0.00     0.046 A 
HETATM   25  C   UNL     1      43.776 -18.993   6.662  1.00  0.00     0.068 A 
HETATM   26  C   UNL     1      44.113 -20.283   6.264  1.00  0.00     0.037 A 
HETATM   27  C   UNL     1      44.415 -20.533   4.927  1.00  0.00     0.003 A 
HETATM   28  C   UNL     1      44.371 -19.498   3.986  1.00  0.00     0.009 A 
BRANCH  25  29
HETATM   29  O   UNL     1      43.500 -18.635   7.953  1.00  0.00    -0.356 OA
HETATM   30  C   UNL     1      43.428 -17.227   8.161  1.00  0.00     0.210 C 
ENDBRANCH  25  29
ENDBRANCH   1  23
BRANCH   8  31
HETATM   31  C   UNL     1      40.438 -17.037   1.741  1.00  0.00     0.409 C 
HETATM   32  F   UNL     1      40.646 -17.929   0.744  1.00  0.00    -0.169 F 
HETATM   33  F   UNL     1      39.192 -17.292   2.228  1.00  0.00    -0.169 F 
HETATM   34  F   UNL     1      40.383 -15.802   1.206  1.00  0.00    -0.169 F 
ENDBRANCH   8  31
TORSDOF 6
ENDMDL
MODEL 8
REMARK VINA RESULT:      -8.1      4.054      8.051
REMARK  6 active torsions:
REMARK  status: ('A' for Active; 'I' for Inactive)
REMARK    1  A    between atoms: O_2  and  C_3 
REMARK    2  A    between atoms: C_5  and  C_6 
REMARK    3  A    between atoms: C_12  and  C_13 
REMARK       I    between atoms: C_13  and  N_14 
REMARK    4  A    between atoms: N_14  and  C_15 
REMARK    5  A    between atoms: C_17  and  O_18 
REMARK    6  A    between atoms: C_23  and  C_24 
ROOT
HETATM    1  C   UNL     1      38.217 -14.084   1.711  1.00  0.00     0.118 C 
HETATM    2  N   UNL     1      39.054 -15.295   1.854  1.00  0.00    -0.365 N 
HETATM    3  C   UNL     1      40.107 -15.462   1.000  1.00  0.00     0.138 A 
HETATM    4  N   UNL     1      40.207 -14.721  -0.156  1.00  0.00    -0.240 N 
HETATM    5  N   UNL     1      41.329 -14.954  -0.849  1.00  0.00    -0.181 NA
HETATM    6  C   UNL     1      41.921 -15.934  -0.159  1.00  0.00     0.160 A 
HETATM    7  C   UNL     1      41.209 -16.298   1.011  1.00  0.00     0.096 A 
HETATM    8  C   UNL     1      39.221 -13.753  -0.601  1.00  0.00     0.221 C 
HETATM    9  C   UNL     1      37.918 -13.910   0.213  1.00  0.00     0.066 C 
HETATM   10  H   UNL     1      38.495 -16.126   2.063  1.00  0.00     0.161 HD
ENDROOT
BRANCH   7  11
HETATM   11  C   UNL     1      41.613 -17.305   1.982  1.00  0.00     0.261 C 
HETATM   12  N   UNL     1      42.697 -18.060   1.579  1.00  0.00    -0.323 N 
HETATM   13  H   UNL     1      43.013 -17.884   0.630  1.00  0.00     0.169 HD
HETATM   14  O   UNL     1      41.005 -17.426   3.038  1.00  0.00    -0.267 OA
BRANCH  12  15
HETATM   15  C   UNL     1      43.397 -19.037   2.313  1.00  0.00     0.037 A 
HETATM   16  C   UNL     1      43.596 -20.347   1.871  1.00  0.00     0.066 A 
HETATM   17  C   UNL     1      44.282 -21.254   2.678  1.00  0.00     0.067 A 
HETATM   18  C   UNL     1      44.768 -20.883   3.924  1.00  0.00     0.036 A 
HETATM   19  C   UNL     1      44.577 -19.578   4.370  1.00  0.00     0.005 A 
HETATM   20  C   UNL     1      43.897 -18.658   3.566  1.00  0.00     0.029 A 
BRANCH  17  21
HETATM   21  O   UNL     1      44.494 -22.540   2.272  1.00  0.00    -0.361 OA
HETATM   22  H   UNL     1      44.687 -23.082   3.057  1.00  0.00     0.217 HD
ENDBRANCH  17  21
ENDBRANCH  12  15
ENDBRANCH   7  11
BRANCH   1  23
HETATM   23  C   UNL     1      38.852 -12.868   2.385  1.00  0.00    -0.033 A 
HETATM   24  C   UNL     1      39.995 -12.997   3.194  1.00  0.00     0.046 A 
HETATM   25  C   UNL     1      40.605 -11.886   3.781  1.00  0.00     0.068 A 
HETATM   26  C   UNL     1      40.043 -10.622   3.626  1.00  0.00     0.037 A 
HETATM   27  C   UNL     1      38.882 -10.475   2.870  1.00  0.00     0.003 A 
HETATM   28  C   UNL     1      38.288 -11.587   2.262  1.00  0.00     0.009 A 
BRANCH  25  29
HETATM   29  O   UNL     1      41.719 -12.143   4.532  1.00  0.00    -0.356 OA
HETATM   30  C   UNL     1      41.883 -13.517   4.873  1.00  0.00     0.210 C 
ENDBRANCH  25  29
ENDBRANCH   1  23
BRANCH   8  31
HETATM   31  C   UNL     1      38.905 -13.899  -2.074  1.00  0.00     0.409 C 
HETATM   32  F   UNL     1      38.967 -15.186  -2.487  1.00  0.00    -0.169 F 
HETATM   33  F   UNL     1      37.627 -13.486  -2.303  1.00  0.00    -0.169 F 
HETATM   34  F   UNL     1      39.687 -13.152  -2.878  1.00  0.00    -0.169 F 
ENDBRANCH   8  31
TORSDOF 6
ENDMDL
MODEL 9
REMARK VINA RESULT:      -8.0      2.582      7.744
REMARK  6 active torsions:
REMARK  status: ('A' for Active; 'I' for Inactive)
REMARK    1  A    between atoms: O_2  and  C_3 
REMARK    2  A    between atoms: C_5  and  C_6 
REMARK    3  A    between atoms: C_12  and  C_13 
REMARK       I    between atoms: C_13  and  N_14 
REMARK    4  A    between atoms: N_14  and  C_15 
REMARK    5  A    between atoms: C_17  and  O_18 
REMARK    6  A    between atoms: C_23  and  C_24 
ROOT
HETATM    1  C   UNL     1      41.617 -12.692  -0.090  1.00  0.00     0.118 C 
HETATM    2  N   UNL     1      42.164 -13.915   0.538  1.00  0.00    -0.365 N 
HETATM    3  C   UNL     1      41.415 -14.547   1.491  1.00  0.00     0.138 A 
HETATM    4  N   UNL     1      40.349 -13.915   2.090  1.00  0.00    -0.240 N 
HETATM    5  N   UNL     1      39.679 -14.691   2.951  1.00  0.00    -0.181 NA
HETATM    6  C   UNL     1      40.388 -15.824   2.964  1.00  0.00     0.160 A 
HETATM    7  C   UNL     1      41.488 -15.801   2.070  1.00  0.00     0.096 A 
HETATM    8  C   UNL     1      39.948 -12.546   1.821  1.00  0.00     0.221 C 
HETATM    9  C   UNL     1      41.057 -11.811   1.038  1.00  0.00     0.066 C 
HETATM   10  H   UNL     1      43.168 -13.837   0.719  1.00  0.00     0.161 HD
ENDROOT
BRANCH   7  11
HETATM   11  C   UNL     1      42.425 -16.890   1.836  1.00  0.00     0.261 C 
HETATM   12  N   UNL     1      42.539 -17.762   2.901  1.00  0.00    -0.323 N 
HETATM   13  H   UNL     1      42.034 -17.486   3.737  1.00  0.00     0.169 HD
HETATM   14  O   UNL     1      43.029 -16.969   0.773  1.00  0.00    -0.267 OA
BRANCH  12  15
HETATM   15  C   UNL     1      43.271 -18.963   2.966  1.00  0.00     0.037 A 
HETATM   16  C   UNL     1      43.189 -19.977   2.008  1.00  0.00     0.066 A 
HETATM   17  C   UNL     1      43.934 -21.145   2.170  1.00  0.00     0.067 A 
HETATM   18  C   UNL     1      44.755 -21.326   3.274  1.00  0.00     0.036 A 
HETATM   19  C   UNL     1      44.846 -20.319   4.231  1.00  0.00     0.005 A 
HETATM   20  C   UNL     1      44.108 -19.141   4.075  1.00  0.00     0.029 A 
BRANCH  17  21
HETATM   21  O   UNL     1      43.877 -22.151   1.250  1.00  0.00    -0.361 OA
HETATM   22  H   UNL     1      44.401 -21.888   0.473  1.00  0.00     0.217 HD
ENDBRANCH  17  21
ENDBRANCH  12  15
ENDBRANCH   7  11
BRANCH   1  23
HETATM   23  C   UNL     1      40.623 -13.019  -1.204  1.00  0.00    -0.033 A 
HETATM   24  C   UNL     1      40.802 -14.139  -2.037  1.00  0.00     0.046 A 
HETATM   25  C   UNL     1      39.877 -14.466  -3.031  1.00  0.00     0.068 A 
HETATM   26  C   UNL     1      38.781 -13.640  -3.259  1.00  0.00     0.037 A 
HETATM   27  C   UNL     1      38.608 -12.497  -2.481  1.00  0.00     0.003 A 
HETATM   28  C   UNL     1      39.522 -12.186  -1.469  1.00  0.00     0.009 A 
BRANCH  25  29
HETATM   29  O   UNL     1      40.159 -15.589  -3.761  1.00  0.00    -0.356 OA
HETATM   30  C   UNL     1      39.007 -16.243  -4.284  1.00  0.00     0.210 C 
ENDBRANCH  25  29
ENDBRANCH   1  23
BRANCH   8  31
HETATM   31  C   UNL     1      39.650 -11.781   3.094  1.00  0.00     0.409 C 
HETATM   32  F   UNL     1      40.531 -12.064   4.081  1.00  0.00    -0.169 F 
HETATM   33  F   UNL     1      39.764 -10.445   2.853  1.00  0.00    -0.169 F 
HETATM   34  F   UNL     1      38.402 -11.968   3.566  1.00  0.00    -0.169 F 
ENDBRANCH   8  31
TORSDOF 6
ENDMDL
MODEL 10
REMARK VINA RESULT:      -7.9      2.311      3.083
REMARK  6 active torsions:
REMARK  status: ('A' for Active; 'I' for Inactive)
REMARK    1  A    between atoms: O_2  and  C_3 
REMARK    2  A    between atoms: C_5  and  C_6 
REMARK    3  A    between atoms: C_12  and  C_13 
REMARK       I    between atoms: C_13  and  N_14 
REMARK    4  A    between atoms: N_14  and  C_15 
REMARK    5  A    between atoms: C_17  and  O_18 
REMARK    6  A    between atoms: C_23  and  C_24 
ROOT
HETATM    1  C   UNL     1      42.034 -17.095   5.658  1.00  0.00     0.118 C 
HETATM    2  N   UNL     1      41.435 -16.134   4.706  1.00  0.00    -0.365 N 
HETATM    3  C   UNL     1      42.204 -15.096   4.260  1.00  0.00     0.138 A 
HETATM    4  N   UNL     1      43.372 -14.752   4.902  1.00  0.00    -0.240 N 
HETATM    5  N   UNL     1      44.042 -13.759   4.302  1.00  0.00    -0.181 NA
HETATM    6  C   UNL     1      43.236 -13.404   3.298  1.00  0.00     0.160 A 
HETATM    7  C   UNL     1      42.068 -14.202   3.213  1.00  0.00     0.096 A 
HETATM    8  C   UNL     1      43.872 -15.397   6.102  1.00  0.00     0.221 C 
HETATM    9  C   UNL     1      42.770 -16.277   6.731  1.00  0.00     0.066 C 
HETATM   10  H   UNL     1      40.463 -15.919   4.939  1.00  0.00     0.161 HD
ENDROOT
BRANCH   7  11
HETATM   11  C   UNL     1      41.019 -14.082   2.212  1.00  0.00     0.261 C 
HETATM   12  N   UNL     1      39.935 -13.335   2.632  1.00  0.00    -0.323 N 
HETATM   13  H   UNL     1      39.964 -13.046   3.604  1.00  0.00     0.169 HD
HETATM   14  O   UNL     1      41.141 -14.620   1.118  1.00  0.00    -0.267 OA
BRANCH  12  15
HETATM   15  C   UNL     1      38.808 -12.942   1.884  1.00  0.00     0.037 A 
HETATM   16  C   UNL     1      38.327 -11.632   1.833  1.00  0.00     0.066 A 
HETATM   17  C   UNL     1      37.186 -11.341   1.084  1.00  0.00     0.067 A 
HETATM   18  C   UNL     1      36.510 -12.335   0.389  1.00  0.00     0.036 A 
HETATM   19  C   UNL     1      36.986 -13.643   0.432  1.00  0.00     0.005 A 
HETATM   20  C   UNL     1      38.132 -13.944   1.174  1.00  0.00     0.029 A 
BRANCH  17  21
HETATM   21  O   UNL     1      36.694 -10.070   1.012  1.00  0.00    -0.361 OA
HETATM   22  H   UNL     1      37.432  -9.448   1.130  1.00  0.00     0.217 HD
ENDBRANCH  17  21
ENDBRANCH  12  15
ENDBRANCH   7  11
BRANCH   1  23
HETATM   23  C   UNL     1      42.891 -18.142   4.947  1.00  0.00    -0.033 A 
HETATM   24  C   UNL     1      42.943 -18.211   3.543  1.00  0.00     0.046 A 
HETATM   25  C   UNL     1      43.756 -19.139   2.886  1.00  0.00     0.068 A 
HETATM   26  C   UNL     1      44.486 -20.067   3.623  1.00  0.00     0.037 A 
HETATM   27  C   UNL     1      44.413 -20.051   5.014  1.00  0.00     0.003 A 
HETATM   28  C   UNL     1      43.618 -19.104   5.669  1.00  0.00     0.009 A 
BRANCH  25  29
HETATM   29  O   UNL     1      43.729 -19.093   1.519  1.00  0.00    -0.356 OA
HETATM   30  C   UNL     1      43.564 -17.782   0.987  1.00  0.00     0.210 C 
ENDBRANCH  25  29
ENDBRANCH   1  23
BRANCH   8  31
HETATM   31  C   UNL     1      44.350 -14.393   7.130  1.00  0.00     0.409 C 
HETATM   32  F   UNL     1      43.645 -13.239   7.087  1.00  0.00    -0.169 F 
HETATM   33  F   UNL     1      44.167 -14.906   8.379  1.00  0.00    -0.169 F 
HETATM   34  F   UNL     1      45.662 -14.097   7.038  1.00  0.00    -0.169 F 
ENDBRANCH   8  31
TORSDOF 6
ENDMDL
