MODEL 1
REMARK VINA RESULT:      -9.1      0.000      0.000
REMARK  8 active torsions:
REMARK  status: ('A' for Active; 'I' for Inactive)
REMARK    1  A    between atoms: C_2  and  N_3 
REMARK    2  A    between atoms: C_9  and  C_10 
REMARK    3  A    between atoms: C_16  and  C_17 
REMARK       I    between atoms: C_17  and  N_18 
REMARK    4  A    between atoms: N_18  and  C_19 
REMARK    5  A    between atoms: C_19  and  C_20 
REMARK    6  A    between atoms: C_20  and  C_21 
REMARK    7  A    between atoms: C_23  and  O_24 
REMARK    8  A    between atoms: C_25  and  O_26 
ROOT
HETATM    1  N   UNL     1      43.108 -15.171   5.590  1.00  0.00    -0.248 N 
HETATM    2  N   UNL     1      42.407 -14.011   5.587  1.00  0.00    -0.182 NA
HETATM    3  C   UNL     1      41.591 -14.140   4.536  1.00  0.00     0.155 A 
HETATM    4  C   UNL     1      41.725 -15.383   3.883  1.00  0.00     0.046 A 
HETATM    5  C   UNL     1      42.734 -16.028   4.586  1.00  0.00     0.159 A 
HETATM    6  N   UNL     1      43.253 -17.243   4.325  1.00  0.00    -0.228 NA
HETATM    7  C   UNL     1      42.711 -17.870   3.252  1.00  0.00     0.077 A 
HETATM    8  C   UNL     1      41.705 -17.323   2.463  1.00  0.00     0.051 A 
HETATM    9  C   UNL     1      41.185 -16.062   2.784  1.00  0.00     0.049 A 
ENDROOT
BRANCH   9  10
HETATM   10  C   UNL     1      40.136 -15.496   1.918  1.00  0.00     0.252 C 
HETATM   11  N   UNL     1      40.481 -14.414   1.131  1.00  0.00    -0.357 N 
HETATM   12  H   UNL     1      41.335 -13.918   1.357  1.00  0.00     0.162 HD
HETATM   13  O   UNL     1      39.005 -15.967   1.969  1.00  0.00    -0.268 OA
BRANCH  11  14
HETATM   14  C   UNL     1      39.435 -13.667   0.450  1.00  0.00     0.127 C 
BRANCH  14  15
HETATM   15  C   UNL     1      39.889 -13.122  -0.904  1.00  0.00     0.058 C 
BRANCH  15  16
HETATM   16  C   UNL     1      39.604 -14.118  -2.004  1.00  0.00    -0.054 A 
HETATM   17  C   UNL     1      38.435 -14.003  -2.775  1.00  0.00     0.046 A 
HETATM   18  C   UNL     1      38.217 -14.886  -3.828  1.00  0.00     0.099 A 
HETATM   19  C   UNL     1      39.149 -15.878  -4.119  1.00  0.00     0.098 A 
HETATM   20  C   UNL     1      40.306 -16.008  -3.367  1.00  0.00     0.040 A 
HETATM   21  C   UNL     1      40.536 -15.124  -2.309  1.00  0.00     0.010 A 
BRANCH  18  22
HETATM   22  O   UNL     1      37.103 -14.809  -4.618  1.00  0.00    -0.358 OA
HETATM   23  H   UNL     1      36.580 -15.617  -4.480  1.00  0.00     0.218 HD
ENDBRANCH  18  22
BRANCH  19  24
HETATM   24  O   UNL     1      38.932 -16.731  -5.163  1.00  0.00    -0.358 OA
HETATM   25  H   UNL     1      38.820 -16.144  -5.937  1.00  0.00     0.218 HD
ENDBRANCH  19  24
ENDBRANCH  15  16
ENDBRANCH  14  15
ENDBRANCH  11  14
ENDBRANCH   9  10
BRANCH   7  26
HETATM   26  C   UNL     1      43.313 -19.186   2.979  1.00  0.00     0.033 A 
HETATM   27  S   UNL     1      44.423 -19.914   4.075  1.00  0.00    -0.100 SA
HETATM   28  C   UNL     1      44.621 -21.291   3.085  1.00  0.00     0.050 A 
HETATM   29  C   UNL     1      43.877 -21.209   1.932  1.00  0.00     0.008 A 
HETATM   30  C   UNL     1      43.134 -19.994   1.867  1.00  0.00     0.021 A 
ENDBRANCH   7  26
BRANCH   1  31
HETATM   31  C   UNL     1      44.160 -15.369   6.582  1.00  0.00     0.104 C 
HETATM   32  C   UNL     1      43.720 -16.317   7.699  1.00  0.00     0.034 C 
HETATM   33  C   UNL     1      44.685 -14.047   7.140  1.00  0.00     0.034 C 
ENDBRANCH   1  31
TORSDOF 8
ENDMDL
MODEL 2
REMARK VINA RESULT:      -8.8      0.870      1.431
REMARK  8 active torsions:
REMARK  status: ('A' for Active; 'I' for Inactive)
REMARK    1  A    between atoms: C_2  and  N_3 
REMARK    2  A    between atoms: C_9  and  C_10 
REMARK    3  A    between atoms: C_16  and  C_17 
REMARK       I    between atoms: C_17  and  N_18 
REMARK    4  A    between atoms: N_18  and  C_19 
REMARK    5  A    between atoms: C_19  and  C_20 
REMARK    6  A    between atoms: C_20  and  C_21 
REMARK    7  A    between atoms: C_23  and  O_24 
REMARK    8  A    between atoms: C_25  and  O_26 
ROOT
HETATM    1  N   UNL     1      43.460 -15.474   5.495  1.00  0.00    -0.248 N 
HETATM    2  N   UNL     1      42.929 -14.238   5.331  1.00  0.00    -0.182 NA
HETATM    3  C   UNL     1      42.340 -14.305   4.133  1.00  0.00     0.155 A 
HETATM    4  C   UNL     1      42.447 -15.579   3.536  1.00  0.00     0.046 A 
HETATM    5  C   UNL     1      43.196 -16.316   4.444  1.00  0.00     0.159 A 
HETATM    6  N   UNL     1      43.599 -17.595   4.312  1.00  0.00    -0.228 NA
HETATM    7  C   UNL     1      43.218 -18.190   3.155  1.00  0.00     0.077 A 
HETATM    8  C   UNL     1      42.477 -17.554   2.166  1.00  0.00     0.051 A 
HETATM    9  C   UNL     1      42.066 -16.228   2.356  1.00  0.00     0.049 A 
ENDROOT
BRANCH   9  10
HETATM   10  C   UNL     1      41.302 -15.570   1.281  1.00  0.00     0.252 C 
HETATM   11  N   UNL     1      41.960 -14.617   0.529  1.00  0.00    -0.357 N 
HETATM   12  H   UNL     1      42.830 -14.245   0.892  1.00  0.00     0.162 HD
HETATM   13  O   UNL     1      40.118 -15.853   1.135  1.00  0.00    -0.268 OA
BRANCH  11  14
HETATM   14  C   UNL     1      41.196 -13.768  -0.372  1.00  0.00     0.127 C 
BRANCH  14  15
HETATM   15  C   UNL     1      41.478 -14.068  -1.843  1.00  0.00     0.058 C 
BRANCH  15  16
HETATM   16  C   UNL     1      40.193 -14.330  -2.592  1.00  0.00    -0.054 A 
HETATM   17  C   UNL     1      40.146 -15.316  -3.592  1.00  0.00     0.046 A 
HETATM   18  C   UNL     1      38.940 -15.593  -4.227  1.00  0.00     0.099 A 
HETATM   19  C   UNL     1      37.785 -14.901  -3.878  1.00  0.00     0.098 A 
HETATM   20  C   UNL     1      37.813 -13.923  -2.896  1.00  0.00     0.040 A 
HETATM   21  C   UNL     1      39.018 -13.639  -2.249  1.00  0.00     0.010 A 
BRANCH  18  22
HETATM   22  O   UNL     1      38.838 -16.552  -5.197  1.00  0.00    -0.358 OA
HETATM   23  H   UNL     1      37.894 -16.749  -5.328  1.00  0.00     0.218 HD
ENDBRANCH  18  22
BRANCH  19  24
HETATM   24  O   UNL     1      36.603 -15.190  -4.499  1.00  0.00    -0.358 OA
HETATM   25  H   UNL     1      36.005 -14.464  -4.231  1.00  0.00     0.218 HD
ENDBRANCH  19  24
ENDBRANCH  15  16
ENDBRANCH  14  15
ENDBRANCH  11  14
ENDBRANCH   9  10
BRANCH   7  26
HETATM   26  C   UNL     1      43.691 -19.579   3.030  1.00  0.00     0.033 A 
HETATM   27  S   UNL     1      44.573 -20.348   4.293  1.00  0.00    -0.100 SA
HETATM   28  C   UNL     1      44.724 -21.802   3.411  1.00  0.00     0.050 A 
HETATM   29  C   UNL     1      44.134 -21.717   2.172  1.00  0.00     0.008 A 
HETATM   30  C   UNL     1      43.550 -20.436   1.950  1.00  0.00     0.021 A 
ENDBRANCH   7  26
BRANCH   1  31
HETATM   31  C   UNL     1      44.247 -15.763   6.689  1.00  0.00     0.104 C 
HETATM   32  C   UNL     1      43.497 -16.674   7.662  1.00  0.00     0.034 C 
HETATM   33  C   UNL     1      44.741 -14.490   7.377  1.00  0.00     0.034 C 
ENDBRANCH   1  31
TORSDOF 8
ENDMDL
MODEL 3
REMARK VINA RESULT:      -8.4      3.760      8.271
REMARK  8 active torsions:
REMARK  status: ('A' for Active; 'I' for Inactive)
REMARK    1  A    between atoms: C_2  and  N_3 
REMARK    2  A    between atoms: C_9  and  C_10 
REMARK    3  A    between atoms: C_16  and  C_17 
REMARK       I    between atoms: C_17  and  N_18 
REMARK    4  A    between atoms: N_18  and  C_19 
REMARK    5  A    between atoms: C_19  and  C_20 
REMARK    6  A    between atoms: C_20  and  C_21 
REMARK    7  A    between atoms: C_23  and  O_24 
REMARK    8  A    between atoms: C_25  and  O_26 
ROOT
HETATM    1  N   UNL     1      41.081 -15.321   0.491  1.00  0.00    -0.248 N 
HETATM    2  N   UNL     1      41.432 -16.615   0.288  1.00  0.00    -0.182 NA
HETATM    3  C   UNL     1      41.596 -17.093   1.526  1.00  0.00     0.155 A 
HETATM    4  C   UNL     1      41.318 -16.139   2.528  1.00  0.00     0.046 A 
HETATM    5  C   UNL     1      40.999 -14.988   1.820  1.00  0.00     0.159 A 
HETATM    6  N   UNL     1      40.687 -13.782   2.333  1.00  0.00    -0.228 NA
HETATM    7  C   UNL     1      40.702 -13.725   3.687  1.00  0.00     0.077 A 
HETATM    8  C   UNL     1      41.017 -14.805   4.504  1.00  0.00     0.051 A 
HETATM    9  C   UNL     1      41.318 -16.044   3.924  1.00  0.00     0.049 A 
ENDROOT
BRANCH   9  10
HETATM   10  C   UNL     1      41.670 -17.166   4.813  1.00  0.00     0.252 C 
HETATM   11  N   UNL     1      42.920 -17.138   5.400  1.00  0.00    -0.357 N 
HETATM   12  H   UNL     1      43.609 -16.502   5.018  1.00  0.00     0.162 HD
HETATM   13  O   UNL     1      40.875 -18.088   4.949  1.00  0.00    -0.268 OA
BRANCH  11  14
HETATM   14  C   UNL     1      43.413 -18.325   6.081  1.00  0.00     0.127 C 
BRANCH  14  15
HETATM   15  C   UNL     1      44.776 -18.779   5.560  1.00  0.00     0.058 C 
BRANCH  15  16
HETATM   16  C   UNL     1      44.614 -19.735   4.402  1.00  0.00    -0.054 A 
HETATM   17  C   UNL     1      44.863 -21.107   4.578  1.00  0.00     0.046 A 
HETATM   18  C   UNL     1      44.647 -21.985   3.521  1.00  0.00     0.099 A 
HETATM   19  C   UNL     1      44.186 -21.513   2.296  1.00  0.00     0.098 A 
HETATM   20  C   UNL     1      43.938 -20.163   2.103  1.00  0.00     0.040 A 
HETATM   21  C   UNL     1      44.149 -19.272   3.159  1.00  0.00     0.010 A 
BRANCH  18  22
HETATM   22  O   UNL     1      44.861 -23.331   3.644  1.00  0.00    -0.358 OA
HETATM   23  H   UNL     1      45.178 -23.505   4.547  1.00  0.00     0.218 HD
ENDBRANCH  18  22
BRANCH  19  24
HETATM   24  O   UNL     1      43.964 -22.385   1.268  1.00  0.00    -0.358 OA
HETATM   25  H   UNL     1      43.834 -21.812   0.488  1.00  0.00     0.218 HD
ENDBRANCH  19  24
ENDBRANCH  15  16
ENDBRANCH  14  15
ENDBRANCH  11  14
ENDBRANCH   9  10
BRANCH   7  26
HETATM   26  C   UNL     1      40.379 -12.389   4.218  1.00  0.00     0.033 A 
HETATM   27  S   UNL     1      39.373 -12.188   5.601  1.00  0.00    -0.100 SA
HETATM   28  C   UNL     1      39.496 -10.486   5.542  1.00  0.00     0.050 A 
HETATM   29  C   UNL     1      40.270 -10.061   4.488  1.00  0.00     0.008 A 
HETATM   30  C   UNL     1      40.768 -11.155   3.722  1.00  0.00     0.021 A 
ENDBRANCH   7  26
BRANCH   1  31
HETATM   31  C   UNL     1      40.874 -14.447  -0.659  1.00  0.00     0.104 C 
HETATM   32  C   UNL     1      40.801 -15.233  -1.968  1.00  0.00     0.034 C 
HETATM   33  C   UNL     1      41.914 -13.329  -0.731  1.00  0.00     0.034 C 
ENDBRANCH   1  31
TORSDOF 8
ENDMDL
MODEL 4
REMARK VINA RESULT:      -8.4      2.623      3.332
REMARK  8 active torsions:
REMARK  status: ('A' for Active; 'I' for Inactive)
REMARK    1  A    between atoms: C_2  and  N_3 
REMARK    2  A    between atoms: C_9  and  C_10 
REMARK    3  A    between atoms: C_16  and  C_17 
REMARK       I    between atoms: C_17  and  N_18 
REMARK    4  A    between atoms: N_18  and  C_19 
REMARK    5  A    between atoms: C_19  and  C_20 
REMARK    6  A    between atoms: C_20  and  C_21 
REMARK    7  A    between atoms: C_23  and  O_24 
REMARK    8  A    between atoms: C_25  and  O_26 
ROOT
HETATM    1  N   UNL     1      43.114 -15.778   5.411  1.00  0.00    -0.248 N 
HETATM    2  N   UNL     1      42.463 -14.592   5.332  1.00  0.00    -0.182 NA
HETATM    3  C   UNL     1      41.797 -14.675   4.176  1.00  0.00     0.155 A 
HETATM    4  C   UNL     1      41.975 -15.914   3.525  1.00  0.00     0.046 A 
HETATM    5  C   UNL     1      42.852 -16.607   4.349  1.00  0.00     0.159 A 
HETATM    6  N   UNL     1      43.358 -17.838   4.141  1.00  0.00    -0.228 NA
HETATM    7  C   UNL     1      42.948 -18.429   2.992  1.00  0.00     0.077 A 
HETATM    8  C   UNL     1      42.082 -17.833   2.082  1.00  0.00     0.051 A 
HETATM    9  C   UNL     1      41.568 -16.558   2.350  1.00  0.00     0.049 A 
ENDROOT
BRANCH   9  10
HETATM   10  C   UNL     1      40.671 -15.940   1.357  1.00  0.00     0.252 C 
HETATM   11  N   UNL     1      41.214 -15.617   0.129  1.00  0.00    -0.357 N 
HETATM   12  H   UNL     1      42.224 -15.591   0.050  1.00  0.00     0.162 HD
HETATM   13  O   UNL     1      39.514 -15.694   1.675  1.00  0.00    -0.268 OA
BRANCH  11  14
HETATM   14  C   UNL     1      40.451 -14.791  -0.792  1.00  0.00     0.127 C 
BRANCH  14  15
HETATM   15  C   UNL     1      41.196 -14.523  -2.099  1.00  0.00     0.058 C 
BRANCH  15  16
HETATM   16  C   UNL     1      41.745 -13.117  -2.124  1.00  0.00    -0.054 A 
HETATM   17  C   UNL     1      42.164 -12.500  -0.932  1.00  0.00     0.046 A 
HETATM   18  C   UNL     1      42.729 -11.230  -0.977  1.00  0.00     0.099 A 
HETATM   19  C   UNL     1      42.882 -10.570  -2.193  1.00  0.00     0.098 A 
HETATM   20  C   UNL     1      42.473 -11.162  -3.378  1.00  0.00     0.040 A 
HETATM   21  C   UNL     1      41.906 -12.439  -3.344  1.00  0.00     0.010 A 
BRANCH  18  22
HETATM   22  O   UNL     1      43.165 -10.592   0.151  1.00  0.00    -0.358 OA
HETATM   23  H   UNL     1      42.580 -10.845   0.886  1.00  0.00     0.218 HD
ENDBRANCH  18  22
BRANCH  19  24
HETATM   24  O   UNL     1      43.451  -9.329  -2.229  1.00  0.00    -0.358 OA
HETATM   25  H   UNL     1      42.691  -8.715  -2.211  1.00  0.00     0.218 HD
ENDBRANCH  19  24
ENDBRANCH  15  16
ENDBRANCH  14  15
ENDBRANCH  11  14
ENDBRANCH   9  10
BRANCH   7  26
HETATM   26  C   UNL     1      43.534 -19.763   2.781  1.00  0.00     0.033 A 
HETATM   27  S   UNL     1      44.727 -20.402   3.845  1.00  0.00    -0.100 SA
HETATM   28  C   UNL     1      44.856 -21.854   2.957  1.00  0.00     0.050 A 
HETATM   29  C   UNL     1      44.027 -21.865   1.861  1.00  0.00     0.008 A 
HETATM   30  C   UNL     1      43.276 -20.658   1.754  1.00  0.00     0.021 A 
ENDBRANCH   7  26
BRANCH   1  31
HETATM   31  C   UNL     1      44.009 -16.030   6.535  1.00  0.00     0.104 C 
HETATM   32  C   UNL     1      43.302 -16.761   7.676  1.00  0.00     0.034 C 
HETATM   33  C   UNL     1      44.696 -14.755   7.024  1.00  0.00     0.034 C 
ENDBRANCH   1  31
TORSDOF 8
ENDMDL
MODEL 5
REMARK VINA RESULT:      -8.3      5.107      9.744
REMARK  8 active torsions:
REMARK  status: ('A' for Active; 'I' for Inactive)
REMARK    1  A    between atoms: C_2  and  N_3 
REMARK    2  A    between atoms: C_9  and  C_10 
REMARK    3  A    between atoms: C_16  and  C_17 
REMARK       I    between atoms: C_17  and  N_18 
REMARK    4  A    between atoms: N_18  and  C_19 
REMARK    5  A    between atoms: C_19  and  C_20 
REMARK    6  A    between atoms: C_20  and  C_21 
REMARK    7  A    between atoms: C_23  and  O_24 
REMARK    8  A    between atoms: C_25  and  O_26 
ROOT
HETATM    1  N   UNL     1      41.620 -14.878   3.930  1.00  0.00    -0.248 N 
HETATM    2  N   UNL     1      41.658 -13.523   3.948  1.00  0.00    -0.182 NA
HETATM    3  C   UNL     1      42.590 -13.248   4.867  1.00  0.00     0.155 A 
HETATM    4  C   UNL     1      43.185 -14.405   5.414  1.00  0.00     0.046 A 
HETATM    5  C   UNL     1      42.520 -15.453   4.792  1.00  0.00     0.159 A 
HETATM    6  N   UNL     1      42.706 -16.771   5.005  1.00  0.00    -0.228 NA
HETATM    7  C   UNL     1      43.649 -17.063   5.935  1.00  0.00     0.077 A 
HETATM    8  C   UNL     1      44.372 -16.103   6.632  1.00  0.00     0.051 A 
HETATM    9  C   UNL     1      44.155 -14.745   6.364  1.00  0.00     0.049 A 
ENDROOT
BRANCH   9  10
HETATM   10  C   UNL     1      44.919 -13.747   7.134  1.00  0.00     0.252 C 
HETATM   11  N   UNL     1      44.338 -13.260   8.289  1.00  0.00    -0.357 N 
HETATM   12  H   UNL     1      43.346 -13.416   8.422  1.00  0.00     0.162 HD
HETATM   13  O   UNL     1      45.996 -13.359   6.698  1.00  0.00    -0.268 OA
BRANCH  11  14
HETATM   14  C   UNL     1      44.928 -12.106   8.950  1.00  0.00     0.127 C 
BRANCH  14  15
HETATM   15  C   UNL     1      44.894 -12.220  10.473  1.00  0.00     0.058 C 
BRANCH  15  16
HETATM   16  C   UNL     1      43.756 -11.407  11.045  1.00  0.00    -0.054 A 
HETATM   17  C   UNL     1      43.143 -10.408  10.271  1.00  0.00     0.046 A 
HETATM   18  C   UNL     1      42.053  -9.713  10.785  1.00  0.00     0.099 A 
HETATM   19  C   UNL     1      41.570 -10.002  12.058  1.00  0.00     0.098 A 
HETATM   20  C   UNL     1      42.165 -10.982  12.837  1.00  0.00     0.040 A 
HETATM   21  C   UNL     1      43.259 -11.689  12.329  1.00  0.00     0.010 A 
BRANCH  18  22
HETATM   22  O   UNL     1      41.411  -8.741  10.068  1.00  0.00    -0.358 OA
HETATM   23  H   UNL     1      41.476  -8.970   9.125  1.00  0.00     0.218 HD
ENDBRANCH  18  22
BRANCH  19  24
HETATM   24  O   UNL     1      40.492  -9.322  12.549  1.00  0.00    -0.358 OA
HETATM   25  H   UNL     1      40.082  -9.945  13.182  1.00  0.00     0.218 HD
ENDBRANCH  19  24
ENDBRANCH  15  16
ENDBRANCH  14  15
ENDBRANCH  11  14
ENDBRANCH   9  10
BRANCH   7  26
HETATM   26  C   UNL     1      43.815 -18.509   6.161  1.00  0.00     0.033 A 
HETATM   27  S   UNL     1      44.378 -19.557   4.917  1.00  0.00    -0.100 SA
HETATM   28  C   UNL     1      44.284 -20.933   5.923  1.00  0.00     0.050 A 
HETATM   29  C   UNL     1      43.819 -20.623   7.180  1.00  0.00     0.008 A 
HETATM   30  C   UNL     1      43.540 -19.231   7.312  1.00  0.00     0.021 A 
ENDBRANCH   7  26
BRANCH   1  31
HETATM   31  C   UNL     1      40.655 -15.556   3.070  1.00  0.00     0.104 C 
HETATM   32  C   UNL     1      41.322 -16.184   1.846  1.00  0.00     0.034 C 
HETATM   33  C   UNL     1      39.495 -14.643   2.673  1.00  0.00     0.034 C 
ENDBRANCH   1  31
TORSDOF 8
ENDMDL
MODEL 6
REMARK VINA RESULT:      -8.1      3.746      8.311
REMARK  8 active torsions:
REMARK  status: ('A' for Active; 'I' for Inactive)
REMARK    1  A    between atoms: C_2  and  N_3 
REMARK    2  A    between atoms: C_9  and  C_10 
REMARK    3  A    between atoms: C_16  and  C_17 
REMARK       I    between atoms: C_17  and  N_18 
REMARK    4  A    between atoms: N_18  and  C_19 
REMARK    5  A    between atoms: C_19  and  C_20 
REMARK    6  A    between atoms: C_20  and  C_21 
REMARK    7  A    between atoms: C_23  and  O_24 
REMARK    8  A    between atoms: C_25  and  O_26 
ROOT
HETATM    1  N   UNL     1      42.027 -11.536  -0.409  1.00  0.00    -0.248 N 
HETATM    2  N   UNL     1      42.645 -11.353   0.784  1.00  0.00    -0.182 NA
HETATM    3  C   UNL     1      42.431 -12.505   1.428  1.00  0.00     0.155 A 
HETATM    4  C   UNL     1      41.719 -13.446   0.655  1.00  0.00     0.046 A 
HETATM    5  C   UNL     1      41.456 -12.778  -0.534  1.00  0.00     0.159 A 
HETATM    6  N   UNL     1      40.766 -13.248  -1.591  1.00  0.00    -0.228 NA
HETATM    7  C   UNL     1      40.289 -14.507  -1.439  1.00  0.00     0.077 A 
HETATM    8  C   UNL     1      40.475 -15.272  -0.293  1.00  0.00     0.051 A 
HETATM    9  C   UNL     1      41.215 -14.747   0.775  1.00  0.00     0.049 A 
ENDROOT
BRANCH   9  10
HETATM   10  C   UNL     1      41.378 -15.570   1.987  1.00  0.00     0.252 C 
HETATM   11  N   UNL     1      42.367 -16.534   1.968  1.00  0.00    -0.357 N 
HETATM   12  H   UNL     1      42.759 -16.793   1.070  1.00  0.00     0.162 HD
HETATM   13  O   UNL     1      40.607 -15.404   2.925  1.00  0.00    -0.268 OA
BRANCH  11  14
HETATM   14  C   UNL     1      42.411 -17.530   3.027  1.00  0.00     0.127 C 
BRANCH  14  15
HETATM   15  C   UNL     1      43.835 -17.841   3.483  1.00  0.00     0.058 C 
BRANCH  15  16
HETATM   16  C   UNL     1      44.069 -19.333   3.527  1.00  0.00    -0.054 A 
HETATM   17  C   UNL     1      43.906 -20.109   2.367  1.00  0.00     0.046 A 
HETATM   18  C   UNL     1      44.188 -21.470   2.405  1.00  0.00     0.099 A 
HETATM   19  C   UNL     1      44.631 -22.064   3.583  1.00  0.00     0.098 A 
HETATM   20  C   UNL     1      44.795 -21.315   4.738  1.00  0.00     0.040 A 
HETATM   21  C   UNL     1      44.517 -19.946   4.709  1.00  0.00     0.010 A 
BRANCH  18  22
HETATM   22  O   UNL     1      44.059 -22.267   1.301  1.00  0.00    -0.358 OA
HETATM   23  H   UNL     1      44.617 -23.053   1.429  1.00  0.00     0.218 HD
ENDBRANCH  18  22
BRANCH  19  24
HETATM   24  O   UNL     1      44.918 -23.399   3.607  1.00  0.00    -0.358 OA
HETATM   25  H   UNL     1      44.939 -23.625   4.558  1.00  0.00     0.218 HD
ENDBRANCH  19  24
ENDBRANCH  15  16
ENDBRANCH  14  15
ENDBRANCH  11  14
ENDBRANCH   9  10
BRANCH   7  26
HETATM   26  C   UNL     1      39.521 -14.985  -2.601  1.00  0.00     0.033 A 
HETATM   27  S   UNL     1      37.998 -14.299  -3.018  1.00  0.00    -0.100 SA
HETATM   28  C   UNL     1      37.808 -15.337  -4.361  1.00  0.00     0.050 A 
HETATM   29  C   UNL     1      38.865 -16.205  -4.495  1.00  0.00     0.008 A 
HETATM   30  C   UNL     1      39.844 -16.009  -3.477  1.00  0.00     0.021 A 
ENDBRANCH   7  26
BRANCH   1  31
HETATM   31  C   UNL     1      41.998 -10.443  -1.375  1.00  0.00     0.104 C 
HETATM   32  C   UNL     1      43.355  -9.749  -1.493  1.00  0.00     0.034 C 
HETATM   33  C   UNL     1      40.877  -9.445  -1.084  1.00  0.00     0.034 C 
ENDBRANCH   1  31
TORSDOF 8
ENDMDL
MODEL 7
REMARK VINA RESULT:      -8.0      5.188     10.289
REMARK  8 active torsions:
REMARK  status: ('A' for Active; 'I' for Inactive)
REMARK    1  A    between atoms: C_2  and  N_3 
REMARK    2  A    between atoms: C_9  and  C_10 
REMARK    3  A    between atoms: C_16  and  C_17 
REMARK       I    between atoms: C_17  and  N_18 
REMARK    4  A    between atoms: N_18  and  C_19 
REMARK    5  A    between atoms: C_19  and  C_20 
REMARK    6  A    between atoms: C_20  and  C_21 
REMARK    7  A    between atoms: C_23  and  O_24 
REMARK    8  A    between atoms: C_25  and  O_26 
ROOT
HETATM    1  N   UNL     1      44.083 -18.130   5.624  1.00  0.00    -0.248 N 
HETATM    2  N   UNL     1      45.115 -18.253   6.495  1.00  0.00    -0.182 NA
HETATM    3  C   UNL     1      45.285 -17.011   6.958  1.00  0.00     0.155 A 
HETATM    4  C   UNL     1      44.353 -16.093   6.431  1.00  0.00     0.046 A 
HETATM    5  C   UNL     1      43.591 -16.850   5.552  1.00  0.00     0.159 A 
HETATM    6  N   UNL     1      42.582 -16.416   4.772  1.00  0.00    -0.228 NA
HETATM    7  C   UNL     1      42.317 -15.091   4.881  1.00  0.00     0.077 A 
HETATM    8  C   UNL     1      43.016 -14.227   5.716  1.00  0.00     0.051 A 
HETATM    9  C   UNL     1      44.046 -14.730   6.522  1.00  0.00     0.049 A 
ENDROOT
BRANCH   9  10
HETATM   10  C   UNL     1      44.787 -13.788   7.381  1.00  0.00     0.252 C 
HETATM   11  N   UNL     1      44.161 -13.360   8.536  1.00  0.00    -0.357 N 
HETATM   12  H   UNL     1      43.162 -13.510   8.616  1.00  0.00     0.162 HD
HETATM   13  O   UNL     1      45.886 -13.389   7.015  1.00  0.00    -0.268 OA
BRANCH  11  14
HETATM   14  C   UNL     1      44.733 -12.254   9.287  1.00  0.00     0.127 C 
BRANCH  14  15
HETATM   15  C   UNL     1      43.856 -11.003   9.251  1.00  0.00     0.058 C 
BRANCH  15  16
HETATM   16  C   UNL     1      43.159 -10.800  10.576  1.00  0.00    -0.054 A 
HETATM   17  C   UNL     1      41.795 -11.113  10.712  1.00  0.00     0.046 A 
HETATM   18  C   UNL     1      41.182 -10.985  11.953  1.00  0.00     0.099 A 
HETATM   19  C   UNL     1      41.909 -10.550  13.057  1.00  0.00     0.098 A 
HETATM   20  C   UNL     1      43.254 -10.234  12.941  1.00  0.00     0.040 A 
HETATM   21  C   UNL     1      43.881 -10.362  11.699  1.00  0.00     0.010 A 
BRANCH  18  22
HETATM   22  O   UNL     1      39.862 -11.289  12.142  1.00  0.00    -0.358 OA
HETATM   23  H   UNL     1      39.361 -10.456  12.174  1.00  0.00     0.218 HD
ENDBRANCH  18  22
BRANCH  19  24
HETATM   24  O   UNL     1      41.301 -10.440  14.274  1.00  0.00    -0.358 OA
HETATM   25  H   UNL     1      41.754  -9.688  14.705  1.00  0.00     0.218 HD
ENDBRANCH  19  24
ENDBRANCH  15  16
ENDBRANCH  14  15
ENDBRANCH  11  14
ENDBRANCH   9  10
BRANCH   7  26
HETATM   26  C   UNL     1      41.225 -14.640   4.001  1.00  0.00     0.033 A 
HETATM   27  S   UNL     1      40.561 -15.669   2.790  1.00  0.00    -0.100 SA
HETATM   28  C   UNL     1      39.454 -14.477   2.272  1.00  0.00     0.050 A 
HETATM   29  C   UNL     1      39.583 -13.308   2.984  1.00  0.00     0.008 A 
HETATM   30  C   UNL     1      40.608 -13.400   3.970  1.00  0.00     0.021 A 
ENDBRANCH   7  26
BRANCH   1  31
HETATM   31  C   UNL     1      43.645 -19.295   4.863  1.00  0.00     0.104 C 
HETATM   32  C   UNL     1      44.181 -20.599   5.456  1.00  0.00     0.034 C 
HETATM   33  C   UNL     1      43.977 -19.173   3.376  1.00  0.00     0.034 C 
ENDBRANCH   1  31
TORSDOF 8
ENDMDL
MODEL 8
REMARK VINA RESULT:      -7.9      5.645      8.616
REMARK  8 active torsions:
REMARK  status: ('A' for Active; 'I' for Inactive)
REMARK    1  A    between atoms: C_2  and  N_3 
REMARK    2  A    between atoms: C_9  and  C_10 
REMARK    3  A    between atoms: C_16  and  C_17 
REMARK       I    between atoms: C_17  and  N_18 
REMARK    4  A    between atoms: N_18  and  C_19 
REMARK    5  A    between atoms: C_19  and  C_20 
REMARK    6  A    between atoms: C_20  and  C_21 
REMARK    7  A    between atoms: C_23  and  O_24 
REMARK    8  A    between atoms: C_25  and  O_26 
ROOT
HETATM    1  N   UNL     1      44.277 -12.193   8.627  1.00  0.00    -0.248 N 
HETATM    2  N   UNL     1      45.142 -13.234   8.549  1.00  0.00    -0.182 NA
HETATM    3  C   UNL     1      44.738 -13.896   7.461  1.00  0.00     0.155 A 
HETATM    4  C   UNL     1      43.651 -13.276   6.809  1.00  0.00     0.046 A 
HETATM    5  C   UNL     1      43.364 -12.175   7.603  1.00  0.00     0.159 A 
HETATM    6  N   UNL     1      42.377 -11.277   7.417  1.00  0.00    -0.228 NA
HETATM    7  C   UNL     1      41.599 -11.511   6.331  1.00  0.00     0.077 A 
HETATM    8  C   UNL     1      41.780 -12.586   5.468  1.00  0.00     0.051 A 
HETATM    9  C   UNL     1      42.831 -13.483   5.693  1.00  0.00     0.049 A 
ENDROOT
BRANCH   9  10
HETATM   10  C   UNL     1      42.985 -14.627   4.776  1.00  0.00     0.252 C 
HETATM   11  N   UNL     1      42.622 -15.872   5.251  1.00  0.00    -0.357 N 
HETATM   12  H   UNL     1      42.503 -15.981   6.251  1.00  0.00     0.162 HD
HETATM   13  O   UNL     1      43.471 -14.437   3.667  1.00  0.00    -0.268 OA
BRANCH  11  14
HETATM   14  C   UNL     1      42.979 -17.057   4.488  1.00  0.00     0.127 C 
BRANCH  14  15
HETATM   15  C   UNL     1      43.982 -17.948   5.219  1.00  0.00     0.058 C 
BRANCH  15  16
HETATM   16  C   UNL     1      44.223 -19.226   4.451  1.00  0.00    -0.054 A 
HETATM   17  C   UNL     1      44.662 -20.381   5.121  1.00  0.00     0.046 A 
HETATM   18  C   UNL     1      44.817 -21.568   4.413  1.00  0.00     0.099 A 
HETATM   19  C   UNL     1      44.538 -21.617   3.051  1.00  0.00     0.098 A 
HETATM   20  C   UNL     1      44.107 -20.487   2.373  1.00  0.00     0.040 A 
HETATM   21  C   UNL     1      43.945 -19.290   3.075  1.00  0.00     0.010 A 
BRANCH  18  22
HETATM   22  O   UNL     1      45.228 -22.723   5.020  1.00  0.00    -0.358 OA
HETATM   23  H   UNL     1      45.199 -22.585   5.982  1.00  0.00     0.218 HD
ENDBRANCH  18  22
BRANCH  19  24
HETATM   24  O   UNL     1      44.680 -22.791   2.367  1.00  0.00    -0.358 OA
HETATM   25  H   UNL     1      44.502 -22.553   1.436  1.00  0.00     0.218 HD
ENDBRANCH  19  24
ENDBRANCH  15  16
ENDBRANCH  14  15
ENDBRANCH  11  14
ENDBRANCH   9  10
BRANCH   7  26
HETATM   26  C   UNL     1      40.516 -10.527   6.166  1.00  0.00     0.033 A 
HETATM   27  S   UNL     1      40.040  -9.963   4.610  1.00  0.00    -0.100 SA
HETATM   28  C   UNL     1      38.839  -8.939   5.261  1.00  0.00     0.050 A 
HETATM   29  C   UNL     1      38.797  -9.000   6.633  1.00  0.00     0.008 A 
HETATM   30  C   UNL     1      39.769  -9.904   7.153  1.00  0.00     0.021 A 
ENDBRANCH   7  26
BRANCH   1  31
HETATM   31  C   UNL     1      44.373 -11.265   9.749  1.00  0.00     0.104 C 
HETATM   32  C   UNL     1      45.826 -10.979  10.132  1.00  0.00     0.034 C 
HETATM   33  C   UNL     1      43.555 -11.728  10.954  1.00  0.00     0.034 C 
ENDBRANCH   1  31
TORSDOF 8
ENDMDL
MODEL 9
REMARK VINA RESULT:      -7.8      3.554      7.616
REMARK  8 active torsions:
REMARK  status: ('A' for Active; 'I' for Inactive)
REMARK    1  A    between atoms: C_2  and  N_3 
REMARK    2  A    between atoms: C_9  and  C_10 
REMARK    3  A    between atoms: C_16  and  C_17 
REMARK       I    between atoms: C_17  and  N_18 
REMARK    4  A    between atoms: N_18  and  C_19 
REMARK    5  A    between atoms: C_19  and  C_20 
REMARK    6  A    between atoms: C_20  and  C_21 
REMARK    7  A    between atoms: C_23  and  O_24 
REMARK    8  A    between atoms: C_25  and  O_26 
ROOT
HETATM    1  N   UNL     1      39.915 -12.325   3.628  1.00  0.00    -0.248 N 
HETATM    2  N   UNL     1      39.885 -12.580   4.959  1.00  0.00    -0.182 NA
HETATM    3  C   UNL     1      40.305 -13.846   5.046  1.00  0.00     0.155 A 
HETATM    4  C   UNL     1      40.646 -14.401   3.795  1.00  0.00     0.046 A 
HETATM    5  C   UNL     1      40.366 -13.389   2.887  1.00  0.00     0.159 A 
HETATM    6  N   UNL     1      40.495 -13.443   1.547  1.00  0.00    -0.228 NA
HETATM    7  C   UNL     1      40.943 -14.631   1.072  1.00  0.00     0.077 A 
HETATM    8  C   UNL     1      41.246 -15.722   1.878  1.00  0.00     0.051 A 
HETATM    9  C   UNL     1      41.113 -15.611   3.268  1.00  0.00     0.049 A 
ENDROOT
BRANCH   9  10
HETATM   10  C   UNL     1      41.419 -16.791   4.097  1.00  0.00     0.252 C 
HETATM   11  N   UNL     1      42.377 -16.641   5.081  1.00  0.00    -0.357 N 
HETATM   12  H   UNL     1      42.983 -15.831   5.032  1.00  0.00     0.162 HD
HETATM   13  O   UNL     1      40.859 -17.853   3.849  1.00  0.00    -0.268 OA
BRANCH  11  14
HETATM   14  C   UNL     1      42.892 -17.821   5.758  1.00  0.00     0.127 C 
BRANCH  14  15
HETATM   15  C   UNL     1      44.345 -18.121   5.392  1.00  0.00     0.058 C 
BRANCH  15  16
HETATM   16  C   UNL     1      44.428 -19.310   4.464  1.00  0.00    -0.054 A 
HETATM   17  C   UNL     1      44.684 -20.592   4.979  1.00  0.00     0.046 A 
HETATM   18  C   UNL     1      44.692 -21.688   4.123  1.00  0.00     0.099 A 
HETATM   19  C   UNL     1      44.448 -21.520   2.763  1.00  0.00     0.098 A 
HETATM   20  C   UNL     1      44.197 -20.262   2.236  1.00  0.00     0.040 A 
HETATM   21  C   UNL     1      44.184 -19.156   3.089  1.00  0.00     0.010 A 
BRANCH  18  22
HETATM   22  O   UNL     1      44.922 -22.958   4.575  1.00  0.00    -0.358 OA
HETATM   23  H   UNL     1      44.384 -23.096   5.374  1.00  0.00     0.218 HD
ENDBRANCH  18  22
BRANCH  19  24
HETATM   24  O   UNL     1      44.446 -22.604   1.932  1.00  0.00    -0.358 OA
HETATM   25  H   UNL     1      43.530 -22.943   1.979  1.00  0.00     0.218 HD
ENDBRANCH  19  24
ENDBRANCH  15  16
ENDBRANCH  14  15
ENDBRANCH  11  14
ENDBRANCH   9  10
BRANCH   7  26
HETATM   26  C   UNL     1      41.053 -14.668  -0.396  1.00  0.00     0.033 A 
HETATM   27  S   UNL     1      41.110 -13.224  -1.332  1.00  0.00    -0.100 SA
HETATM   28  C   UNL     1      41.222 -14.086  -2.802  1.00  0.00     0.050 A 
HETATM   29  C   UNL     1      41.202 -15.446  -2.605  1.00  0.00     0.008 A 
HETATM   30  C   UNL     1      41.094 -15.779  -1.223  1.00  0.00     0.021 A 
ENDBRANCH   7  26
BRANCH   1  31
HETATM   31  C   UNL     1      39.455 -11.031   3.137  1.00  0.00     0.104 C 
HETATM   32  C   UNL     1      39.522  -9.952   4.219  1.00  0.00     0.034 C 
HETATM   33  C   UNL     1      38.064 -11.112   2.508  1.00  0.00     0.034 C 
ENDBRANCH   1  31
TORSDOF 8
ENDMDL
MODEL 10
REMARK VINA RESULT:      -7.6      6.072     10.076
REMARK  8 active torsions:
REMARK  status: ('A' for Active; 'I' for Inactive)
REMARK    1  A    between atoms: C_2  and  N_3 
REMARK    2  A    between atoms: C_9  and  C_10 
REMARK    3  A    between atoms: C_16  and  C_17 
REMARK       I    between atoms: C_17  and  N_18 
REMARK    4  A    between atoms: N_18  and  C_19 
REMARK    5  A    between atoms: C_19  and  C_20 
REMARK    6  A    between atoms: C_20  and  C_21 
REMARK    7  A    between atoms: C_23  and  O_24 
REMARK    8  A    between atoms: C_25  and  O_26 
ROOT
HETATM    1  N   UNL     1      43.213 -16.569   5.343  1.00  0.00    -0.248 N 
HETATM    2  N   UNL     1      44.190 -17.123   6.102  1.00  0.00    -0.182 NA
HETATM    3  C   UNL     1      44.616 -16.106   6.857  1.00  0.00     0.155 A 
HETATM    4  C   UNL     1      43.902 -14.911   6.628  1.00  0.00     0.046 A 
HETATM    5  C   UNL     1      43.003 -15.242   5.623  1.00  0.00     0.159 A 
HETATM    6  N   UNL     1      42.113 -14.422   5.030  1.00  0.00    -0.228 NA
HETATM    7  C   UNL     1      42.133 -13.145   5.485  1.00  0.00     0.077 A 
HETATM    8  C   UNL     1      42.994 -12.690   6.477  1.00  0.00     0.051 A 
HETATM    9  C   UNL     1      43.890 -13.585   7.077  1.00  0.00     0.049 A 
ENDROOT
BRANCH   9  10
HETATM   10  C   UNL     1      44.808 -13.072   8.110  1.00  0.00     0.252 C 
HETATM   11  N   UNL     1      44.274 -12.813   9.358  1.00  0.00    -0.357 N 
HETATM   12  H   UNL     1      43.266 -12.754   9.439  1.00  0.00     0.162 HD
HETATM   13  O   UNL     1      45.974 -12.848   7.809  1.00  0.00    -0.268 OA
BRANCH  11  14
HETATM   14  C   UNL     1      45.066 -12.081  10.333  1.00  0.00     0.127 C 
BRANCH  14  15
HETATM   15  C   UNL     1      44.453 -10.728  10.691  1.00  0.00     0.058 C 
BRANCH  15  16
HETATM   16  C   UNL     1      42.956 -10.749  10.494  1.00  0.00    -0.054 A 
HETATM   17  C   UNL     1      42.123 -11.329  11.466  1.00  0.00     0.046 A 
HETATM   18  C   UNL     1      40.743 -11.283  11.304  1.00  0.00     0.099 A 
HETATM   19  C   UNL     1      40.185 -10.668  10.188  1.00  0.00     0.098 A 
HETATM   20  C   UNL     1      40.991 -10.093   9.217  1.00  0.00     0.040 A 
HETATM   21  C   UNL     1      42.379 -10.130   9.372  1.00  0.00     0.010 A 
BRANCH  18  22
HETATM   22  O   UNL     1      39.888 -11.821  12.227  1.00  0.00    -0.358 OA
HETATM   23  H   UNL     1      39.767 -11.171  12.940  1.00  0.00     0.218 HD
ENDBRANCH  18  22
BRANCH  19  24
HETATM   24  O   UNL     1      38.828 -10.616  10.044  1.00  0.00    -0.358 OA
HETATM   25  H   UNL     1      38.482 -10.814  10.937  1.00  0.00     0.218 HD
ENDBRANCH  19  24
ENDBRANCH  15  16
ENDBRANCH  14  15
ENDBRANCH  11  14
ENDBRANCH   9  10
BRANCH   7  26
HETATM   26  C   UNL     1      41.166 -12.267   4.804  1.00  0.00     0.033 A 
HETATM   27  S   UNL     1      39.968 -11.395   5.679  1.00  0.00    -0.100 SA
HETATM   28  C   UNL     1      39.325 -10.697   4.260  1.00  0.00     0.050 A 
HETATM   29  C   UNL     1      39.986 -11.120   3.131  1.00  0.00     0.008 A 
HETATM   30  C   UNL     1      41.037 -12.031   3.444  1.00  0.00     0.021 A 
ENDBRANCH   7  26
BRANCH   1  31
HETATM   31  C   UNL     1      42.542 -17.381   4.333  1.00  0.00     0.104 C 
HETATM   32  C   UNL     1      41.229 -17.967   4.852  1.00  0.00     0.034 C 
HETATM   33  C   UNL     1      43.457 -18.465   3.763  1.00  0.00     0.034 C 
ENDBRANCH   1  31
TORSDOF 8
ENDMDL
