MODEL 1
REMARK VINA RESULT:      -7.9      0.000      0.000
REMARK  7 active torsions:
REMARK  status: ('A' for Active; 'I' for Inactive)
REMARK    1  A    between atoms: C_2  and  N_3 
REMARK    2  A    between atoms: C_2  and  C_17 
REMARK       I    between atoms: N_3  and  C_4 
REMARK    3  A    between atoms: C_4  and  C_5 
REMARK    4  A    between atoms: C_6  and  N_7 
REMARK    5  A    between atoms: C_17  and  O_18 
REMARK    6  A    between atoms: C_17  and  C_19 
REMARK    7  A    between atoms: C_22  and  O_23 
ROOT
HETATM    1  N   UNL     1      42.908 -17.426   3.301  1.00  0.00    -0.350 N 
HETATM    2  C   UNL     1      43.634 -18.256   2.494  1.00  0.00     0.255 C 
HETATM    3  O   UNL     1      43.988 -17.866   1.380  1.00  0.00    -0.268 OA
HETATM    4  H   UNL     1      42.658 -17.730   4.240  1.00  0.00     0.163 HD
ENDROOT
BRANCH   1   5
HETATM    5  C   UNL     1      42.584 -16.046   2.929  1.00  0.00     0.114 C 
HETATM    6  C   UNL     1      43.224 -15.068   3.917  1.00  0.00     0.035 C 
BRANCH   5   7
HETATM    7  C   UNL     1      41.057 -15.815   2.729  1.00  0.00     0.173 C 
BRANCH   7   8
HETATM    8  O   UNL     1      40.346 -17.033   2.998  1.00  0.00    -0.389 OA
HETATM    9  H   UNL     1      40.978 -17.612   3.459  1.00  0.00     0.210 HD
ENDBRANCH   7   8
BRANCH   7  10
HETATM   10  C   UNL     1      40.664 -15.288   1.359  1.00  0.00    -0.028 A 
HETATM   11  C   UNL     1      41.411 -15.640   0.228  1.00  0.00     0.012 A 
HETATM   12  C   UNL     1      41.053 -15.161  -1.036  1.00  0.00     0.037 A 
HETATM   13  C   UNL     1      39.950 -14.321  -1.197  1.00  0.00     0.068 A 
HETATM   14  C   UNL     1      39.193 -13.972  -0.080  1.00  0.00     0.037 A 
HETATM   15  C   UNL     1      39.547 -14.453   1.185  1.00  0.00     0.012 A 
BRANCH  13  16
HETATM   16  O   UNL     1      39.714 -13.919  -2.484  1.00  0.00    -0.356 OA
HETATM   17  C   UNL     1      40.689 -14.276  -3.456  1.00  0.00     0.210 C 
ENDBRANCH  13  16
ENDBRANCH   7  10
ENDBRANCH   5   7
ENDBRANCH   1   5
BRANCH   2  18
HETATM   18  C   UNL     1      43.980 -19.661   2.915  1.00  0.00     0.079 A 
HETATM   19  C   UNL     1      44.313 -20.235   4.153  1.00  0.00     0.165 A 
HETATM   20  N   UNL     1      44.600 -21.581   4.278  1.00  0.00    -0.241 NA
HETATM   21  C   UNL     1      44.574 -22.377   3.195  1.00  0.00     0.119 A 
HETATM   22  C   UNL     1      44.266 -21.913   1.943  1.00  0.00     0.020 A 
HETATM   23  C   UNL     1      43.970 -20.559   1.814  1.00  0.00     0.022 A 
BRANCH  19  24
HETATM   24  N   UNL     1      44.417 -19.541   5.408  1.00  0.00    -0.226 N 
HETATM   25  N   UNL     1      45.159 -18.428   5.630  1.00  0.00    -0.179 NA
HETATM   26  C   UNL     1      44.969 -18.127   6.915  1.00  0.00     0.141 A 
HETATM   27  C   UNL     1      44.103 -19.015   7.555  1.00  0.00     0.040 A 
HETATM   28  C   UNL     1      43.758 -19.910   6.575  1.00  0.00     0.122 A 
ENDBRANCH  19  24
ENDBRANCH   2  18
TORSDOF 7
ENDMDL
MODEL 2
REMARK VINA RESULT:      -7.7      2.441      4.105
REMARK  7 active torsions:
REMARK  status: ('A' for Active; 'I' for Inactive)
REMARK    1  A    between atoms: C_2  and  N_3 
REMARK    2  A    between atoms: C_2  and  C_17 
REMARK       I    between atoms: N_3  and  C_4 
REMARK    3  A    between atoms: C_4  and  C_5 
REMARK    4  A    between atoms: C_6  and  N_7 
REMARK    5  A    between atoms: C_17  and  O_18 
REMARK    6  A    between atoms: C_17  and  C_19 
REMARK    7  A    between atoms: C_22  and  O_23 
ROOT
HETATM    1  N   UNL     1      42.855 -17.779   5.323  1.00  0.00    -0.350 N 
HETATM    2  C   UNL     1      43.986 -18.477   5.005  1.00  0.00     0.255 C 
HETATM    3  O   UNL     1      45.037 -18.237   5.603  1.00  0.00    -0.268 OA
HETATM    4  H   UNL     1      41.975 -18.011   4.864  1.00  0.00     0.163 HD
ENDROOT
BRANCH   1   5
HETATM    5  C   UNL     1      42.811 -16.794   6.406  1.00  0.00     0.114 C 
HETATM    6  C   UNL     1      42.705 -17.499   7.760  1.00  0.00     0.035 C 
BRANCH   5   7
HETATM    7  C   UNL     1      41.722 -15.703   6.189  1.00  0.00     0.173 C 
BRANCH   7   8
HETATM    8  O   UNL     1      40.421 -16.311   6.199  1.00  0.00    -0.389 OA
HETATM    9  H   UNL     1      40.188 -16.453   5.265  1.00  0.00     0.210 HD
ENDBRANCH   7   8
BRANCH   7  10
HETATM   10  C   UNL     1      41.887 -14.876   4.924  1.00  0.00    -0.028 A 
HETATM   11  C   UNL     1      43.166 -14.556   4.454  1.00  0.00     0.012 A 
HETATM   12  C   UNL     1      43.326 -13.798   3.289  1.00  0.00     0.037 A 
HETATM   13  C   UNL     1      42.217 -13.343   2.575  1.00  0.00     0.068 A 
HETATM   14  C   UNL     1      40.939 -13.662   3.029  1.00  0.00     0.037 A 
HETATM   15  C   UNL     1      40.777 -14.424   4.191  1.00  0.00     0.012 A 
BRANCH  13  16
HETATM   16  O   UNL     1      42.512 -12.607   1.459  1.00  0.00    -0.356 OA
HETATM   17  C   UNL     1      41.831 -12.957   0.261  1.00  0.00     0.210 C 
ENDBRANCH  13  16
ENDBRANCH   7  10
ENDBRANCH   5   7
ENDBRANCH   1   5
BRANCH   2  18
HETATM   18  C   UNL     1      43.995 -19.508   3.907  1.00  0.00     0.079 A 
HETATM   19  C   UNL     1      43.534 -19.498   2.580  1.00  0.00     0.165 A 
HETATM   20  N   UNL     1      43.660 -20.601   1.757  1.00  0.00    -0.241 NA
HETATM   21  C   UNL     1      44.227 -21.727   2.224  1.00  0.00     0.119 A 
HETATM   22  C   UNL     1      44.704 -21.839   3.504  1.00  0.00     0.020 A 
HETATM   23  C   UNL     1      44.585 -20.728   4.334  1.00  0.00     0.022 A 
BRANCH  19  24
HETATM   24  N   UNL     1      42.881 -18.402   1.918  1.00  0.00    -0.226 N 
HETATM   25  N   UNL     1      41.632 -17.951   2.194  1.00  0.00    -0.179 NA
HETATM   26  C   UNL     1      41.428 -16.935   1.353  1.00  0.00     0.141 A 
HETATM   27  C   UNL     1      42.526 -16.692   0.525  1.00  0.00     0.040 A 
HETATM   28  C   UNL     1      43.445 -17.638   0.903  1.00  0.00     0.122 A 
ENDBRANCH  19  24
ENDBRANCH   2  18
TORSDOF 7
ENDMDL
MODEL 3
REMARK VINA RESULT:      -7.6      1.612      3.672
REMARK  7 active torsions:
REMARK  status: ('A' for Active; 'I' for Inactive)
REMARK    1  A    between atoms: C_2  and  N_3 
REMARK    2  A    between atoms: C_2  and  C_17 
REMARK       I    between atoms: N_3  and  C_4 
REMARK    3  A    between atoms: C_4  and  C_5 
REMARK    4  A    between atoms: C_6  and  N_7 
REMARK    5  A    between atoms: C_17  and  O_18 
REMARK    6  A    between atoms: C_17  and  C_19 
REMARK    7  A    between atoms: C_22  and  O_23 
ROOT
HETATM    1  N   UNL     1      41.762 -16.643   2.811  1.00  0.00    -0.350 N 
HETATM    2  C   UNL     1      42.948 -16.261   3.373  1.00  0.00     0.255 C 
HETATM    3  O   UNL     1      43.548 -15.283   2.922  1.00  0.00    -0.268 OA
HETATM    4  H   UNL     1      41.242 -17.420   3.214  1.00  0.00     0.163 HD
ENDROOT
BRANCH   1   5
HETATM    5  C   UNL     1      41.123 -15.896   1.725  1.00  0.00     0.114 C 
HETATM    6  C   UNL     1      39.619 -15.778   1.977  1.00  0.00     0.035 C 
BRANCH   5   7
HETATM    7  C   UNL     1      41.474 -16.455   0.315  1.00  0.00     0.173 C 
BRANCH   7   8
HETATM    8  O   UNL     1      42.799 -17.009   0.332  1.00  0.00    -0.389 OA
HETATM    9  H   UNL     1      43.200 -16.760  -0.519  1.00  0.00     0.210 HD
ENDBRANCH   7   8
BRANCH   7  10
HETATM   10  C   UNL     1      41.357 -15.450  -0.819  1.00  0.00    -0.028 A 
HETATM   11  C   UNL     1      41.680 -14.104  -0.604  1.00  0.00     0.012 A 
HETATM   12  C   UNL     1      41.577 -13.173  -1.643  1.00  0.00     0.037 A 
HETATM   13  C   UNL     1      41.150 -13.565  -2.913  1.00  0.00     0.068 A 
HETATM   14  C   UNL     1      40.836 -14.903  -3.142  1.00  0.00     0.037 A 
HETATM   15  C   UNL     1      40.941 -15.836  -2.104  1.00  0.00     0.012 A 
BRANCH  13  16
HETATM   16  O   UNL     1      41.088 -12.556  -3.836  1.00  0.00    -0.356 OA
HETATM   17  C   UNL     1      42.246 -11.743  -3.976  1.00  0.00     0.210 C 
ENDBRANCH  13  16
ENDBRANCH   7  10
ENDBRANCH   5   7
ENDBRANCH   1   5
BRANCH   2  18
HETATM   18  C   UNL     1      43.567 -17.031   4.511  1.00  0.00     0.079 A 
HETATM   19  C   UNL     1      44.029 -18.352   4.633  1.00  0.00     0.165 A 
HETATM   20  N   UNL     1      44.564 -18.830   5.814  1.00  0.00    -0.241 NA
HETATM   21  C   UNL     1      44.643 -18.026   6.889  1.00  0.00     0.119 A 
HETATM   22  C   UNL     1      44.215 -16.724   6.873  1.00  0.00     0.020 A 
HETATM   23  C   UNL     1      43.682 -16.238   5.684  1.00  0.00     0.022 A 
BRANCH  19  24
HETATM   24  N   UNL     1      44.001 -19.357   3.606  1.00  0.00    -0.226 N 
HETATM   25  N   UNL     1      43.212 -19.332   2.504  1.00  0.00    -0.179 NA
HETATM   26  C   UNL     1      43.505 -20.447   1.833  1.00  0.00     0.141 A 
HETATM   27  C   UNL     1      44.486 -21.214   2.464  1.00  0.00     0.040 A 
HETATM   28  C   UNL     1      44.793 -20.500   3.594  1.00  0.00     0.122 A 
ENDBRANCH  19  24
ENDBRANCH   2  18
TORSDOF 7
ENDMDL
MODEL 4
REMARK VINA RESULT:      -7.5      3.476      8.566
REMARK  7 active torsions:
REMARK  status: ('A' for Active; 'I' for Inactive)
REMARK    1  A    between atoms: C_2  and  N_3 
REMARK    2  A    between atoms: C_2  and  C_17 
REMARK       I    between atoms: N_3  and  C_4 
REMARK    3  A    between atoms: C_4  and  C_5 
REMARK    4  A    between atoms: C_6  and  N_7 
REMARK    5  A    between atoms: C_17  and  O_18 
REMARK    6  A    between atoms: C_17  and  C_19 
REMARK    7  A    between atoms: C_22  and  O_23 
ROOT
HETATM    1  N   UNL     1      41.347 -14.450   0.937  1.00  0.00    -0.350 N 
HETATM    2  C   UNL     1      41.318 -14.833  -0.374  1.00  0.00     0.255 C 
HETATM    3  O   UNL     1      41.187 -16.026  -0.657  1.00  0.00    -0.268 OA
HETATM    4  H   UNL     1      41.405 -13.460   1.171  1.00  0.00     0.163 HD
ENDROOT
BRANCH   1   5
HETATM    5  C   UNL     1      41.157 -15.393   2.042  1.00  0.00     0.114 C 
HETATM    6  C   UNL     1      39.910 -15.020   2.848  1.00  0.00     0.035 C 
BRANCH   5   7
HETATM    7  C   UNL     1      42.432 -15.566   2.918  1.00  0.00     0.173 C 
BRANCH   7   8
HETATM    8  O   UNL     1      43.434 -14.626   2.502  1.00  0.00    -0.389 OA
HETATM    9  H   UNL     1      43.830 -15.000   1.695  1.00  0.00     0.210 HD
ENDBRANCH   7   8
BRANCH   7  10
HETATM   10  C   UNL     1      43.020 -16.968   2.922  1.00  0.00    -0.028 A 
HETATM   11  C   UNL     1      43.075 -17.713   1.737  1.00  0.00     0.012 A 
HETATM   12  C   UNL     1      43.616 -19.002   1.733  1.00  0.00     0.037 A 
HETATM   13  C   UNL     1      44.110 -19.574   2.906  1.00  0.00     0.068 A 
HETATM   14  C   UNL     1      44.070 -18.839   4.090  1.00  0.00     0.037 A 
HETATM   15  C   UNL     1      43.532 -17.547   4.095  1.00  0.00     0.012 A 
BRANCH  13  16
HETATM   16  O   UNL     1      44.606 -20.841   2.765  1.00  0.00    -0.356 OA
HETATM   17  C   UNL     1      43.987 -21.667   1.787  1.00  0.00     0.210 C 
ENDBRANCH  13  16
ENDBRANCH   7  10
ENDBRANCH   5   7
ENDBRANCH   1   5
BRANCH   2  18
HETATM   18  C   UNL     1      41.484 -13.836  -1.492  1.00  0.00     0.079 A 
HETATM   19  C   UNL     1      40.864 -13.689  -2.743  1.00  0.00     0.165 A 
HETATM   20  N   UNL     1      41.206 -12.668  -3.610  1.00  0.00    -0.241 NA
HETATM   21  C   UNL     1      42.163 -11.788  -3.266  1.00  0.00     0.119 A 
HETATM   22  C   UNL     1      42.829 -11.849  -2.071  1.00  0.00     0.020 A 
HETATM   23  C   UNL     1      42.483 -12.871  -1.193  1.00  0.00     0.022 A 
BRANCH  19  24
HETATM   24  N   UNL     1      39.846 -14.544  -3.290  1.00  0.00    -0.226 N 
HETATM   25  N   UNL     1      40.071 -15.673  -4.006  1.00  0.00    -0.179 NA
HETATM   26  C   UNL     1      38.861 -16.145  -4.313  1.00  0.00     0.141 A 
HETATM   27  C   UNL     1      37.829 -15.354  -3.805  1.00  0.00     0.040 A 
HETATM   28  C   UNL     1      38.478 -14.337  -3.152  1.00  0.00     0.122 A 
ENDBRANCH  19  24
ENDBRANCH   2  18
TORSDOF 7
ENDMDL
MODEL 5
REMARK VINA RESULT:      -7.4      3.594      8.967
REMARK  7 active torsions:
REMARK  status: ('A' for Active; 'I' for Inactive)
REMARK    1  A    between atoms: C_2  and  N_3 
REMARK    2  A    between atoms: C_2  and  C_17 
REMARK       I    between atoms: N_3  and  C_4 
REMARK    3  A    between atoms: C_4  and  C_5 
REMARK    4  A    between atoms: C_6  and  N_7 
REMARK    5  A    between atoms: C_17  and  O_18 
REMARK    6  A    between atoms: C_17  and  C_19 
REMARK    7  A    between atoms: C_22  and  O_23 
ROOT
HETATM    1  N   UNL     1      41.983 -15.005  -0.018  1.00  0.00    -0.350 N 
HETATM    2  C   UNL     1      41.117 -14.040  -0.448  1.00  0.00     0.255 C 
HETATM    3  O   UNL     1      40.114 -13.780   0.220  1.00  0.00    -0.268 OA
HETATM    4  H   UNL     1      42.837 -15.186  -0.544  1.00  0.00     0.163 HD
ENDROOT
BRANCH   1   5
HETATM    5  C   UNL     1      41.814 -15.709   1.256  1.00  0.00     0.114 C 
HETATM    6  C   UNL     1      42.861 -15.234   2.266  1.00  0.00     0.035 C 
BRANCH   5   7
HETATM    7  C   UNL     1      41.769 -17.257   1.092  1.00  0.00     0.173 C 
BRANCH   7   8
HETATM    8  O   UNL     1      40.407 -17.708   1.147  1.00  0.00    -0.389 OA
HETATM    9  H   UNL     1      40.043 -17.561   0.256  1.00  0.00     0.210 HD
ENDBRANCH   7   8
BRANCH   7  10
HETATM   10  C   UNL     1      42.603 -18.032   2.099  1.00  0.00    -0.028 A 
HETATM   11  C   UNL     1      42.278 -17.994   3.461  1.00  0.00     0.012 A 
HETATM   12  C   UNL     1      43.038 -18.706   4.393  1.00  0.00     0.037 A 
HETATM   13  C   UNL     1      44.137 -19.467   3.988  1.00  0.00     0.068 A 
HETATM   14  C   UNL     1      44.464 -19.520   2.634  1.00  0.00     0.037 A 
HETATM   15  C   UNL     1      43.702 -18.811   1.700  1.00  0.00     0.012 A 
BRANCH  13  16
HETATM   16  O   UNL     1      44.798 -20.108   4.999  1.00  0.00    -0.356 OA
HETATM   17  C   UNL     1      44.739 -21.529   5.004  1.00  0.00     0.210 C 
ENDBRANCH  13  16
ENDBRANCH   7  10
ENDBRANCH   5   7
ENDBRANCH   1   5
BRANCH   2  18
HETATM   18  C   UNL     1      41.332 -13.309  -1.748  1.00  0.00     0.079 A 
HETATM   19  C   UNL     1      40.765 -13.442  -3.026  1.00  0.00     0.165 A 
HETATM   20  N   UNL     1      41.145 -12.631  -4.079  1.00  0.00    -0.241 NA
HETATM   21  C   UNL     1      42.088 -11.690  -3.896  1.00  0.00     0.119 A 
HETATM   22  C   UNL     1      42.703 -11.484  -2.689  1.00  0.00     0.020 A 
HETATM   23  C   UNL     1      42.319 -12.294  -1.625  1.00  0.00     0.022 A 
BRANCH  19  24
HETATM   24  N   UNL     1      39.770 -14.403  -3.416  1.00  0.00    -0.226 N 
HETATM   25  N   UNL     1      40.021 -15.591  -4.020  1.00  0.00    -0.179 NA
HETATM   26  C   UNL     1      38.826 -16.156  -4.201  1.00  0.00     0.141 A 
HETATM   27  C   UNL     1      37.778 -15.368  -3.719  1.00  0.00     0.040 A 
HETATM   28  C   UNL     1      38.402 -14.253  -3.218  1.00  0.00     0.122 A 
ENDBRANCH  19  24
ENDBRANCH   2  18
TORSDOF 7
ENDMDL
MODEL 6
REMARK VINA RESULT:      -7.3      3.063      6.778
REMARK  7 active torsions:
REMARK  status: ('A' for Active; 'I' for Inactive)
REMARK    1  A    between atoms: C_2  and  N_3 
REMARK    2  A    between atoms: C_2  and  C_17 
REMARK       I    between atoms: N_3  and  C_4 
REMARK    3  A    between atoms: C_4  and  C_5 
REMARK    4  A    between atoms: C_6  and  N_7 
REMARK    5  A    between atoms: C_17  and  O_18 
REMARK    6  A    between atoms: C_17  and  C_19 
REMARK    7  A    between atoms: C_22  and  O_23 
ROOT
HETATM    1  N   UNL     1      41.506 -14.563   1.914  1.00  0.00    -0.350 N 
HETATM    2  C   UNL     1      42.438 -14.017   2.750  1.00  0.00     0.255 C 
HETATM    3  O   UNL     1      43.625 -14.326   2.624  1.00  0.00    -0.268 OA
HETATM    4  H   UNL     1      40.533 -14.270   1.986  1.00  0.00     0.163 HD
ENDROOT
BRANCH   1   5
HETATM    5  C   UNL     1      41.860 -15.460   0.811  1.00  0.00     0.114 C 
HETATM    6  C   UNL     1      41.379 -14.877  -0.520  1.00  0.00     0.035 C 
BRANCH   5   7
HETATM    7  C   UNL     1      41.398 -16.927   1.049  1.00  0.00     0.173 C 
BRANCH   7   8
HETATM    8  O   UNL     1      40.043 -16.934   1.525  1.00  0.00    -0.389 OA
HETATM    9  H   UNL     1      40.100 -16.806   2.488  1.00  0.00     0.210 HD
ENDBRANCH   7   8
BRANCH   7  10
HETATM   10  C   UNL     1      42.274 -17.729   1.997  1.00  0.00    -0.028 A 
HETATM   11  C   UNL     1      43.353 -18.472   1.501  1.00  0.00     0.012 A 
HETATM   12  C   UNL     1      44.166 -19.209   2.367  1.00  0.00     0.037 A 
HETATM   13  C   UNL     1      43.918 -19.224   3.741  1.00  0.00     0.068 A 
HETATM   14  C   UNL     1      42.853 -18.481   4.247  1.00  0.00     0.037 A 
HETATM   15  C   UNL     1      42.041 -17.739   3.382  1.00  0.00     0.012 A 
BRANCH  13  16
HETATM   16  O   UNL     1      44.782 -19.991   4.474  1.00  0.00    -0.356 OA
HETATM   17  C   UNL     1      44.382 -20.322   5.798  1.00  0.00     0.210 C 
ENDBRANCH  13  16
ENDBRANCH   7  10
ENDBRANCH   5   7
ENDBRANCH   1   5
BRANCH   2  18
HETATM   18  C   UNL     1      42.048 -13.072   3.858  1.00  0.00     0.079 A 
HETATM   19  C   UNL     1      42.291 -13.067   5.241  1.00  0.00     0.165 A 
HETATM   20  N   UNL     1      41.809 -12.064   6.061  1.00  0.00    -0.241 NA
HETATM   21  C   UNL     1      41.078 -11.063   5.539  1.00  0.00     0.119 A 
HETATM   22  C   UNL     1      40.782 -10.981   4.204  1.00  0.00     0.020 A 
HETATM   23  C   UNL     1      41.272 -11.985   3.374  1.00  0.00     0.022 A 
BRANCH  19  24
HETATM   24  N   UNL     1      43.025 -14.060   5.976  1.00  0.00    -0.226 N 
HETATM   25  N   UNL     1      44.255 -13.886   6.517  1.00  0.00    -0.179 NA
HETATM   26  C   UNL     1      44.555 -15.048   7.100  1.00  0.00     0.141 A 
HETATM   27  C   UNL     1      43.537 -15.996   6.966  1.00  0.00     0.040 A 
HETATM   28  C   UNL     1      42.567 -15.345   6.247  1.00  0.00     0.122 A 
ENDBRANCH  19  24
ENDBRANCH   2  18
TORSDOF 7
ENDMDL
MODEL 7
REMARK VINA RESULT:      -7.3      2.918      4.433
REMARK  7 active torsions:
REMARK  status: ('A' for Active; 'I' for Inactive)
REMARK    1  A    between atoms: C_2  and  N_3 
REMARK    2  A    between atoms: C_2  and  C_17 
REMARK       I    between atoms: N_3  and  C_4 
REMARK    3  A    between atoms: C_4  and  C_5 
REMARK    4  A    between atoms: C_6  and  N_7 
REMARK    5  A    between atoms: C_17  and  O_18 
REMARK    6  A    between atoms: C_17  and  C_19 
REMARK    7  A    between atoms: C_22  and  O_23 
ROOT
HETATM    1  N   UNL     1      42.787 -16.169   2.407  1.00  0.00    -0.350 N 
HETATM    2  C   UNL     1      42.330 -17.240   3.123  1.00  0.00     0.255 C 
HETATM    3  O   UNL     1      41.137 -17.304   3.426  1.00  0.00    -0.268 OA
HETATM    4  H   UNL     1      43.762 -16.140   2.113  1.00  0.00     0.163 HD
ENDROOT
BRANCH   1   5
HETATM    5  C   UNL     1      41.903 -15.110   1.915  1.00  0.00     0.114 C 
HETATM    6  C   UNL     1      41.863 -15.123   0.385  1.00  0.00     0.035 C 
BRANCH   5   7
HETATM    7  C   UNL     1      42.237 -13.713   2.515  1.00  0.00     0.173 C 
BRANCH   7   8
HETATM    8  O   UNL     1      43.605 -13.691   2.951  1.00  0.00    -0.389 OA
HETATM    9  H   UNL     1      43.990 -14.535   2.657  1.00  0.00     0.210 HD
ENDBRANCH   7   8
BRANCH   7  10
HETATM   10  C   UNL     1      41.332 -13.272   3.654  1.00  0.00    -0.028 A 
HETATM   11  C   UNL     1      41.251 -14.036   4.825  1.00  0.00     0.012 A 
HETATM   12  C   UNL     1      40.423 -13.636   5.878  1.00  0.00     0.037 A 
HETATM   13  C   UNL     1      39.659 -12.471   5.784  1.00  0.00     0.068 A 
HETATM   14  C   UNL     1      39.738 -11.699   4.627  1.00  0.00     0.037 A 
HETATM   15  C   UNL     1      40.569 -12.096   3.574  1.00  0.00     0.012 A 
BRANCH  13  16
HETATM   16  O   UNL     1      38.888 -12.198   6.881  1.00  0.00    -0.356 OA
HETATM   17  C   UNL     1      39.508 -11.476   7.937  1.00  0.00     0.210 C 
ENDBRANCH  13  16
ENDBRANCH   7  10
ENDBRANCH   5   7
ENDBRANCH   1   5
BRANCH   2  18
HETATM   18  C   UNL     1      43.258 -18.332   3.590  1.00  0.00     0.079 A 
HETATM   19  C   UNL     1      43.864 -18.608   4.826  1.00  0.00     0.165 A 
HETATM   20  N   UNL     1      44.698 -19.697   5.000  1.00  0.00    -0.241 NA
HETATM   21  C   UNL     1      44.954 -20.519   3.967  1.00  0.00     0.119 A 
HETATM   22  C   UNL     1      44.415 -20.333   2.722  1.00  0.00     0.020 A 
HETATM   23  C   UNL     1      43.570 -19.242   2.544  1.00  0.00     0.022 A 
BRANCH  19  24
HETATM   24  N   UNL     1      43.731 -17.832   6.028  1.00  0.00    -0.226 N 
HETATM   25  N   UNL     1      43.863 -16.485   6.110  1.00  0.00    -0.179 NA
HETATM   26  C   UNL     1      43.664 -16.188   7.396  1.00  0.00     0.141 A 
HETATM   27  C   UNL     1      43.391 -17.315   8.174  1.00  0.00     0.040 A 
HETATM   28  C   UNL     1      43.435 -18.356   7.282  1.00  0.00     0.122 A 
ENDBRANCH  19  24
ENDBRANCH   2  18
TORSDOF 7
ENDMDL
MODEL 8
REMARK VINA RESULT:      -7.3      5.374      8.873
REMARK  7 active torsions:
REMARK  status: ('A' for Active; 'I' for Inactive)
REMARK    1  A    between atoms: C_2  and  N_3 
REMARK    2  A    between atoms: C_2  and  C_17 
REMARK       I    between atoms: N_3  and  C_4 
REMARK    3  A    between atoms: C_4  and  C_5 
REMARK    4  A    between atoms: C_6  and  N_7 
REMARK    5  A    between atoms: C_17  and  O_18 
REMARK    6  A    between atoms: C_17  and  C_19 
REMARK    7  A    between atoms: C_22  and  O_23 
ROOT
HETATM    1  N   UNL     1      43.530 -13.901   7.125  1.00  0.00    -0.350 N 
HETATM    2  C   UNL     1      44.575 -13.186   7.639  1.00  0.00     0.255 C 
HETATM    3  O   UNL     1      45.719 -13.407   7.239  1.00  0.00    -0.268 OA
HETATM    4  H   UNL     1      42.579 -13.684   7.418  1.00  0.00     0.163 HD
ENDROOT
BRANCH   1   5
HETATM    5  C   UNL     1      43.696 -14.885   6.052  1.00  0.00     0.114 C 
HETATM    6  C   UNL     1      43.441 -14.233   4.691  1.00  0.00     0.035 C 
BRANCH   5   7
HETATM    7  C   UNL     1      42.866 -16.181   6.285  1.00  0.00     0.173 C 
BRANCH   7   8
HETATM    8  O   UNL     1      42.812 -16.473   7.689  1.00  0.00    -0.389 OA
HETATM    9  H   UNL     1      43.340 -17.282   7.813  1.00  0.00     0.210 HD
ENDBRANCH   7   8
BRANCH   7  10
HETATM   10  C   UNL     1      43.363 -17.403   5.530  1.00  0.00    -0.028 A 
HETATM   11  C   UNL     1      44.348 -18.226   6.091  1.00  0.00     0.012 A 
HETATM   12  C   UNL     1      44.808 -19.354   5.404  1.00  0.00     0.037 A 
HETATM   13  C   UNL     1      44.300 -19.681   4.146  1.00  0.00     0.068 A 
HETATM   14  C   UNL     1      43.313 -18.875   3.581  1.00  0.00     0.037 A 
HETATM   15  C   UNL     1      42.849 -17.748   4.269  1.00  0.00     0.012 A 
BRANCH  13  16
HETATM   16  O   UNL     1      44.840 -20.804   3.580  1.00  0.00    -0.356 OA
HETATM   17  C   UNL     1      44.927 -21.959   4.405  1.00  0.00     0.210 C 
ENDBRANCH  13  16
ENDBRANCH   7  10
ENDBRANCH   5   7
ENDBRANCH   1   5
BRANCH   2  18
HETATM   18  C   UNL     1      44.370 -12.156   8.721  1.00  0.00     0.079 A 
HETATM   19  C   UNL     1      43.339 -11.241   8.987  1.00  0.00     0.165 A 
HETATM   20  N   UNL     1      43.392 -10.379  10.067  1.00  0.00    -0.241 NA
HETATM   21  C   UNL     1      44.455 -10.397  10.889  1.00  0.00     0.119 A 
HETATM   22  C   UNL     1      45.513 -11.249  10.712  1.00  0.00     0.020 A 
HETATM   23  C   UNL     1      45.461 -12.123   9.630  1.00  0.00     0.022 A 
BRANCH  19  24
HETATM   24  N   UNL     1      42.145 -11.059   8.208  1.00  0.00    -0.226 N 
HETATM   25  N   UNL     1      42.026 -11.317   6.883  1.00  0.00    -0.179 NA
HETATM   26  C   UNL     1      40.765 -11.009   6.573  1.00  0.00     0.141 A 
HETATM   27  C   UNL     1      40.035 -10.558   7.675  1.00  0.00     0.040 A 
HETATM   28  C   UNL     1      40.933 -10.599   8.710  1.00  0.00     0.122 A 
ENDBRANCH  19  24
ENDBRANCH   2  18
TORSDOF 7
ENDMDL
MODEL 9
REMARK VINA RESULT:      -7.2      3.080      7.143
REMARK  7 active torsions:
REMARK  status: ('A' for Active; 'I' for Inactive)
REMARK    1  A    between atoms: C_2  and  N_3 
REMARK    2  A    between atoms: C_2  and  C_17 
REMARK       I    between atoms: N_3  and  C_4 
REMARK    3  A    between atoms: C_4  and  C_5 
REMARK    4  A    between atoms: C_6  and  N_7 
REMARK    5  A    between atoms: C_17  and  O_18 
REMARK    6  A    between atoms: C_17  and  C_19 
REMARK    7  A    between atoms: C_22  and  O_23 
ROOT
HETATM    1  N   UNL     1      41.221 -16.032   2.590  1.00  0.00    -0.350 N 
HETATM    2  C   UNL     1      41.353 -14.674   2.664  1.00  0.00     0.255 C 
HETATM    3  O   UNL     1      41.981 -14.075   1.788  1.00  0.00    -0.268 OA
HETATM    4  H   UNL     1      40.661 -16.521   3.286  1.00  0.00     0.163 HD
ENDROOT
BRANCH   1   5
HETATM    5  C   UNL     1      41.736 -16.817   1.466  1.00  0.00     0.114 C 
HETATM    6  C   UNL     1      40.908 -18.091   1.286  1.00  0.00     0.035 C 
BRANCH   5   7
HETATM    7  C   UNL     1      43.268 -17.082   1.562  1.00  0.00     0.173 C 
BRANCH   7   8
HETATM    8  O   UNL     1      43.786 -17.391   0.259  1.00  0.00    -0.389 OA
HETATM    9  H   UNL     1      44.317 -16.618  -0.004  1.00  0.00     0.210 HD
ENDBRANCH   7   8
BRANCH   7  10
HETATM   10  C   UNL     1      43.668 -18.173   2.541  1.00  0.00    -0.028 A 
HETATM   11  C   UNL     1      43.788 -17.886   3.907  1.00  0.00     0.012 A 
HETATM   12  C   UNL     1      44.153 -18.885   4.814  1.00  0.00     0.037 A 
HETATM   13  C   UNL     1      44.409 -20.187   4.379  1.00  0.00     0.068 A 
HETATM   14  C   UNL     1      44.284 -20.487   3.024  1.00  0.00     0.037 A 
HETATM   15  C   UNL     1      43.914 -19.489   2.115  1.00  0.00     0.012 A 
BRANCH  13  16
HETATM   16  O   UNL     1      44.763 -21.065   5.367  1.00  0.00    -0.356 OA
HETATM   17  C   UNL     1      45.002 -22.411   4.973  1.00  0.00     0.210 C 
ENDBRANCH  13  16
ENDBRANCH   7  10
ENDBRANCH   5   7
ENDBRANCH   1   5
BRANCH   2  18
HETATM   18  C   UNL     1      40.785 -13.887   3.816  1.00  0.00     0.079 A 
HETATM   19  C   UNL     1      41.015 -13.917   5.201  1.00  0.00     0.165 A 
HETATM   20  N   UNL     1      40.346 -13.074   6.069  1.00  0.00    -0.241 NA
HETATM   21  C   UNL     1      39.441 -12.200   5.593  1.00  0.00     0.119 A 
HETATM   22  C   UNL     1      39.143 -12.097   4.260  1.00  0.00     0.020 A 
HETATM   23  C   UNL     1      39.819 -12.939   3.382  1.00  0.00     0.022 A 
BRANCH  19  24
HETATM   24  N   UNL     1      41.919 -14.796   5.891  1.00  0.00    -0.226 N 
HETATM   25  N   UNL     1      41.585 -15.988   6.444  1.00  0.00    -0.179 NA
HETATM   26  C   UNL     1      42.714 -16.460   6.976  1.00  0.00     0.141 A 
HETATM   27  C   UNL     1      43.802 -15.606   6.778  1.00  0.00     0.040 A 
HETATM   28  C   UNL     1      43.274 -14.549   6.081  1.00  0.00     0.122 A 
ENDBRANCH  19  24
ENDBRANCH   2  18
TORSDOF 7
ENDMDL
MODEL 10
REMARK VINA RESULT:      -7.1      2.363      4.974
REMARK  7 active torsions:
REMARK  status: ('A' for Active; 'I' for Inactive)
REMARK    1  A    between atoms: C_2  and  N_3 
REMARK    2  A    between atoms: C_2  and  C_17 
REMARK       I    between atoms: N_3  and  C_4 
REMARK    3  A    between atoms: C_4  and  C_5 
REMARK    4  A    between atoms: C_6  and  N_7 
REMARK    5  A    between atoms: C_17  and  O_18 
REMARK    6  A    between atoms: C_17  and  C_19 
REMARK    7  A    between atoms: C_22  and  O_23 
ROOT
HETATM    1  N   UNL     1      41.803 -16.758   2.708  1.00  0.00    -0.350 N 
HETATM    2  C   UNL     1      41.919 -17.774   3.615  1.00  0.00     0.255 C 
HETATM    3  O   UNL     1      41.182 -17.794   4.603  1.00  0.00    -0.268 OA
HETATM    4  H   UNL     1      42.377 -16.767   1.866  1.00  0.00     0.163 HD
ENDROOT
BRANCH   1   5
HETATM    5  C   UNL     1      40.783 -15.712   2.817  1.00  0.00     0.114 C 
HETATM    6  C   UNL     1      39.882 -15.721   1.579  1.00  0.00     0.035 C 
BRANCH   5   7
HETATM    7  C   UNL     1      41.381 -14.312   3.138  1.00  0.00     0.173 C 
BRANCH   7   8
HETATM    8  O   UNL     1      42.037 -13.789   1.972  1.00  0.00    -0.389 OA
HETATM    9  H   UNL     1      41.522 -14.112   1.212  1.00  0.00     0.210 HD
ENDBRANCH   7   8
BRANCH   7  10
HETATM   10  C   UNL     1      42.339 -14.280   4.317  1.00  0.00    -0.028 A 
HETATM   11  C   UNL     1      41.884 -14.599   5.603  1.00  0.00     0.012 A 
HETATM   12  C   UNL     1      42.761 -14.575   6.693  1.00  0.00     0.037 A 
HETATM   13  C   UNL     1      44.103 -14.231   6.524  1.00  0.00     0.068 A 
HETATM   14  C   UNL     1      44.569 -13.921   5.248  1.00  0.00     0.037 A 
HETATM   15  C   UNL     1      43.695 -13.948   4.156  1.00  0.00     0.012 A 
BRANCH  13  16
HETATM   16  O   UNL     1      44.849 -14.240   7.671  1.00  0.00    -0.356 OA
HETATM   17  C   UNL     1      45.209 -12.976   8.213  1.00  0.00     0.210 C 
ENDBRANCH  13  16
ENDBRANCH   7  10
ENDBRANCH   5   7
ENDBRANCH   1   5
BRANCH   2  18
HETATM   18  C   UNL     1      42.958 -18.855   3.461  1.00  0.00     0.079 A 
HETATM   19  C   UNL     1      43.893 -19.415   4.346  1.00  0.00     0.165 A 
HETATM   20  N   UNL     1      44.759 -20.418   3.951  1.00  0.00    -0.241 NA
HETATM   21  C   UNL     1      44.725 -20.875   2.687  1.00  0.00     0.119 A 
HETATM   22  C   UNL     1      43.853 -20.390   1.748  1.00  0.00     0.020 A 
HETATM   23  C   UNL     1      42.975 -19.386   2.143  1.00  0.00     0.022 A 
BRANCH  19  24
HETATM   24  N   UNL     1      44.093 -19.038   5.718  1.00  0.00    -0.226 N 
HETATM   25  N   UNL     1      43.680 -19.750   6.795  1.00  0.00    -0.179 NA
HETATM   26  C   UNL     1      44.067 -19.043   7.858  1.00  0.00     0.141 A 
HETATM   27  C   UNL     1      44.744 -17.872   7.509  1.00  0.00     0.040 A 
HETATM   28  C   UNL     1      44.753 -17.888   6.137  1.00  0.00     0.122 A 
ENDBRANCH  19  24
ENDBRANCH   2  18
TORSDOF 7
ENDMDL
