MODEL 1
REMARK VINA RESULT:      -9.3      0.000      0.000
REMARK  9 active torsions:
REMARK  status: ('A' for Active; 'I' for Inactive)
REMARK    1  A    between atoms: C_2  and  N_3 
REMARK    2  A    between atoms: C_2  and  C_11 
REMARK    3  A    between atoms: N_3  and  C_4 
REMARK    4  A    between atoms: N_12  and  C_13 
REMARK    5  A    between atoms: C_19  and  S_20 
REMARK    6  A    between atoms: S_20  and  C_21 
REMARK    7  A    between atoms: C_21  and  C_22 
REMARK       I    between atoms: C_22  and  N_23 
REMARK    8  A    between atoms: N_23  and  C_24 
REMARK    9  A    between atoms: C_26  and  N_27 
REMARK       I    between atoms: N_27  and  C_28 
ROOT
HETATM    1  C   UNL     1      41.149 -14.247   3.316  1.00  0.00     0.158 A 
HETATM    2  N   UNL     1      41.150 -14.160   4.708  1.00  0.00    -0.274 N 
HETATM    3  C   UNL     1      40.345 -13.063   4.968  1.00  0.00     0.196 A 
HETATM    4  N   UNL     1      39.992 -12.481   3.843  1.00  0.00    -0.122 NA
HETATM    5  N   UNL     1      40.499 -13.212   2.812  1.00  0.00    -0.131 NA
ENDROOT
BRANCH   3   6
HETATM    6  S   UNL     1      40.001 -12.404   6.536  1.00  0.00    -0.080 SA
BRANCH   6   7
HETATM    7  C   UNL     1      40.459 -10.661   6.308  1.00  0.00     0.185 C 
BRANCH   7   8
HETATM    8  C   UNL     1      41.655 -10.308   7.179  1.00  0.00     0.231 C 
HETATM    9  N   UNL     1      42.163 -11.392   7.878  1.00  0.00    -0.326 N 
HETATM   10  H   UNL     1      41.648 -12.268   7.783  1.00  0.00     0.169 HD
HETATM   11  O   UNL     1      42.078  -9.156   7.220  1.00  0.00    -0.272 OA
BRANCH   9  12
HETATM   12  C   UNL     1      43.237 -11.404   8.792  1.00  0.00     0.036 A 
HETATM   13  C   UNL     1      43.061 -10.688   9.990  1.00  0.00     0.059 A 
HETATM   14  C   UNL     1      44.071 -10.632  10.954  1.00  0.00     0.036 A 
HETATM   15  C   UNL     1      45.280 -11.289  10.691  1.00  0.00     0.029 A 
HETATM   16  C   UNL     1      45.463 -12.006   9.510  1.00  0.00     0.004 A 
HETATM   17  C   UNL     1      44.441 -12.068   8.564  1.00  0.00     0.029 A 
BRANCH  14  18
HETATM   18  N   UNL     1      44.001  -9.936  12.175  1.00  0.00    -0.327 N 
HETATM   19  C   UNL     1      43.144  -9.958  13.233  1.00  0.00     0.218 C 
HETATM   20  C   UNL     1      42.046 -10.973  13.344  1.00  0.00     0.117 C 
HETATM   21  O   UNL     1      43.311  -9.124  14.129  1.00  0.00    -0.274 OA
HETATM   22  H   UNL     1      44.736  -9.258  12.339  1.00  0.00     0.169 HD
ENDBRANCH  14  18
ENDBRANCH   9  12
ENDBRANCH   7   8
ENDBRANCH   6   7
ENDBRANCH   3   6
BRANCH   2  23
HETATM   23  C   UNL     1      41.843 -14.991   5.627  1.00  0.00     0.043 A 
HETATM   24  C   UNL     1      41.224 -16.147   6.122  1.00  0.00     0.030 A 
HETATM   25  C   UNL     1      41.908 -16.982   7.008  1.00  0.00     0.002 A 
HETATM   26  C   UNL     1      43.208 -16.670   7.399  1.00  0.00     0.000 A 
HETATM   27  C   UNL     1      43.828 -15.523   6.907  1.00  0.00     0.002 A 
HETATM   28  C   UNL     1      43.151 -14.683   6.019  1.00  0.00     0.030 A 
ENDBRANCH   2  23
BRANCH   1  29
HETATM   29  C   UNL     1      41.621 -15.452   2.535  1.00  0.00     0.150 C 
HETATM   30  C   UNL     1      40.617 -16.607   2.674  1.00  0.00     0.040 C 
BRANCH  29  31
HETATM   31  N   UNL     1      42.939 -15.906   2.999  1.00  0.00    -0.379 N 
HETATM   32  H   UNL     1      43.182 -15.488   3.895  1.00  0.00     0.160 HD
BRANCH  31  33
HETATM   33  C   UNL     1      43.362 -17.229   2.901  1.00  0.00     0.028 A 
HETATM   34  C   UNL     1      43.640 -18.047   4.003  1.00  0.00     0.030 A 
HETATM   35  C   UNL     1      43.998 -19.392   3.840  1.00  0.00     0.021 A 
HETATM   36  C   UNL     1      44.050 -19.946   2.565  1.00  0.00     0.011 A 
HETATM   37 BR   UNL     1      44.531 -21.759   2.343  1.00  0.00    -0.051 Br
HETATM   38  C   UNL     1      43.734 -19.171   1.457  1.00  0.00     0.021 A 
HETATM   39  C   UNL     1      43.380 -17.829   1.631  1.00  0.00     0.030 A 
ENDBRANCH  31  33
ENDBRANCH  29  31
ENDBRANCH   1  29
TORSDOF 9
ENDMDL
MODEL 2
REMARK VINA RESULT:      -8.9      4.574      8.330
REMARK  9 active torsions:
REMARK  status: ('A' for Active; 'I' for Inactive)
REMARK    1  A    between atoms: C_2  and  N_3 
REMARK    2  A    between atoms: C_2  and  C_11 
REMARK    3  A    between atoms: N_3  and  C_4 
REMARK    4  A    between atoms: N_12  and  C_13 
REMARK    5  A    between atoms: C_19  and  S_20 
REMARK    6  A    between atoms: S_20  and  C_21 
REMARK    7  A    between atoms: C_21  and  C_22 
REMARK       I    between atoms: C_22  and  N_23 
REMARK    8  A    between atoms: N_23  and  C_24 
REMARK    9  A    between atoms: C_26  and  N_27 
REMARK       I    between atoms: N_27  and  C_28 
ROOT
HETATM    1  C   UNL     1      41.330 -12.837   2.677  1.00  0.00     0.158 A 
HETATM    2  N   UNL     1      41.448 -14.107   3.243  1.00  0.00    -0.274 N 
HETATM    3  C   UNL     1      41.094 -13.908   4.568  1.00  0.00     0.196 A 
HETATM    4  N   UNL     1      40.896 -12.629   4.800  1.00  0.00    -0.122 NA
HETATM    5  N   UNL     1      41.051 -11.958   3.625  1.00  0.00    -0.131 NA
ENDROOT
BRANCH   3   6
HETATM    6  S   UNL     1      41.101 -15.117   5.813  1.00  0.00    -0.080 SA
BRANCH   6   7
HETATM    7  C   UNL     1      42.856 -15.151   6.280  1.00  0.00     0.185 C 
BRANCH   7   8
HETATM    8  C   UNL     1      43.247 -16.534   6.777  1.00  0.00     0.231 C 
HETATM    9  N   UNL     1      43.364 -17.469   5.761  1.00  0.00    -0.326 N 
HETATM   10  H   UNL     1      43.115 -17.148   4.824  1.00  0.00     0.169 HD
HETATM   11  O   UNL     1      43.423 -16.739   7.975  1.00  0.00    -0.272 OA
BRANCH   9  12
HETATM   12  C   UNL     1      43.675 -18.840   5.879  1.00  0.00     0.036 A 
HETATM   13  C   UNL     1      44.125 -19.494   4.718  1.00  0.00     0.059 A 
HETATM   14  C   UNL     1      44.449 -20.853   4.732  1.00  0.00     0.036 A 
HETATM   15  C   UNL     1      44.293 -21.562   5.929  1.00  0.00     0.029 A 
HETATM   16  C   UNL     1      43.852 -20.923   7.087  1.00  0.00     0.004 A 
HETATM   17  C   UNL     1      43.549 -19.563   7.064  1.00  0.00     0.029 A 
BRANCH  14  18
HETATM   18  N   UNL     1      44.894 -21.600   3.626  1.00  0.00    -0.327 N 
HETATM   19  C   UNL     1      44.381 -21.869   2.393  1.00  0.00     0.218 C 
HETATM   20  C   UNL     1      43.134 -21.206   1.890  1.00  0.00     0.117 C 
HETATM   21  O   UNL     1      44.993 -22.666   1.674  1.00  0.00    -0.274 OA
HETATM   22  H   UNL     1      45.794 -22.054   3.733  1.00  0.00     0.169 HD
ENDBRANCH  14  18
ENDBRANCH   9  12
ENDBRANCH   7   8
ENDBRANCH   6   7
ENDBRANCH   3   6
BRANCH   2  23
HETATM   23  C   UNL     1      41.864 -15.303   2.604  1.00  0.00     0.043 A 
HETATM   24  C   UNL     1      40.906 -16.168   2.055  1.00  0.00     0.030 A 
HETATM   25  C   UNL     1      41.309 -17.335   1.405  1.00  0.00     0.002 A 
HETATM   26  C   UNL     1      42.663 -17.643   1.296  1.00  0.00     0.000 A 
HETATM   27  C   UNL     1      43.619 -16.785   1.837  1.00  0.00     0.002 A 
HETATM   28  C   UNL     1      43.224 -15.614   2.489  1.00  0.00     0.030 A 
ENDBRANCH   2  23
BRANCH   1  29
HETATM   29  C   UNL     1      41.301 -12.563   1.191  1.00  0.00     0.150 C 
HETATM   30  C   UNL     1      41.812 -11.144   0.898  1.00  0.00     0.040 C 
BRANCH  29  31
HETATM   31  N   UNL     1      39.942 -12.704   0.650  1.00  0.00    -0.379 N 
HETATM   32  H   UNL     1      39.457 -11.809   0.624  1.00  0.00     0.160 HD
BRANCH  31  33
HETATM   33  C   UNL     1      39.646 -13.498  -0.455  1.00  0.00     0.028 A 
HETATM   34  C   UNL     1      38.420 -13.475  -1.131  1.00  0.00     0.030 A 
HETATM   35  C   UNL     1      38.206 -14.250  -2.279  1.00  0.00     0.021 A 
HETATM   36  C   UNL     1      39.234 -15.038  -2.784  1.00  0.00     0.011 A 
HETATM   37 BR   UNL     1      38.948 -16.083  -4.331  1.00  0.00    -0.051 Br
HETATM   38  C   UNL     1      40.475 -15.046  -2.161  1.00  0.00     0.021 A 
HETATM   39  C   UNL     1      40.677 -14.269  -1.015  1.00  0.00     0.030 A 
ENDBRANCH  31  33
ENDBRANCH  29  31
ENDBRANCH   1  29
TORSDOF 9
ENDMDL
MODEL 3
REMARK VINA RESULT:      -8.9      1.707      2.565
REMARK  9 active torsions:
REMARK  status: ('A' for Active; 'I' for Inactive)
REMARK    1  A    between atoms: C_2  and  N_3 
REMARK    2  A    between atoms: C_2  and  C_11 
REMARK    3  A    between atoms: N_3  and  C_4 
REMARK    4  A    between atoms: N_12  and  C_13 
REMARK    5  A    between atoms: C_19  and  S_20 
REMARK    6  A    between atoms: S_20  and  C_21 
REMARK    7  A    between atoms: C_21  and  C_22 
REMARK       I    between atoms: C_22  and  N_23 
REMARK    8  A    between atoms: N_23  and  C_24 
REMARK    9  A    between atoms: C_26  and  N_27 
REMARK       I    between atoms: N_27  and  C_28 
ROOT
HETATM    1  C   UNL     1      41.437 -14.651   3.135  1.00  0.00     0.158 A 
HETATM    2  N   UNL     1      41.370 -14.500   4.520  1.00  0.00    -0.274 N 
HETATM    3  C   UNL     1      40.595 -13.364   4.687  1.00  0.00     0.196 A 
HETATM    4  N   UNL     1      40.322 -12.822   3.520  1.00  0.00    -0.122 NA
HETATM    5  N   UNL     1      40.854 -13.618   2.551  1.00  0.00    -0.131 NA
ENDROOT
BRANCH   3   6
HETATM    6  S   UNL     1      40.197 -12.620   6.204  1.00  0.00    -0.080 SA
BRANCH   6   7
HETATM    7  C   UNL     1      41.682 -11.623   6.523  1.00  0.00     0.185 C 
BRANCH   7   8
HETATM    8  C   UNL     1      41.498 -10.785   7.780  1.00  0.00     0.231 C 
HETATM    9  N   UNL     1      40.387 -11.149   8.524  1.00  0.00    -0.326 N 
HETATM   10  H   UNL     1      39.794 -11.875   8.119  1.00  0.00     0.169 HD
HETATM   11  O   UNL     1      42.290  -9.886   8.050  1.00  0.00    -0.272 OA
BRANCH   9  12
HETATM   12  C   UNL     1      39.914 -10.559   9.714  1.00  0.00     0.036 A 
HETATM   13  C   UNL     1      40.667 -10.787  10.881  1.00  0.00     0.059 A 
HETATM   14  C   UNL     1      40.275 -10.253  12.111  1.00  0.00     0.036 A 
HETATM   15  C   UNL     1      39.095  -9.502  12.165  1.00  0.00     0.029 A 
HETATM   16  C   UNL     1      38.343  -9.265  11.014  1.00  0.00     0.004 A 
HETATM   17  C   UNL     1      38.755  -9.789   9.791  1.00  0.00     0.029 A 
BRANCH  14  18
HETATM   18  N   UNL     1      40.948 -10.432  13.333  1.00  0.00    -0.327 N 
HETATM   19  C   UNL     1      42.034  -9.851  13.913  1.00  0.00     0.218 C 
HETATM   20  C   UNL     1      42.713  -8.657  13.311  1.00  0.00     0.117 C 
HETATM   21  O   UNL     1      42.440 -10.321  14.982  1.00  0.00    -0.274 OA
HETATM   22  H   UNL     1      40.568 -11.144  13.947  1.00  0.00     0.169 HD
ENDBRANCH  14  18
ENDBRANCH   9  12
ENDBRANCH   7   8
ENDBRANCH   6   7
ENDBRANCH   3   6
BRANCH   2  23
HETATM   23  C   UNL     1      41.983 -15.311   5.510  1.00  0.00     0.043 A 
HETATM   24  C   UNL     1      43.261 -14.984   5.983  1.00  0.00     0.030 A 
HETATM   25  C   UNL     1      43.861 -15.764   6.974  1.00  0.00     0.002 A 
HETATM   26  C   UNL     1      43.190 -16.867   7.496  1.00  0.00     0.000 A 
HETATM   27  C   UNL     1      41.917 -17.194   7.031  1.00  0.00     0.002 A 
HETATM   28  C   UNL     1      41.310 -16.418   6.041  1.00  0.00     0.030 A 
ENDBRANCH   2  23
BRANCH   1  29
HETATM   29  C   UNL     1      41.901 -15.908   2.434  1.00  0.00     0.150 C 
HETATM   30  C   UNL     1      40.901 -17.050   2.664  1.00  0.00     0.040 C 
BRANCH  29  31
HETATM   31  N   UNL     1      43.225 -16.327   2.914  1.00  0.00    -0.379 N 
HETATM   32  H   UNL     1      43.514 -15.788   3.728  1.00  0.00     0.160 HD
BRANCH  31  33
HETATM   33  C   UNL     1      43.611 -17.663   3.000  1.00  0.00     0.028 A 
HETATM   34  C   UNL     1      43.921 -18.313   4.200  1.00  0.00     0.030 A 
HETATM   35  C   UNL     1      44.237 -19.678   4.228  1.00  0.00     0.021 A 
HETATM   36  C   UNL     1      44.217 -20.419   3.052  1.00  0.00     0.011 A 
HETATM   37 BR   UNL     1      44.643 -22.258   3.088  1.00  0.00    -0.051 Br
HETATM   38  C   UNL     1      43.869 -19.810   1.853  1.00  0.00     0.021 A 
HETATM   39  C   UNL     1      43.556 -18.447   1.836  1.00  0.00     0.030 A 
ENDBRANCH  31  33
ENDBRANCH  29  31
ENDBRANCH   1  29
TORSDOF 9
ENDMDL
MODEL 4
REMARK VINA RESULT:      -8.9      4.433      6.625
REMARK  9 active torsions:
REMARK  status: ('A' for Active; 'I' for Inactive)
REMARK    1  A    between atoms: C_2  and  N_3 
REMARK    2  A    between atoms: C_2  and  C_11 
REMARK    3  A    between atoms: N_3  and  C_4 
REMARK    4  A    between atoms: N_12  and  C_13 
REMARK    5  A    between atoms: C_19  and  S_20 
REMARK    6  A    between atoms: S_20  and  C_21 
REMARK    7  A    between atoms: C_21  and  C_22 
REMARK       I    between atoms: C_22  and  N_23 
REMARK    8  A    between atoms: N_23  and  C_24 
REMARK    9  A    between atoms: C_26  and  N_27 
REMARK       I    between atoms: N_27  and  C_28 
ROOT
HETATM    1  C   UNL     1      41.666 -14.900   0.645  1.00  0.00     0.158 A 
HETATM    2  N   UNL     1      41.175 -14.016  -0.316  1.00  0.00    -0.274 N 
HETATM    3  C   UNL     1      41.713 -12.795   0.059  1.00  0.00     0.196 A 
HETATM    4  N   UNL     1      42.365 -12.914   1.195  1.00  0.00    -0.122 NA
HETATM    5  N   UNL     1      42.330 -14.224   1.567  1.00  0.00    -0.131 NA
ENDROOT
BRANCH   3   6
HETATM    6  S   UNL     1      41.418 -11.273  -0.722  1.00  0.00    -0.080 SA
BRANCH   6   7
HETATM    7  C   UNL     1      39.952 -10.681   0.173  1.00  0.00     0.185 C 
BRANCH   7   8
HETATM    8  C   UNL     1      40.196 -10.721   1.675  1.00  0.00     0.231 C 
HETATM    9  N   UNL     1      39.543 -11.767   2.308  1.00  0.00    -0.326 N 
HETATM   10  H   UNL     1      38.933 -12.337   1.720  1.00  0.00     0.169 HD
HETATM   11  O   UNL     1      40.908  -9.878   2.213  1.00  0.00    -0.272 OA
BRANCH   9  12
HETATM   12  C   UNL     1      39.529 -12.069   3.685  1.00  0.00     0.036 A 
HETATM   13  C   UNL     1      39.727 -13.414   4.045  1.00  0.00     0.059 A 
HETATM   14  C   UNL     1      39.721 -13.814   5.384  1.00  0.00     0.036 A 
HETATM   15  C   UNL     1      39.488 -12.844   6.367  1.00  0.00     0.029 A 
HETATM   16  C   UNL     1      39.295 -11.507   6.023  1.00  0.00     0.004 A 
HETATM   17  C   UNL     1      39.321 -11.119   4.685  1.00  0.00     0.029 A 
BRANCH  14  18
HETATM   18  N   UNL     1      39.896 -15.131   5.846  1.00  0.00    -0.327 N 
HETATM   19  C   UNL     1      40.982 -15.921   6.075  1.00  0.00     0.218 C 
HETATM   20  C   UNL     1      42.382 -15.393   5.982  1.00  0.00     0.117 C 
HETATM   21  O   UNL     1      40.783 -17.098   6.393  1.00  0.00    -0.274 OA
HETATM   22  H   UNL     1      39.047 -15.637   6.071  1.00  0.00     0.169 HD
ENDBRANCH  14  18
ENDBRANCH   9  12
ENDBRANCH   7   8
ENDBRANCH   6   7
ENDBRANCH   3   6
BRANCH   2  23
HETATM   23  C   UNL     1      40.305 -14.310  -1.398  1.00  0.00     0.043 A 
HETATM   24  C   UNL     1      40.805 -14.963  -2.533  1.00  0.00     0.030 A 
HETATM   25  C   UNL     1      39.951 -15.276  -3.593  1.00  0.00     0.002 A 
HETATM   26  C   UNL     1      38.600 -14.943  -3.523  1.00  0.00     0.000 A 
HETATM   27  C   UNL     1      38.099 -14.296  -2.394  1.00  0.00     0.002 A 
HETATM   28  C   UNL     1      38.947 -13.980  -1.330  1.00  0.00     0.030 A 
ENDBRANCH   2  23
BRANCH   1  29
HETATM   29  C   UNL     1      41.631 -16.406   0.517  1.00  0.00     0.150 C 
HETATM   30  C   UNL     1      40.690 -17.012   1.569  1.00  0.00     0.040 C 
BRANCH  29  31
HETATM   31  N   UNL     1      42.971 -16.985   0.685  1.00  0.00    -0.379 N 
HETATM   32  H   UNL     1      43.699 -16.289   0.535  1.00  0.00     0.160 HD
BRANCH  31  33
HETATM   33  C   UNL     1      43.290 -17.871   1.711  1.00  0.00     0.028 A 
HETATM   34  C   UNL     1      43.438 -19.252   1.537  1.00  0.00     0.030 A 
HETATM   35  C   UNL     1      43.826 -20.083   2.597  1.00  0.00     0.021 A 
HETATM   36  C   UNL     1      44.104 -19.532   3.843  1.00  0.00     0.011 A 
HETATM   37 BR   UNL     1      44.628 -20.649   5.273  1.00  0.00    -0.051 Br
HETATM   38  C   UNL     1      44.011 -18.159   4.033  1.00  0.00     0.021 A 
HETATM   39  C   UNL     1      43.620 -17.340   2.969  1.00  0.00     0.030 A 
ENDBRANCH  31  33
ENDBRANCH  29  31
ENDBRANCH   1  29
TORSDOF 9
ENDMDL
MODEL 5
REMARK VINA RESULT:      -8.8      4.266      8.864
REMARK  9 active torsions:
REMARK  status: ('A' for Active; 'I' for Inactive)
REMARK    1  A    between atoms: C_2  and  N_3 
REMARK    2  A    between atoms: C_2  and  C_11 
REMARK    3  A    between atoms: N_3  and  C_4 
REMARK    4  A    between atoms: N_12  and  C_13 
REMARK    5  A    between atoms: C_19  and  S_20 
REMARK    6  A    between atoms: S_20  and  C_21 
REMARK    7  A    between atoms: C_21  and  C_22 
REMARK       I    between atoms: C_22  and  N_23 
REMARK    8  A    between atoms: N_23  and  C_24 
REMARK    9  A    between atoms: C_26  and  N_27 
REMARK       I    between atoms: N_27  and  C_28 
ROOT
HETATM    1  C   UNL     1      40.898 -11.332   5.803  1.00  0.00     0.158 A 
HETATM    2  N   UNL     1      41.349 -12.425   5.063  1.00  0.00    -0.274 N 
HETATM    3  C   UNL     1      41.433 -11.932   3.771  1.00  0.00     0.196 A 
HETATM    4  N   UNL     1      40.968 -10.703   3.720  1.00  0.00    -0.122 NA
HETATM    5  N   UNL     1      40.626 -10.329   4.984  1.00  0.00    -0.131 NA
ENDROOT
BRANCH   3   6
HETATM    6  S   UNL     1      41.885 -12.843   2.364  1.00  0.00    -0.080 SA
BRANCH   6   7
HETATM    7  C   UNL     1      40.375 -13.804   2.050  1.00  0.00     0.185 C 
BRANCH   7   8
HETATM    8  C   UNL     1      40.674 -15.294   2.101  1.00  0.00     0.231 C 
HETATM    9  N   UNL     1      42.028 -15.579   2.178  1.00  0.00    -0.326 N 
HETATM   10  H   UNL     1      42.659 -14.779   2.125  1.00  0.00     0.169 HD
HETATM   11  O   UNL     1      39.761 -16.115   2.069  1.00  0.00    -0.272 OA
BRANCH   9  12
HETATM   12  C   UNL     1      42.643 -16.848   2.207  1.00  0.00     0.036 A 
HETATM   13  C   UNL     1      42.664 -17.519   3.443  1.00  0.00     0.059 A 
HETATM   14  C   UNL     1      43.259 -18.777   3.575  1.00  0.00     0.036 A 
HETATM   15  C   UNL     1      43.860 -19.350   2.448  1.00  0.00     0.029 A 
HETATM   16  C   UNL     1      43.842 -18.696   1.216  1.00  0.00     0.004 A 
HETATM   17  C   UNL     1      43.230 -17.450   1.095  1.00  0.00     0.029 A 
BRANCH  14  18
HETATM   18  N   UNL     1      43.343 -19.522   4.765  1.00  0.00    -0.327 N 
HETATM   19  C   UNL     1      44.168 -19.492   5.848  1.00  0.00     0.218 C 
HETATM   20  C   UNL     1      45.192 -18.413   6.036  1.00  0.00     0.117 C 
HETATM   21  O   UNL     1      44.034 -20.375   6.702  1.00  0.00    -0.274 OA
HETATM   22  H   UNL     1      42.651 -20.254   4.878  1.00  0.00     0.169 HD
ENDBRANCH  14  18
ENDBRANCH   9  12
ENDBRANCH   7   8
ENDBRANCH   6   7
ENDBRANCH   3   6
BRANCH   2  23
HETATM   23  C   UNL     1      41.623 -13.735   5.534  1.00  0.00     0.043 A 
HETATM   24  C   UNL     1      42.939 -14.096   5.857  1.00  0.00     0.030 A 
HETATM   25  C   UNL     1      43.214 -15.375   6.343  1.00  0.00     0.002 A 
HETATM   26  C   UNL     1      42.181 -16.295   6.513  1.00  0.00     0.000 A 
HETATM   27  C   UNL     1      40.871 -15.939   6.196  1.00  0.00     0.002 A 
HETATM   28  C   UNL     1      40.588 -14.660   5.710  1.00  0.00     0.030 A 
ENDBRANCH   2  23
BRANCH   1  29
HETATM   29  C   UNL     1      40.938 -11.246   7.312  1.00  0.00     0.150 C 
HETATM   30  C   UNL     1      39.516 -11.317   7.889  1.00  0.00     0.040 C 
BRANCH  29  31
HETATM   31  N   UNL     1      41.573  -9.999   7.757  1.00  0.00    -0.379 N 
HETATM   32  H   UNL     1      41.129  -9.183   7.340  1.00  0.00     0.160 HD
BRANCH  31  33
HETATM   33  C   UNL     1      41.955  -9.774   9.078  1.00  0.00     0.028 A 
HETATM   34  C   UNL     1      41.276  -8.921   9.956  1.00  0.00     0.030 A 
HETATM   35  C   UNL     1      41.671  -8.788  11.294  1.00  0.00     0.021 A 
HETATM   36  C   UNL     1      42.738  -9.536  11.779  1.00  0.00     0.011 A 
HETATM   37 BR   UNL     1      43.271  -9.359  13.582  1.00  0.00    -0.051 Br
HETATM   38  C   UNL     1      43.402 -10.425  10.943  1.00  0.00     0.021 A 
HETATM   39  C   UNL     1      43.000 -10.548   9.609  1.00  0.00     0.030 A 
ENDBRANCH  31  33
ENDBRANCH  29  31
ENDBRANCH   1  29
TORSDOF 9
ENDMDL
MODEL 6
REMARK VINA RESULT:      -8.8      1.982      3.585
REMARK  9 active torsions:
REMARK  status: ('A' for Active; 'I' for Inactive)
REMARK    1  A    between atoms: C_2  and  N_3 
REMARK    2  A    between atoms: C_2  and  C_11 
REMARK    3  A    between atoms: N_3  and  C_4 
REMARK    4  A    between atoms: N_12  and  C_13 
REMARK    5  A    between atoms: C_19  and  S_20 
REMARK    6  A    between atoms: S_20  and  C_21 
REMARK    7  A    between atoms: C_21  and  C_22 
REMARK       I    between atoms: C_22  and  N_23 
REMARK    8  A    between atoms: N_23  and  C_24 
REMARK    9  A    between atoms: C_26  and  N_27 
REMARK       I    between atoms: N_27  and  C_28 
ROOT
HETATM    1  C   UNL     1      41.716 -14.698   4.961  1.00  0.00     0.158 A 
HETATM    2  N   UNL     1      41.336 -13.751   4.010  1.00  0.00    -0.274 N 
HETATM    3  C   UNL     1      41.664 -12.543   4.602  1.00  0.00     0.196 A 
HETATM    4  N   UNL     1      42.088 -12.738   5.832  1.00  0.00    -0.122 NA
HETATM    5  N   UNL     1      42.114 -14.080   6.061  1.00  0.00    -0.131 NA
ENDROOT
BRANCH   3   6
HETATM    6  S   UNL     1      41.376 -10.970   3.928  1.00  0.00    -0.080 SA
BRANCH   6   7
HETATM    7  C   UNL     1      39.745 -10.568   4.620  1.00  0.00     0.185 C 
BRANCH   7   8
HETATM    8  C   UNL     1      39.796 -10.581   6.140  1.00  0.00     0.231 C 
HETATM    9  N   UNL     1      40.832  -9.821   6.660  1.00  0.00    -0.326 N 
HETATM   10  H   UNL     1      41.468  -9.405   5.980  1.00  0.00     0.169 HD
HETATM   11  O   UNL     1      38.973 -11.224   6.786  1.00  0.00    -0.272 OA
BRANCH   9  12
HETATM   12  C   UNL     1      41.180  -9.648   8.016  1.00  0.00     0.036 A 
HETATM   13  C   UNL     1      41.869 -10.705   8.637  1.00  0.00     0.059 A 
HETATM   14  C   UNL     1      42.249 -10.632   9.980  1.00  0.00     0.036 A 
HETATM   15  C   UNL     1      41.906  -9.486  10.707  1.00  0.00     0.029 A 
HETATM   16  C   UNL     1      41.227  -8.430  10.101  1.00  0.00     0.004 A 
HETATM   17  C   UNL     1      40.870  -8.508   8.756  1.00  0.00     0.029 A 
BRANCH  14  18
HETATM   18  N   UNL     1      42.927 -11.636  10.695  1.00  0.00    -0.327 N 
HETATM   19  C   UNL     1      44.234 -12.001  10.812  1.00  0.00     0.218 C 
HETATM   20  C   UNL     1      45.342 -11.190  10.211  1.00  0.00     0.117 C 
HETATM   21  O   UNL     1      44.493 -13.022  11.460  1.00  0.00    -0.274 OA
HETATM   22  H   UNL     1      42.346 -12.243  11.263  1.00  0.00     0.169 HD
ENDBRANCH  14  18
ENDBRANCH   9  12
ENDBRANCH   7   8
ENDBRANCH   6   7
ENDBRANCH   3   6
BRANCH   2  23
HETATM   23  C   UNL     1      40.731 -13.987   2.748  1.00  0.00     0.043 A 
HETATM   24  C   UNL     1      39.339 -14.127   2.661  1.00  0.00     0.030 A 
HETATM   25  C   UNL     1      38.733 -14.336   1.420  1.00  0.00     0.002 A 
HETATM   26  C   UNL     1      39.511 -14.403   0.266  1.00  0.00     0.000 A 
HETATM   27  C   UNL     1      40.895 -14.261   0.348  1.00  0.00     0.002 A 
HETATM   28  C   UNL     1      41.508 -14.051   1.586  1.00  0.00     0.030 A 
ENDBRANCH   2  23
BRANCH   1  29
HETATM   29  C   UNL     1      41.860 -16.177   4.686  1.00  0.00     0.150 C 
HETATM   30  C   UNL     1      41.539 -16.991   5.948  1.00  0.00     0.040 C 
BRANCH  29  31
HETATM   31  N   UNL     1      43.220 -16.505   4.238  1.00  0.00    -0.379 N 
HETATM   32  H   UNL     1      43.921 -16.156   4.889  1.00  0.00     0.160 HD
BRANCH  31  33
HETATM   33  C   UNL     1      43.564 -17.746   3.707  1.00  0.00     0.028 A 
HETATM   34  C   UNL     1      44.244 -18.742   4.418  1.00  0.00     0.030 A 
HETATM   35  C   UNL     1      44.501 -19.996   3.849  1.00  0.00     0.021 A 
HETATM   36  C   UNL     1      44.052 -20.280   2.565  1.00  0.00     0.011 A 
HETATM   37 BR   UNL     1      44.398 -21.970   1.796  1.00  0.00    -0.051 Br
HETATM   38  C   UNL     1      43.335 -19.327   1.852  1.00  0.00     0.021 A 
HETATM   39  C   UNL     1      43.085 -18.078   2.429  1.00  0.00     0.030 A 
ENDBRANCH  31  33
ENDBRANCH  29  31
ENDBRANCH   1  29
TORSDOF 9
ENDMDL
MODEL 7
REMARK VINA RESULT:      -8.8      5.328      8.720
REMARK  9 active torsions:
REMARK  status: ('A' for Active; 'I' for Inactive)
REMARK    1  A    between atoms: C_2  and  N_3 
REMARK    2  A    between atoms: C_2  and  C_11 
REMARK    3  A    between atoms: N_3  and  C_4 
REMARK    4  A    between atoms: N_12  and  C_13 
REMARK    5  A    between atoms: C_19  and  S_20 
REMARK    6  A    between atoms: S_20  and  C_21 
REMARK    7  A    between atoms: C_21  and  C_22 
REMARK       I    between atoms: C_22  and  N_23 
REMARK    8  A    between atoms: N_23  and  C_24 
REMARK    9  A    between atoms: C_26  and  N_27 
REMARK       I    between atoms: N_27  and  C_28 
ROOT
HETATM    1  C   UNL     1      40.940 -15.012  -0.585  1.00  0.00     0.158 A 
HETATM    2  N   UNL     1      40.293 -14.297   0.423  1.00  0.00    -0.274 N 
HETATM    3  C   UNL     1      40.821 -14.825   1.589  1.00  0.00     0.196 A 
HETATM    4  N   UNL     1      41.618 -15.834   1.313  1.00  0.00    -0.122 NA
HETATM    5  N   UNL     1      41.688 -15.958  -0.042  1.00  0.00    -0.131 NA
ENDROOT
BRANCH   3   6
HETATM    6  S   UNL     1      40.364 -14.382   3.204  1.00  0.00    -0.080 SA
BRANCH   6   7
HETATM    7  C   UNL     1      41.751 -13.317   3.697  1.00  0.00     0.185 C 
BRANCH   7   8
HETATM    8  C   UNL     1      42.924 -14.161   4.172  1.00  0.00     0.231 C 
HETATM    9  N   UNL     1      42.559 -15.443   4.554  1.00  0.00    -0.326 N 
HETATM   10  H   UNL     1      41.559 -15.648   4.538  1.00  0.00     0.169 HD
HETATM   11  O   UNL     1      44.059 -13.693   4.194  1.00  0.00    -0.272 OA
BRANCH   9  12
HETATM   12  C   UNL     1      43.389 -16.459   5.069  1.00  0.00     0.036 A 
HETATM   13  C   UNL     1      43.608 -17.581   4.249  1.00  0.00     0.059 A 
HETATM   14  C   UNL     1      44.407 -18.645   4.675  1.00  0.00     0.036 A 
HETATM   15  C   UNL     1      44.971 -18.583   5.955  1.00  0.00     0.029 A 
HETATM   16  C   UNL     1      44.765 -17.474   6.775  1.00  0.00     0.004 A 
HETATM   17  C   UNL     1      43.980 -16.412   6.331  1.00  0.00     0.029 A 
BRANCH  14  18
HETATM   18  N   UNL     1      44.676 -19.813   3.939  1.00  0.00    -0.327 N 
HETATM   19  C   UNL     1      44.158 -20.362   2.806  1.00  0.00     0.218 C 
HETATM   20  C   UNL     1      43.155 -19.638   1.959  1.00  0.00     0.117 C 
HETATM   21  O   UNL     1      44.560 -21.481   2.469  1.00  0.00    -0.274 OA
HETATM   22  H   UNL     1      45.417 -20.403   4.302  1.00  0.00     0.169 HD
ENDBRANCH  14  18
ENDBRANCH   9  12
ENDBRANCH   7   8
ENDBRANCH   6   7
ENDBRANCH   3   6
BRANCH   2  23
HETATM   23  C   UNL     1      39.305 -13.290   0.271  1.00  0.00     0.043 A 
HETATM   24  C   UNL     1      37.953 -13.607   0.464  1.00  0.00     0.030 A 
HETATM   25  C   UNL     1      36.977 -12.616   0.340  1.00  0.00     0.002 A 
HETATM   26  C   UNL     1      37.345 -11.310   0.027  1.00  0.00     0.000 A 
HETATM   27  C   UNL     1      38.688 -10.989  -0.163  1.00  0.00     0.002 A 
HETATM   28  C   UNL     1      39.670 -11.975  -0.039  1.00  0.00     0.030 A 
ENDBRANCH   2  23
BRANCH   1  29
HETATM   29  C   UNL     1      40.955 -14.611  -2.043  1.00  0.00     0.150 C 
HETATM   30  C   UNL     1      40.684 -15.831  -2.936  1.00  0.00     0.040 C 
BRANCH  29  31
HETATM   31  N   UNL     1      42.246 -14.020  -2.420  1.00  0.00    -0.379 N 
HETATM   32  H   UNL     1      42.675 -14.524  -3.193  1.00  0.00     0.160 HD
BRANCH  31  33
HETATM   33  C   UNL     1      42.452 -12.645  -2.506  1.00  0.00     0.028 A 
HETATM   34  C   UNL     1      42.068 -11.862  -3.601  1.00  0.00     0.030 A 
HETATM   35  C   UNL     1      42.243 -10.472  -3.599  1.00  0.00     0.021 A 
HETATM   36  C   UNL     1      42.779  -9.842  -2.481  1.00  0.00     0.011 A 
HETATM   37 BR   UNL     1      43.015  -7.968  -2.476  1.00  0.00    -0.051 Br
HETATM   38  C   UNL     1      43.127 -10.588  -1.362  1.00  0.00     0.021 A 
HETATM   39  C   UNL     1      42.949 -11.976  -1.376  1.00  0.00     0.030 A 
ENDBRANCH  31  33
ENDBRANCH  29  31
ENDBRANCH   1  29
TORSDOF 9
ENDMDL
MODEL 8
REMARK VINA RESULT:      -8.7      4.821      9.106
REMARK  9 active torsions:
REMARK  status: ('A' for Active; 'I' for Inactive)
REMARK    1  A    between atoms: C_2  and  N_3 
REMARK    2  A    between atoms: C_2  and  C_11 
REMARK    3  A    between atoms: N_3  and  C_4 
REMARK    4  A    between atoms: N_12  and  C_13 
REMARK    5  A    between atoms: C_19  and  S_20 
REMARK    6  A    between atoms: S_20  and  C_21 
REMARK    7  A    between atoms: C_21  and  C_22 
REMARK       I    between atoms: C_22  and  N_23 
REMARK    8  A    between atoms: N_23  and  C_24 
REMARK    9  A    between atoms: C_26  and  N_27 
REMARK       I    between atoms: N_27  and  C_28 
ROOT
HETATM    1  C   UNL     1      41.802 -15.325   5.342  1.00  0.00     0.158 A 
HETATM    2  N   UNL     1      41.672 -14.782   4.063  1.00  0.00    -0.274 N 
HETATM    3  C   UNL     1      41.637 -13.416   4.290  1.00  0.00     0.196 A 
HETATM    4  N   UNL     1      41.630 -13.169   5.582  1.00  0.00    -0.122 NA
HETATM    5  N   UNL     1      41.724 -14.358   6.240  1.00  0.00    -0.131 NA
ENDROOT
BRANCH   3   6
HETATM    6  S   UNL     1      41.427 -12.191   3.079  1.00  0.00    -0.080 SA
BRANCH   6   7
HETATM    7  C   UNL     1      39.687 -12.432   2.613  1.00  0.00     0.185 C 
BRANCH   7   8
HETATM    8  C   UNL     1      39.529 -12.366   1.102  1.00  0.00     0.231 C 
HETATM    9  N   UNL     1      40.039 -13.476   0.448  1.00  0.00    -0.326 N 
HETATM   10  H   UNL     1      40.513 -14.164   1.035  1.00  0.00     0.169 HD
HETATM   11  O   UNL     1      38.995 -11.394   0.573  1.00  0.00    -0.272 OA
BRANCH   9  12
HETATM   12  C   UNL     1      40.084 -13.716  -0.941  1.00  0.00     0.036 A 
HETATM   13  C   UNL     1      38.876 -14.074  -1.566  1.00  0.00     0.059 A 
HETATM   14  C   UNL     1      38.820 -14.340  -2.936  1.00  0.00     0.036 A 
HETATM   15  C   UNL     1      40.006 -14.266  -3.677  1.00  0.00     0.029 A 
HETATM   16  C   UNL     1      41.209 -13.908  -3.070  1.00  0.00     0.004 A 
HETATM   17  C   UNL     1      41.246 -13.627  -1.705  1.00  0.00     0.029 A 
BRANCH  14  18
HETATM   18  N   UNL     1      37.669 -14.717  -3.651  1.00  0.00    -0.327 N 
HETATM   19  C   UNL     1      36.639 -14.033  -4.222  1.00  0.00     0.218 C 
HETATM   20  C   UNL     1      36.630 -12.536  -4.308  1.00  0.00     0.117 C 
HETATM   21  O   UNL     1      35.706 -14.687  -4.701  1.00  0.00    -0.274 OA
HETATM   22  H   UNL     1      37.544 -15.713  -3.795  1.00  0.00     0.169 HD
ENDBRANCH  14  18
ENDBRANCH   9  12
ENDBRANCH   7   8
ENDBRANCH   6   7
ENDBRANCH   3   6
BRANCH   2  23
HETATM   23  C   UNL     1      41.570 -15.482   2.833  1.00  0.00     0.043 A 
HETATM   24  C   UNL     1      42.608 -15.393   1.894  1.00  0.00     0.030 A 
HETATM   25  C   UNL     1      42.525 -16.096   0.691  1.00  0.00     0.002 A 
HETATM   26  C   UNL     1      41.413 -16.891   0.422  1.00  0.00     0.000 A 
HETATM   27  C   UNL     1      40.381 -16.985   1.353  1.00  0.00     0.002 A 
HETATM   28  C   UNL     1      40.456 -16.285   2.560  1.00  0.00     0.030 A 
ENDBRANCH   2  23
BRANCH   1  29
HETATM   29  C   UNL     1      42.197 -16.756   5.627  1.00  0.00     0.150 C 
HETATM   30  C   UNL     1      42.128 -17.040   7.135  1.00  0.00     0.040 C 
BRANCH  29  31
HETATM   31  N   UNL     1      43.556 -17.039   5.147  1.00  0.00    -0.379 N 
HETATM   32  H   UNL     1      44.257 -16.772   5.836  1.00  0.00     0.160 HD
BRANCH  31  33
HETATM   33  C   UNL     1      43.894 -18.213   4.477  1.00  0.00     0.028 A 
HETATM   34  C   UNL     1      44.713 -19.213   5.014  1.00  0.00     0.030 A 
HETATM   35  C   UNL     1      44.961 -20.403   4.316  1.00  0.00     0.021 A 
HETATM   36  C   UNL     1      44.364 -20.619   3.079  1.00  0.00     0.011 A 
HETATM   37 BR   UNL     1      44.698 -22.221   2.137  1.00  0.00    -0.051 Br
HETATM   38  C   UNL     1      43.511 -19.663   2.543  1.00  0.00     0.021 A 
HETATM   39  C   UNL     1      43.271 -18.479   3.248  1.00  0.00     0.030 A 
ENDBRANCH  31  33
ENDBRANCH  29  31
ENDBRANCH   1  29
TORSDOF 9
ENDMDL
MODEL 9
REMARK VINA RESULT:      -8.5      4.753      9.479
REMARK  9 active torsions:
REMARK  status: ('A' for Active; 'I' for Inactive)
REMARK    1  A    between atoms: C_2  and  N_3 
REMARK    2  A    between atoms: C_2  and  C_11 
REMARK    3  A    between atoms: N_3  and  C_4 
REMARK    4  A    between atoms: N_12  and  C_13 
REMARK    5  A    between atoms: C_19  and  S_20 
REMARK    6  A    between atoms: S_20  and  C_21 
REMARK    7  A    between atoms: C_21  and  C_22 
REMARK       I    between atoms: C_22  and  N_23 
REMARK    8  A    between atoms: N_23  and  C_24 
REMARK    9  A    between atoms: C_26  and  N_27 
REMARK       I    between atoms: N_27  and  C_28 
ROOT
HETATM    1  C   UNL     1      43.363 -13.534   5.154  1.00  0.00     0.158 A 
HETATM    2  N   UNL     1      42.176 -12.857   4.874  1.00  0.00    -0.274 N 
HETATM    3  C   UNL     1      42.111 -12.871   3.490  1.00  0.00     0.196 A 
HETATM    4  N   UNL     1      43.205 -13.400   2.988  1.00  0.00    -0.122 NA
HETATM    5  N   UNL     1      43.991 -13.806   4.023  1.00  0.00    -0.131 NA
ENDROOT
BRANCH   3   6
HETATM    6  S   UNL     1      40.878 -12.124   2.524  1.00  0.00    -0.080 SA
BRANCH   6   7
HETATM    7  C   UNL     1      39.594 -13.410   2.512  1.00  0.00     0.185 C 
BRANCH   7   8
HETATM    8  C   UNL     1      39.770 -14.324   1.308  1.00  0.00     0.231 C 
HETATM    9  N   UNL     1      39.605 -13.672   0.096  1.00  0.00    -0.326 N 
HETATM   10  H   UNL     1      39.323 -12.692   0.148  1.00  0.00     0.169 HD
HETATM   11  O   UNL     1      40.030 -15.514   1.462  1.00  0.00    -0.272 OA
BRANCH   9  12
HETATM   12  C   UNL     1      39.666 -14.228  -1.199  1.00  0.00     0.036 A 
HETATM   13  C   UNL     1      38.460 -14.302  -1.918  1.00  0.00     0.059 A 
HETATM   14  C   UNL     1      38.416 -14.845  -3.205  1.00  0.00     0.036 A 
HETATM   15  C   UNL     1      39.604 -15.339  -3.759  1.00  0.00     0.029 A 
HETATM   16  C   UNL     1      40.806 -15.266  -3.057  1.00  0.00     0.004 A 
HETATM   17  C   UNL     1      40.838 -14.706  -1.782  1.00  0.00     0.029 A 
BRANCH  14  18
HETATM   18  N   UNL     1      37.263 -14.977  -3.999  1.00  0.00    -0.327 N 
HETATM   19  C   UNL     1      36.354 -14.100  -4.507  1.00  0.00     0.218 C 
HETATM   20  C   UNL     1      36.534 -12.616  -4.395  1.00  0.00     0.117 C 
HETATM   21  O   UNL     1      35.372 -14.562  -5.098  1.00  0.00    -0.274 OA
HETATM   22  H   UNL     1      37.024 -15.923  -4.277  1.00  0.00     0.169 HD
ENDBRANCH  14  18
ENDBRANCH   9  12
ENDBRANCH   7   8
ENDBRANCH   6   7
ENDBRANCH   3   6
BRANCH   2  23
HETATM   23  C   UNL     1      41.275 -12.272   5.800  1.00  0.00     0.043 A 
HETATM   24  C   UNL     1      41.529 -10.987   6.301  1.00  0.00     0.030 A 
HETATM   25  C   UNL     1      40.635 -10.395   7.195  1.00  0.00     0.002 A 
HETATM   26  C   UNL     1      39.486 -11.078   7.588  1.00  0.00     0.000 A 
HETATM   27  C   UNL     1      39.227 -12.354   7.090  1.00  0.00     0.002 A 
HETATM   28  C   UNL     1      40.117 -12.952   6.195  1.00  0.00     0.030 A 
ENDBRANCH   2  23
BRANCH   1  29
HETATM   29  C   UNL     1      43.743 -14.065   6.518  1.00  0.00     0.150 C 
HETATM   30  C   UNL     1      45.271 -14.161   6.649  1.00  0.00     0.040 C 
BRANCH  29  31
HETATM   31  N   UNL     1      43.158 -15.392   6.754  1.00  0.00    -0.379 N 
HETATM   32  H   UNL     1      42.141 -15.350   6.789  1.00  0.00     0.160 HD
BRANCH  31  33
HETATM   33  C   UNL     1      43.619 -16.545   6.124  1.00  0.00     0.028 A 
HETATM   34  C   UNL     1      44.669 -17.336   6.606  1.00  0.00     0.030 A 
HETATM   35  C   UNL     1      45.042 -18.523   5.961  1.00  0.00     0.021 A 
HETATM   36  C   UNL     1      44.342 -18.952   4.839  1.00  0.00     0.011 A 
HETATM   37 BR   UNL     1      44.843 -20.552   3.969  1.00  0.00    -0.051 Br
HETATM   38  C   UNL     1      43.266 -18.211   4.365  1.00  0.00     0.021 A 
HETATM   39  C   UNL     1      42.904 -17.027   5.015  1.00  0.00     0.030 A 
ENDBRANCH  31  33
ENDBRANCH  29  31
ENDBRANCH   1  29
TORSDOF 9
ENDMDL
MODEL 10
REMARK VINA RESULT:      -8.4      4.708      8.866
REMARK  9 active torsions:
REMARK  status: ('A' for Active; 'I' for Inactive)
REMARK    1  A    between atoms: C_2  and  N_3 
REMARK    2  A    between atoms: C_2  and  C_11 
REMARK    3  A    between atoms: N_3  and  C_4 
REMARK    4  A    between atoms: N_12  and  C_13 
REMARK    5  A    between atoms: C_19  and  S_20 
REMARK    6  A    between atoms: S_20  and  C_21 
REMARK    7  A    between atoms: C_21  and  C_22 
REMARK       I    between atoms: C_22  and  N_23 
REMARK    8  A    between atoms: N_23  and  C_24 
REMARK    9  A    between atoms: C_26  and  N_27 
REMARK       I    between atoms: N_27  and  C_28 
ROOT
HETATM    1  C   UNL     1      41.084 -15.377   5.224  1.00  0.00     0.158 A 
HETATM    2  N   UNL     1      40.822 -14.911   3.936  1.00  0.00    -0.274 N 
HETATM    3  C   UNL     1      40.310 -13.641   4.146  1.00  0.00     0.196 A 
HETATM    4  N   UNL     1      40.170 -13.413   5.434  1.00  0.00    -0.122 NA
HETATM    5  N   UNL     1      40.644 -14.498   6.108  1.00  0.00    -0.131 NA
ENDROOT
BRANCH   3   6
HETATM    6  S   UNL     1      39.735 -12.561   2.915  1.00  0.00    -0.080 SA
BRANCH   6   7
HETATM    7  C   UNL     1      41.246 -11.643   2.499  1.00  0.00     0.185 C 
BRANCH   7   8
HETATM    8  C   UNL     1      41.507 -11.700   1.001  1.00  0.00     0.231 C 
HETATM    9  N   UNL     1      40.353 -11.600   0.240  1.00  0.00    -0.326 N 
HETATM   10  H   UNL     1      39.475 -11.568   0.758  1.00  0.00     0.169 HD
HETATM   11  O   UNL     1      42.651 -11.828   0.572  1.00  0.00    -0.272 OA
BRANCH   9  12
HETATM   12  C   UNL     1      40.238 -11.652  -1.165  1.00  0.00     0.036 A 
HETATM   13  C   UNL     1      39.632 -12.797  -1.713  1.00  0.00     0.059 A 
HETATM   14  C   UNL     1      39.481 -12.946  -3.094  1.00  0.00     0.036 A 
HETATM   15  C   UNL     1      39.971 -11.935  -3.930  1.00  0.00     0.029 A 
HETATM   16  C   UNL     1      40.570 -10.793  -3.398  1.00  0.00     0.004 A 
HETATM   17  C   UNL     1      40.698 -10.650  -2.018  1.00  0.00     0.029 A 
BRANCH  14  18
HETATM   18  N   UNL     1      38.902 -14.053  -3.740  1.00  0.00    -0.327 N 
HETATM   19  C   UNL     1      39.256 -15.360  -3.885  1.00  0.00     0.218 C 
HETATM   20  C   UNL     1      40.430 -15.949  -3.162  1.00  0.00     0.117 C 
HETATM   21  O   UNL     1      38.560 -16.069  -4.619  1.00  0.00    -0.274 OA
HETATM   22  H   UNL     1      38.022 -13.879  -4.213  1.00  0.00     0.169 HD
ENDBRANCH  14  18
ENDBRANCH   9  12
ENDBRANCH   7   8
ENDBRANCH   6   7
ENDBRANCH   3   6
BRANCH   2  23
HETATM   23  C   UNL     1      41.013 -15.600   2.710  1.00  0.00     0.043 A 
HETATM   24  C   UNL     1      40.291 -16.774   2.453  1.00  0.00     0.030 A 
HETATM   25  C   UNL     1      40.457 -17.445   1.240  1.00  0.00     0.002 A 
HETATM   26  C   UNL     1      41.337 -16.949   0.281  1.00  0.00     0.000 A 
HETATM   27  C   UNL     1      42.054 -15.780   0.532  1.00  0.00     0.002 A 
HETATM   28  C   UNL     1      41.894 -15.102   1.743  1.00  0.00     0.030 A 
ENDBRANCH   2  23
BRANCH   1  29
HETATM   29  C   UNL     1      41.937 -16.585   5.539  1.00  0.00     0.150 C 
HETATM   30  C   UNL     1      42.435 -16.525   6.991  1.00  0.00     0.040 C 
BRANCH  29  31
HETATM   31  N   UNL     1      43.095 -16.668   4.639  1.00  0.00    -0.379 N 
HETATM   32  H   UNL     1      43.846 -16.050   4.939  1.00  0.00     0.160 HD
BRANCH  31  33
HETATM   33  C   UNL     1      43.574 -17.874   4.131  1.00  0.00     0.028 A 
HETATM   34  C   UNL     1      43.808 -19.014   4.909  1.00  0.00     0.030 A 
HETATM   35  C   UNL     1      44.227 -20.218   4.328  1.00  0.00     0.021 A 
HETATM   36  C   UNL     1      44.387 -20.304   2.949  1.00  0.00     0.011 A 
HETATM   37 BR   UNL     1      44.951 -21.927   2.164  1.00  0.00    -0.051 Br
HETATM   38  C   UNL     1      44.118 -19.202   2.148  1.00  0.00     0.021 A 
HETATM   39  C   UNL     1      43.702 -18.004   2.739  1.00  0.00     0.030 A 
ENDBRANCH  31  33
ENDBRANCH  29  31
ENDBRANCH   1  29
TORSDOF 9
ENDMDL
