MODEL 1
REMARK VINA RESULT:      -8.9      0.000      0.000
REMARK  6 active torsions:
REMARK  status: ('A' for Active; 'I' for Inactive)
REMARK    1  A    between atoms: O_2  and  C_3 
REMARK    2  A    between atoms: C_4  and  C_5 
REMARK    3  A    between atoms: C_6  and  C_7 
REMARK       I    between atoms: C_7  and  N_8 
REMARK    4  A    between atoms: N_8  and  C_9 
REMARK    5  A    between atoms: C_9  and  C_10 
REMARK       I    between atoms: C_10  and  N_11 
REMARK    6  A    between atoms: N_11  and  N_12 
ROOT
HETATM    1  C   UNL     1      39.969 -14.008   3.880  1.00  0.00     0.255 C 
HETATM    2  N   UNL     1      39.468 -14.762   2.832  1.00  0.00    -0.245 N 
HETATM    3  O   UNL     1      40.362 -12.846   3.782  1.00  0.00    -0.270 OA
HETATM    4  H   UNL     1      39.177 -15.727   2.999  1.00  0.00     0.192 HD
ENDROOT
BRANCH   1   5
HETATM    5  C   UNL     1      40.179 -14.806   5.169  1.00  0.00     0.227 C 
BRANCH   5   6
HETATM    6  N   UNL     1      40.618 -16.186   4.998  1.00  0.00    -0.349 N 
HETATM    7  C   UNL     1      41.933 -16.527   5.203  1.00  0.00     0.241 C 
HETATM    8  O   UNL     1      42.768 -15.764   5.669  1.00  0.00    -0.269 OA
HETATM    9  H   UNL     1      39.990 -16.839   4.547  1.00  0.00     0.163 HD
BRANCH   7  10
HETATM   10  C   UNL     1      42.256 -17.900   4.750  1.00  0.00     0.075 C 
HETATM   11  C   UNL     1      43.419 -18.127   4.121  1.00  0.00     0.020 C 
BRANCH  11  12
HETATM   12  C   UNL     1      43.781 -19.456   3.615  1.00  0.00    -0.003 A 
HETATM   13  C   UNL     1      44.385 -20.431   4.431  1.00  0.00     0.078 A 
HETATM   14  C   UNL     1      44.720 -21.673   3.880  1.00  0.00     0.037 A 
HETATM   15  C   UNL     1      44.436 -21.953   2.539  1.00  0.00     0.003 A 
HETATM   16  C   UNL     1      43.822 -20.994   1.738  1.00  0.00     0.001 A 
HETATM   17  C   UNL     1      43.499 -19.748   2.272  1.00  0.00     0.014 A 
BRANCH  13  18
HETATM   18  O   UNL     1      44.631 -20.071   5.732  1.00  0.00    -0.355 OA
HETATM   19  C   UNL     1      43.866 -20.719   6.739  1.00  0.00     0.210 C 
ENDBRANCH  13  18
ENDBRANCH  11  12
ENDBRANCH   7  10
ENDBRANCH   5   6
ENDBRANCH   1   5
BRANCH   2  20
HETATM   20  N   UNL     1      39.347 -14.214   1.589  1.00  0.00    -0.166 NA
HETATM   21  C   UNL     1      40.037 -14.755   0.640  1.00  0.00     0.157 A 
HETATM   22  C   UNL     1      41.026 -15.921   0.718  1.00  0.00     0.277 A 
HETATM   23  C   UNL     1      40.041 -14.318  -0.750  1.00  0.00     0.028 A 
HETATM   24  O   UNL     1      41.288 -16.545   1.726  1.00  0.00    -0.266 OA
HETATM   25  N   UNL     1      41.526 -16.067  -0.559  1.00  0.00    -0.321 N 
HETATM   26  C   UNL     1      40.954 -15.132  -1.420  1.00  0.00     0.048 A 
HETATM   27  H   UNL     1      42.213 -16.761  -0.813  1.00  0.00     0.169 HD
HETATM   28  C   UNL     1      41.205 -14.965  -2.766  1.00  0.00     0.032 A 
HETATM   29  C   UNL     1      40.503 -13.949  -3.429  1.00  0.00     0.021 A 
HETATM   30  C   UNL     1      39.580 -13.135  -2.738  1.00  0.00     0.012 A 
HETATM   31 BR   UNL     1      38.657 -11.779  -3.680  1.00  0.00    -0.051 Br
HETATM   32  C   UNL     1      39.337 -13.310  -1.376  1.00  0.00     0.035 A 
ENDBRANCH   2  20
TORSDOF 6
ENDMDL
MODEL 2
REMARK VINA RESULT:      -8.8      1.953      2.395
REMARK  6 active torsions:
REMARK  status: ('A' for Active; 'I' for Inactive)
REMARK    1  A    between atoms: O_2  and  C_3 
REMARK    2  A    between atoms: C_4  and  C_5 
REMARK    3  A    between atoms: C_6  and  C_7 
REMARK       I    between atoms: C_7  and  N_8 
REMARK    4  A    between atoms: N_8  and  C_9 
REMARK    5  A    between atoms: C_9  and  C_10 
REMARK       I    between atoms: C_10  and  N_11 
REMARK    6  A    between atoms: N_11  and  N_12 
ROOT
HETATM    1  C   UNL     1      42.922 -13.893   3.815  1.00  0.00     0.255 C 
HETATM    2  N   UNL     1      41.790 -13.893   3.017  1.00  0.00    -0.245 N 
HETATM    3  O   UNL     1      44.049 -13.580   3.431  1.00  0.00    -0.270 OA
HETATM    4  H   UNL     1      40.894 -14.183   3.413  1.00  0.00     0.192 HD
ENDROOT
BRANCH   1   5
HETATM    5  C   UNL     1      42.701 -14.505   5.199  1.00  0.00     0.227 C 
BRANCH   5   6
HETATM    6  N   UNL     1      42.734 -15.962   5.263  1.00  0.00    -0.349 N 
HETATM    7  C   UNL     1      43.591 -16.599   6.127  1.00  0.00     0.241 C 
HETATM    8  O   UNL     1      44.254 -16.022   6.977  1.00  0.00    -0.269 OA
HETATM    9  H   UNL     1      42.263 -16.486   4.538  1.00  0.00     0.163 HD
BRANCH   7  10
HETATM   10  C   UNL     1      43.676 -18.059   5.890  1.00  0.00     0.075 C 
HETATM   11  C   UNL     1      44.376 -18.515   4.841  1.00  0.00     0.020 C 
BRANCH  11  12
HETATM   12  C   UNL     1      44.467 -19.947   4.531  1.00  0.00    -0.003 A 
HETATM   13  C   UNL     1      44.445 -20.431   3.209  1.00  0.00     0.078 A 
HETATM   14  C   UNL     1      44.518 -21.811   2.986  1.00  0.00     0.037 A 
HETATM   15  C   UNL     1      44.635 -22.698   4.061  1.00  0.00     0.003 A 
HETATM   16  C   UNL     1      44.674 -22.216   5.365  1.00  0.00     0.001 A 
HETATM   17  C   UNL     1      44.586 -20.845   5.601  1.00  0.00     0.014 A 
BRANCH  13  18
HETATM   18  O   UNL     1      44.324 -19.491   2.217  1.00  0.00    -0.355 OA
HETATM   19  C   UNL     1      43.009 -19.162   1.794  1.00  0.00     0.210 C 
ENDBRANCH  13  18
ENDBRANCH  11  12
ENDBRANCH   7  10
ENDBRANCH   5   6
ENDBRANCH   1   5
BRANCH   2  20
HETATM   20  N   UNL     1      41.868 -13.493   1.715  1.00  0.00    -0.166 NA
HETATM   21  C   UNL     1      41.506 -14.348   0.816  1.00  0.00     0.157 A 
HETATM   22  C   UNL     1      41.033 -15.792   1.001  1.00  0.00     0.277 A 
HETATM   23  C   UNL     1      41.513 -14.109  -0.621  1.00  0.00     0.028 A 
HETATM   24  O   UNL     1      40.900 -16.350   2.072  1.00  0.00    -0.266 OA
HETATM   25  N   UNL     1      40.825 -16.278  -0.273  1.00  0.00    -0.321 N 
HETATM   26  C   UNL     1      41.105 -15.299  -1.224  1.00  0.00     0.048 A 
HETATM   27  H   UNL     1      40.514 -17.218  -0.466  1.00  0.00     0.169 HD
HETATM   28  C   UNL     1      41.019 -15.411  -2.596  1.00  0.00     0.032 A 
HETATM   29  C   UNL     1      41.354 -14.281  -3.355  1.00  0.00     0.021 A 
HETATM   30  C   UNL     1      41.763 -13.084  -2.730  1.00  0.00     0.012 A 
HETATM   31 BR   UNL     1      42.203 -11.587  -3.801  1.00  0.00    -0.051 Br
HETATM   32  C   UNL     1      41.851 -12.983  -1.342  1.00  0.00     0.035 A 
ENDBRANCH   2  20
TORSDOF 6
ENDMDL
MODEL 3
REMARK VINA RESULT:      -8.7      2.817      3.794
REMARK  6 active torsions:
REMARK  status: ('A' for Active; 'I' for Inactive)
REMARK    1  A    between atoms: O_2  and  C_3 
REMARK    2  A    between atoms: C_4  and  C_5 
REMARK    3  A    between atoms: C_6  and  C_7 
REMARK       I    between atoms: C_7  and  N_8 
REMARK    4  A    between atoms: N_8  and  C_9 
REMARK    5  A    between atoms: C_9  and  C_10 
REMARK       I    between atoms: C_10  and  N_11 
REMARK    6  A    between atoms: N_11  and  N_12 
ROOT
HETATM    1  C   UNL     1      43.263 -14.126   6.032  1.00  0.00     0.255 C 
HETATM    2  N   UNL     1      41.893 -14.331   6.059  1.00  0.00    -0.245 N 
HETATM    3  O   UNL     1      43.835 -13.307   5.313  1.00  0.00    -0.270 OA
HETATM    4  H   UNL     1      41.502 -15.044   6.676  1.00  0.00     0.192 HD
ENDROOT
BRANCH   1   5
HETATM    5  C   UNL     1      44.056 -15.150   6.847  1.00  0.00     0.227 C 
BRANCH   5   6
HETATM    6  N   UNL     1      43.979 -16.530   6.383  1.00  0.00    -0.349 N 
HETATM    7  C   UNL     1      43.980 -17.567   7.285  1.00  0.00     0.241 C 
HETATM    8  O   UNL     1      43.897 -17.415   8.495  1.00  0.00    -0.269 OA
HETATM    9  H   UNL     1      44.117 -16.716   5.398  1.00  0.00     0.163 HD
BRANCH   7  10
HETATM   10  C   UNL     1      44.148 -18.893   6.647  1.00  0.00     0.075 C 
HETATM   11  C   UNL     1      44.324 -18.966   5.319  1.00  0.00     0.020 C 
BRANCH  11  12
HETATM   12  C   UNL     1      44.458 -20.251   4.623  1.00  0.00    -0.003 A 
HETATM   13  C   UNL     1      44.387 -20.355   3.221  1.00  0.00     0.078 A 
HETATM   14  C   UNL     1      44.506 -21.615   2.622  1.00  0.00     0.037 A 
HETATM   15  C   UNL     1      44.716 -22.755   3.405  1.00  0.00     0.003 A 
HETATM   16  C   UNL     1      44.803 -22.647   4.790  1.00  0.00     0.001 A 
HETATM   17  C   UNL     1      44.670 -21.400   5.398  1.00  0.00     0.014 A 
BRANCH  13  18
HETATM   18  O   UNL     1      44.176 -19.188   2.531  1.00  0.00    -0.355 OA
HETATM   19  C   UNL     1      42.868 -18.962   2.026  1.00  0.00     0.210 C 
ENDBRANCH  13  18
ENDBRANCH  11  12
ENDBRANCH   7  10
ENDBRANCH   5   6
ENDBRANCH   1   5
BRANCH   2  20
HETATM   20  N   UNL     1      41.071 -13.572   5.279  1.00  0.00    -0.166 NA
HETATM   21  C   UNL     1      40.528 -14.154   4.260  1.00  0.00     0.157 A 
HETATM   22  C   UNL     1      40.712 -15.591   3.766  1.00  0.00     0.277 A 
HETATM   23  C   UNL     1      39.622 -13.517   3.314  1.00  0.00     0.028 A 
HETATM   24  O   UNL     1      41.404 -16.430   4.306  1.00  0.00    -0.266 OA
HETATM   25  N   UNL     1      39.954 -15.686   2.617  1.00  0.00    -0.321 N 
HETATM   26  C   UNL     1      39.317 -14.476   2.349  1.00  0.00     0.048 A 
HETATM   27  H   UNL     1      39.888 -16.525   2.062  1.00  0.00     0.169 HD
HETATM   28  C   UNL     1      38.483 -14.183   1.290  1.00  0.00     0.032 A 
HETATM   29  C   UNL     1      37.954 -12.886   1.229  1.00  0.00     0.021 A 
HETATM   30  C   UNL     1      38.270 -11.927   2.215  1.00  0.00     0.012 A 
HETATM   31 BR   UNL     1      37.528 -10.192   2.087  1.00  0.00    -0.051 Br
HETATM   32  C   UNL     1      39.118 -12.233   3.279  1.00  0.00     0.035 A 
ENDBRANCH   2  20
TORSDOF 6
ENDMDL
MODEL 4
REMARK VINA RESULT:      -8.5      5.082      8.792
REMARK  6 active torsions:
REMARK  status: ('A' for Active; 'I' for Inactive)
REMARK    1  A    between atoms: O_2  and  C_3 
REMARK    2  A    between atoms: C_4  and  C_5 
REMARK    3  A    between atoms: C_6  and  C_7 
REMARK       I    between atoms: C_7  and  N_8 
REMARK    4  A    between atoms: N_8  and  C_9 
REMARK    5  A    between atoms: C_9  and  C_10 
REMARK       I    between atoms: C_10  and  N_11 
REMARK    6  A    between atoms: N_11  and  N_12 
ROOT
HETATM    1  C   UNL     1      42.249 -13.433   3.483  1.00  0.00     0.255 C 
HETATM    2  N   UNL     1      41.746 -14.571   4.092  1.00  0.00    -0.245 N 
HETATM    3  O   UNL     1      43.103 -13.433   2.596  1.00  0.00    -0.270 OA
HETATM    4  H   UNL     1      41.049 -14.480   4.832  1.00  0.00     0.192 HD
ENDROOT
BRANCH   1   5
HETATM    5  C   UNL     1      41.792 -12.129   4.139  1.00  0.00     0.227 C 
BRANCH   5   6
HETATM    6  N   UNL     1      41.782 -12.119   5.597  1.00  0.00    -0.349 N 
HETATM    7  C   UNL     1      40.912 -11.305   6.280  1.00  0.00     0.241 C 
HETATM    8  O   UNL     1      40.016 -10.666   5.745  1.00  0.00    -0.269 OA
HETATM    9  H   UNL     1      42.544 -12.570   6.087  1.00  0.00     0.163 HD
BRANCH   7  10
HETATM   10  C   UNL     1      41.200 -11.232   7.731  1.00  0.00     0.075 C 
HETATM   11  C   UNL     1      42.349 -10.676   8.145  1.00  0.00     0.020 C 
BRANCH  11  12
HETATM   12  C   UNL     1      42.710 -10.608   9.566  1.00  0.00    -0.003 A 
HETATM   13  C   UNL     1      44.043 -10.707  10.007  1.00  0.00     0.078 A 
HETATM   14  C   UNL     1      44.315 -10.652  11.379  1.00  0.00     0.037 A 
HETATM   15  C   UNL     1      43.278 -10.476  12.301  1.00  0.00     0.003 A 
HETATM   16  C   UNL     1      41.963 -10.360  11.862  1.00  0.00     0.001 A 
HETATM   17  C   UNL     1      41.678 -10.430  10.499  1.00  0.00     0.014 A 
BRANCH  13  18
HETATM   18  O   UNL     1      44.996 -10.882   9.035  1.00  0.00    -0.355 OA
HETATM   19  C   UNL     1      45.537 -12.187   8.886  1.00  0.00     0.210 C 
ENDBRANCH  13  18
ENDBRANCH  11  12
ENDBRANCH   7  10
ENDBRANCH   5   6
ENDBRANCH   1   5
BRANCH   2  20
HETATM   20  N   UNL     1      42.167 -15.806   3.693  1.00  0.00    -0.166 NA
HETATM   21  C   UNL     1      42.926 -16.459   4.510  1.00  0.00     0.157 A 
HETATM   22  C   UNL     1      43.470 -16.020   5.872  1.00  0.00     0.277 A 
HETATM   23  C   UNL     1      43.472 -17.787   4.269  1.00  0.00     0.028 A 
HETATM   24  O   UNL     1      43.227 -14.959   6.410  1.00  0.00    -0.266 OA
HETATM   25  N   UNL     1      44.267 -17.060   6.303  1.00  0.00    -0.321 N 
HETATM   26  C   UNL     1      44.273 -18.094   5.369  1.00  0.00     0.048 A 
HETATM   27  H   UNL     1      44.771 -17.050   7.177  1.00  0.00     0.169 HD
HETATM   28  C   UNL     1      44.954 -19.291   5.444  1.00  0.00     0.032 A 
HETATM   29  C   UNL     1      44.805 -20.183   4.374  1.00  0.00     0.021 A 
HETATM   30  C   UNL     1      43.989 -19.860   3.269  1.00  0.00     0.012 A 
HETATM   31 BR   UNL     1      43.819 -21.102   1.851  1.00  0.00    -0.051 Br
HETATM   32  C   UNL     1      43.308 -18.646   3.201  1.00  0.00     0.035 A 
ENDBRANCH   2  20
TORSDOF 6
ENDMDL
MODEL 5
REMARK VINA RESULT:      -8.4      6.264      9.588
REMARK  6 active torsions:
REMARK  status: ('A' for Active; 'I' for Inactive)
REMARK    1  A    between atoms: O_2  and  C_3 
REMARK    2  A    between atoms: C_4  and  C_5 
REMARK    3  A    between atoms: C_6  and  C_7 
REMARK       I    between atoms: C_7  and  N_8 
REMARK    4  A    between atoms: N_8  and  C_9 
REMARK    5  A    between atoms: C_9  and  C_10 
REMARK       I    between atoms: C_10  and  N_11 
REMARK    6  A    between atoms: N_11  and  N_12 
ROOT
HETATM    1  C   UNL     1      44.610 -13.817   6.987  1.00  0.00     0.255 C 
HETATM    2  N   UNL     1      43.591 -14.742   6.834  1.00  0.00    -0.245 N 
HETATM    3  O   UNL     1      45.236 -13.305   6.059  1.00  0.00    -0.270 OA
HETATM    4  H   UNL     1      43.133 -15.129   7.660  1.00  0.00     0.192 HD
ENDROOT
BRANCH   1   5
HETATM    5  C   UNL     1      45.042 -13.610   8.440  1.00  0.00     0.227 C 
BRANCH   5   6
HETATM    6  N   UNL     1      44.318 -12.582   9.179  1.00  0.00    -0.349 N 
HETATM    7  C   UNL     1      44.901 -11.363   9.424  1.00  0.00     0.241 C 
HETATM    8  O   UNL     1      45.964 -11.006   8.935  1.00  0.00    -0.269 OA
HETATM    9  H   UNL     1      43.471 -12.846   9.666  1.00  0.00     0.163 HD
BRANCH   7  10
HETATM   10  C   UNL     1      44.139 -10.537  10.389  1.00  0.00     0.075 C 
HETATM   11  C   UNL     1      43.547 -11.130  11.437  1.00  0.00     0.020 C 
BRANCH  11  12
HETATM   12  C   UNL     1      42.747 -10.372  12.407  1.00  0.00    -0.003 A 
HETATM   13  C   UNL     1      41.341 -10.440  12.434  1.00  0.00     0.078 A 
HETATM   14  C   UNL     1      40.638  -9.677  13.375  1.00  0.00     0.037 A 
HETATM   15  C   UNL     1      41.324  -8.875  14.293  1.00  0.00     0.003 A 
HETATM   16  C   UNL     1      42.715  -8.824  14.276  1.00  0.00     0.001 A 
HETATM   17  C   UNL     1      43.424  -9.566  13.333  1.00  0.00     0.014 A 
BRANCH  13  18
HETATM   18  O   UNL     1      40.750 -11.248  11.496  1.00  0.00    -0.355 OA
HETATM   19  C   UNL     1      40.140 -10.609  10.383  1.00  0.00     0.210 C 
ENDBRANCH  13  18
ENDBRANCH  11  12
ENDBRANCH   7  10
ENDBRANCH   5   6
ENDBRANCH   1   5
BRANCH   2  20
HETATM   20  N   UNL     1      43.189 -15.120   5.586  1.00  0.00    -0.166 NA
HETATM   21  C   UNL     1      43.415 -16.346   5.244  1.00  0.00     0.157 A 
HETATM   22  C   UNL     1      44.123 -17.448   6.037  1.00  0.00     0.277 A 
HETATM   23  C   UNL     1      43.060 -16.939   3.962  1.00  0.00     0.028 A 
HETATM   24  O   UNL     1      44.565 -17.323   7.161  1.00  0.00    -0.266 OA
HETATM   25  N   UNL     1      44.146 -18.546   5.202  1.00  0.00    -0.321 N 
HETATM   26  C   UNL     1      43.527 -18.252   3.988  1.00  0.00     0.048 A 
HETATM   27  H   UNL     1      44.563 -19.429   5.455  1.00  0.00     0.169 HD
HETATM   28  C   UNL     1      43.361 -19.091   2.905  1.00  0.00     0.032 A 
HETATM   29  C   UNL     1      42.702 -18.569   1.784  1.00  0.00     0.021 A 
HETATM   30  C   UNL     1      42.231 -17.238   1.774  1.00  0.00     0.012 A 
HETATM   31 BR   UNL     1      41.345 -16.584   0.236  1.00  0.00    -0.051 Br
HETATM   32  C   UNL     1      42.409 -16.398   2.872  1.00  0.00     0.035 A 
ENDBRANCH   2  20
TORSDOF 6
ENDMDL
MODEL 6
REMARK VINA RESULT:      -8.3      2.160      2.198
REMARK  6 active torsions:
REMARK  status: ('A' for Active; 'I' for Inactive)
REMARK    1  A    between atoms: O_2  and  C_3 
REMARK    2  A    between atoms: C_4  and  C_5 
REMARK    3  A    between atoms: C_6  and  C_7 
REMARK       I    between atoms: C_7  and  N_8 
REMARK    4  A    between atoms: N_8  and  C_9 
REMARK    5  A    between atoms: C_9  and  C_10 
REMARK       I    between atoms: C_10  and  N_11 
REMARK    6  A    between atoms: N_11  and  N_12 
ROOT
HETATM    1  C   UNL     1      41.738 -13.012   3.626  1.00  0.00     0.255 C 
HETATM    2  N   UNL     1      42.288 -13.435   2.427  1.00  0.00    -0.245 N 
HETATM    3  O   UNL     1      41.332 -11.871   3.847  1.00  0.00    -0.270 OA
HETATM    4  H   UNL     1      42.615 -14.398   2.334  1.00  0.00     0.192 HD
ENDROOT
BRANCH   1   5
HETATM    5  C   UNL     1      41.843 -14.044   4.751  1.00  0.00     0.227 C 
BRANCH   5   6
HETATM    6  N   UNL     1      41.953 -15.436   4.330  1.00  0.00    -0.349 N 
HETATM    7  C   UNL     1      41.546 -16.448   5.164  1.00  0.00     0.241 C 
HETATM    8  O   UNL     1      40.948 -16.264   6.215  1.00  0.00    -0.269 OA
HETATM    9  H   UNL     1      42.503 -15.648   3.507  1.00  0.00     0.163 HD
BRANCH   7  10
HETATM   10  C   UNL     1      41.954 -17.791   4.692  1.00  0.00     0.075 C 
HETATM   11  C   UNL     1      43.174 -17.958   4.159  1.00  0.00     0.020 C 
BRANCH  11  12
HETATM   12  C   UNL     1      43.622 -19.255   3.639  1.00  0.00    -0.003 A 
HETATM   13  C   UNL     1      44.337 -20.174   4.429  1.00  0.00     0.078 A 
HETATM   14  C   UNL     1      44.750 -21.386   3.864  1.00  0.00     0.037 A 
HETATM   15  C   UNL     1      44.436 -21.693   2.536  1.00  0.00     0.003 A 
HETATM   16  C   UNL     1      43.713 -20.791   1.761  1.00  0.00     0.001 A 
HETATM   17  C   UNL     1      43.311 -19.574   2.308  1.00  0.00     0.014 A 
BRANCH  13  18
HETATM   18  O   UNL     1      44.606 -19.791   5.719  1.00  0.00    -0.355 OA
HETATM   19  C   UNL     1      43.846 -20.407   6.749  1.00  0.00     0.210 C 
ENDBRANCH  13  18
ENDBRANCH  11  12
ENDBRANCH   7  10
ENDBRANCH   5   6
ENDBRANCH   1   5
BRANCH   2  20
HETATM   20  N   UNL     1      42.377 -12.575   1.372  1.00  0.00    -0.166 NA
HETATM   21  C   UNL     1      42.125 -13.057   0.200  1.00  0.00     0.157 A 
HETATM   22  C   UNL     1      41.777 -14.495  -0.191  1.00  0.00     0.277 A 
HETATM   23  C   UNL     1      42.163 -12.301  -1.045  1.00  0.00     0.028 A 
HETATM   24  O   UNL     1      41.655 -15.419   0.588  1.00  0.00    -0.266 OA
HETATM   25  N   UNL     1      41.658 -14.486  -1.565  1.00  0.00    -0.321 N 
HETATM   26  C   UNL     1      41.884 -13.206  -2.068  1.00  0.00     0.048 A 
HETATM   27  H   UNL     1      41.439 -15.305  -2.111  1.00  0.00     0.169 HD
HETATM   28  C   UNL     1      41.858 -12.805  -3.388  1.00  0.00     0.032 A 
HETATM   29  C   UNL     1      42.119 -11.454  -3.654  1.00  0.00     0.021 A 
HETATM   30  C   UNL     1      42.397 -10.549  -2.608  1.00  0.00     0.012 A 
HETATM   31 BR   UNL     1      42.740  -8.735  -3.021  1.00  0.00    -0.051 Br
HETATM   32  C   UNL     1      42.425 -10.966  -1.277  1.00  0.00     0.035 A 
ENDBRANCH   2  20
TORSDOF 6
ENDMDL
MODEL 7
REMARK VINA RESULT:      -8.3      5.831      8.984
REMARK  6 active torsions:
REMARK  status: ('A' for Active; 'I' for Inactive)
REMARK    1  A    between atoms: O_2  and  C_3 
REMARK    2  A    between atoms: C_4  and  C_5 
REMARK    3  A    between atoms: C_6  and  C_7 
REMARK       I    between atoms: C_7  and  N_8 
REMARK    4  A    between atoms: N_8  and  C_9 
REMARK    5  A    between atoms: C_9  and  C_10 
REMARK       I    between atoms: C_10  and  N_11 
REMARK    6  A    between atoms: N_11  and  N_12 
ROOT
HETATM    1  C   UNL     1      40.571 -13.548   6.062  1.00  0.00     0.255 C 
HETATM    2  N   UNL     1      40.085 -14.835   5.894  1.00  0.00    -0.245 N 
HETATM    3  O   UNL     1      41.753 -13.225   5.944  1.00  0.00    -0.270 OA
HETATM    4  H   UNL     1      39.089 -15.018   6.026  1.00  0.00     0.192 HD
ENDROOT
BRANCH   1   5
HETATM    5  C   UNL     1      39.533 -12.563   6.603  1.00  0.00     0.227 C 
BRANCH   5   6
HETATM    6  N   UNL     1      39.765 -12.073   7.957  1.00  0.00    -0.349 N 
HETATM    7  C   UNL     1      39.477 -10.771   8.283  1.00  0.00     0.241 C 
HETATM    8  O   UNL     1      38.888  -9.998   7.540  1.00  0.00    -0.269 OA
HETATM    9  H   UNL     1      40.313 -12.644   8.588  1.00  0.00     0.163 HD
BRANCH   7  10
HETATM   10  C   UNL     1      39.999 -10.375   9.612  1.00  0.00     0.075 C 
HETATM   11  C   UNL     1      41.116 -10.953  10.078  1.00  0.00     0.020 C 
BRANCH  11  12
HETATM   12  C   UNL     1      41.662 -10.631  11.401  1.00  0.00    -0.003 A 
HETATM   13  C   UNL     1      42.988 -10.194  11.580  1.00  0.00     0.078 A 
HETATM   14  C   UNL     1      43.450  -9.921  12.872  1.00  0.00     0.037 A 
HETATM   15  C   UNL     1      42.598 -10.058  13.973  1.00  0.00     0.003 A 
HETATM   16  C   UNL     1      41.282 -10.473  13.793  1.00  0.00     0.001 A 
HETATM   17  C   UNL     1      40.816 -10.763  12.513  1.00  0.00     0.014 A 
BRANCH  13  18
HETATM   18  O   UNL     1      43.754 -10.091  10.446  1.00  0.00    -0.355 OA
HETATM   19  C   UNL     1      44.954 -10.851  10.405  1.00  0.00     0.210 C 
ENDBRANCH  13  18
ENDBRANCH  11  12
ENDBRANCH   7  10
ENDBRANCH   5   6
ENDBRANCH   1   5
BRANCH   2  20
HETATM   20  N   UNL     1      40.928 -15.845   5.537  1.00  0.00    -0.166 NA
HETATM   21  C   UNL     1      41.019 -16.115   4.276  1.00  0.00     0.157 A 
HETATM   22  C   UNL     1      40.269 -15.480   3.103  1.00  0.00     0.277 A 
HETATM   23  C   UNL     1      41.865 -17.151   3.698  1.00  0.00     0.028 A 
HETATM   24  O   UNL     1      39.467 -14.573   3.198  1.00  0.00    -0.266 OA
HETATM   25  N   UNL     1      40.691 -16.163   1.982  1.00  0.00    -0.321 N 
HETATM   26  C   UNL     1      41.623 -17.141   2.325  1.00  0.00     0.048 A 
HETATM   27  H   UNL     1      40.356 -15.967   1.050  1.00  0.00     0.169 HD
HETATM   28  C   UNL     1      42.264 -18.024   1.480  1.00  0.00     0.032 A 
HETATM   29  C   UNL     1      43.168 -18.925   2.060  1.00  0.00     0.021 A 
HETATM   30  C   UNL     1      43.404 -18.921   3.451  1.00  0.00     0.012 A 
HETATM   31 BR   UNL     1      44.636 -20.156   4.183  1.00  0.00    -0.051 Br
HETATM   32  C   UNL     1      42.748 -18.027   4.296  1.00  0.00     0.035 A 
ENDBRANCH   2  20
TORSDOF 6
ENDMDL
MODEL 8
REMARK VINA RESULT:      -8.1      5.355      7.891
REMARK  6 active torsions:
REMARK  status: ('A' for Active; 'I' for Inactive)
REMARK    1  A    between atoms: O_2  and  C_3 
REMARK    2  A    between atoms: C_4  and  C_5 
REMARK    3  A    between atoms: C_6  and  C_7 
REMARK       I    between atoms: C_7  and  N_8 
REMARK    4  A    between atoms: N_8  and  C_9 
REMARK    5  A    between atoms: C_9  and  C_10 
REMARK       I    between atoms: C_10  and  N_11 
REMARK    6  A    between atoms: N_11  and  N_12 
ROOT
HETATM    1  C   UNL     1      40.619 -12.526   5.634  1.00  0.00     0.255 C 
HETATM    2  N   UNL     1      41.701 -11.693   5.870  1.00  0.00    -0.245 N 
HETATM    3  O   UNL     1      39.757 -12.807   6.466  1.00  0.00    -0.270 OA
HETATM    4  H   UNL     1      42.379 -11.526   5.125  1.00  0.00     0.192 HD
ENDROOT
BRANCH   1   5
HETATM    5  C   UNL     1      40.674 -13.241   4.283  1.00  0.00     0.227 C 
BRANCH   5   6
HETATM    6  N   UNL     1      41.594 -14.369   4.197  1.00  0.00    -0.349 N 
HETATM    7  C   UNL     1      42.681 -14.317   3.359  1.00  0.00     0.241 C 
HETATM    8  O   UNL     1      43.031 -13.309   2.761  1.00  0.00    -0.269 OA
HETATM    9  H   UNL     1      41.316 -15.250   4.611  1.00  0.00     0.163 HD
BRANCH   7  10
HETATM   10  C   UNL     1      43.363 -15.623   3.206  1.00  0.00     0.075 C 
HETATM   11  C   UNL     1      42.951 -16.668   3.941  1.00  0.00     0.020 C 
BRANCH  11  12
HETATM   12  C   UNL     1      43.609 -17.978   3.863  1.00  0.00    -0.003 A 
HETATM   13  C   UNL     1      44.256 -18.559   4.969  1.00  0.00     0.078 A 
HETATM   14  C   UNL     1      44.879 -19.804   4.821  1.00  0.00     0.037 A 
HETATM   15  C   UNL     1      44.839 -20.475   3.595  1.00  0.00     0.003 A 
HETATM   16  C   UNL     1      44.183 -19.907   2.507  1.00  0.00     0.001 A 
HETATM   17  C   UNL     1      43.573 -18.661   2.638  1.00  0.00     0.014 A 
BRANCH  13  18
HETATM   18  O   UNL     1      44.251 -17.830   6.132  1.00  0.00    -0.355 OA
HETATM   19  C   UNL     1      44.043 -18.544   7.342  1.00  0.00     0.210 C 
ENDBRANCH  13  18
ENDBRANCH  11  12
ENDBRANCH   7  10
ENDBRANCH   5   6
ENDBRANCH   1   5
BRANCH   2  20
HETATM   20  N   UNL     1      41.848 -11.087   7.083  1.00  0.00    -0.166 NA
HETATM   21  C   UNL     1      42.773 -11.548   7.859  1.00  0.00     0.157 A 
HETATM   22  C   UNL     1      43.720 -12.729   7.628  1.00  0.00     0.277 A 
HETATM   23  C   UNL     1      43.087 -11.036   9.186  1.00  0.00     0.028 A 
HETATM   24  O   UNL     1      43.751 -13.409   6.623  1.00  0.00    -0.266 OA
HETATM   25  N   UNL     1      44.470 -12.831   8.781  1.00  0.00    -0.321 N 
HETATM   26  C   UNL     1      44.104 -11.844   9.694  1.00  0.00     0.048 A 
HETATM   27  H   UNL     1      45.180 -13.534   8.922  1.00  0.00     0.169 HD
HETATM   28  C   UNL     1      44.624 -11.631  10.954  1.00  0.00     0.032 A 
HETATM   29  C   UNL     1      44.091 -10.567  11.696  1.00  0.00     0.021 A 
HETATM   30  C   UNL     1      43.065  -9.756  11.168  1.00  0.00     0.012 A 
HETATM   31 BR   UNL     1      42.384  -8.332  12.210  1.00  0.00    -0.051 Br
HETATM   32  C   UNL     1      42.544  -9.983   9.894  1.00  0.00     0.035 A 
ENDBRANCH   2  20
TORSDOF 6
ENDMDL
MODEL 9
REMARK VINA RESULT:      -8.1      5.876      9.708
REMARK  6 active torsions:
REMARK  status: ('A' for Active; 'I' for Inactive)
REMARK    1  A    between atoms: O_2  and  C_3 
REMARK    2  A    between atoms: C_4  and  C_5 
REMARK    3  A    between atoms: C_6  and  C_7 
REMARK       I    between atoms: C_7  and  N_8 
REMARK    4  A    between atoms: N_8  and  C_9 
REMARK    5  A    between atoms: C_9  and  C_10 
REMARK       I    between atoms: C_10  and  N_11 
REMARK    6  A    between atoms: N_11  and  N_12 
ROOT
HETATM    1  C   UNL     1      40.663 -13.749   5.278  1.00  0.00     0.255 C 
HETATM    2  N   UNL     1      41.946 -14.001   4.820  1.00  0.00    -0.245 N 
HETATM    3  O   UNL     1      39.733 -14.554   5.236  1.00  0.00    -0.270 OA
HETATM    4  H   UNL     1      42.655 -13.269   4.879  1.00  0.00     0.192 HD
ENDROOT
BRANCH   1   5
HETATM    5  C   UNL     1      40.428 -12.292   5.683  1.00  0.00     0.227 C 
BRANCH   5   6
HETATM    6  N   UNL     1      40.997 -11.887   6.963  1.00  0.00    -0.349 N 
HETATM    7  C   UNL     1      40.301 -11.047   7.797  1.00  0.00     0.241 C 
HETATM    8  O   UNL     1      39.140 -10.709   7.608  1.00  0.00    -0.269 OA
HETATM    9  H   UNL     1      41.975 -12.076   7.136  1.00  0.00     0.163 HD
BRANCH   7  10
HETATM   10  C   UNL     1      41.115 -10.541   8.926  1.00  0.00     0.075 C 
HETATM   11  C   UNL     1      40.839 -10.955  10.172  1.00  0.00     0.020 C 
BRANCH  11  12
HETATM   12  C   UNL     1      41.585 -10.463  11.336  1.00  0.00    -0.003 A 
HETATM   13  C   UNL     1      40.940  -9.984  12.492  1.00  0.00     0.078 A 
HETATM   14  C   UNL     1      41.712  -9.512  13.560  1.00  0.00     0.037 A 
HETATM   15  C   UNL     1      43.109  -9.537  13.490  1.00  0.00     0.003 A 
HETATM   16  C   UNL     1      43.745 -10.028  12.354  1.00  0.00     0.001 A 
HETATM   17  C   UNL     1      42.986 -10.485  11.278  1.00  0.00     0.014 A 
BRANCH  13  18
HETATM   18  O   UNL     1      39.568  -9.991  12.473  1.00  0.00    -0.355 OA
HETATM   19  C   UNL     1      38.912  -8.735  12.561  1.00  0.00     0.210 C 
ENDBRANCH  13  18
ENDBRANCH  11  12
ENDBRANCH   7  10
ENDBRANCH   5   6
ENDBRANCH   1   5
BRANCH   2  20
HETATM   20  N   UNL     1      42.263 -15.225   4.309  1.00  0.00    -0.166 NA
HETATM   21  C   UNL     1      43.050 -15.969   5.015  1.00  0.00     0.157 A 
HETATM   22  C   UNL     1      43.728 -15.651   6.350  1.00  0.00     0.277 A 
HETATM   23  C   UNL     1      43.501 -17.304   4.644  1.00  0.00     0.028 A 
HETATM   24  O   UNL     1      43.590 -14.618   6.973  1.00  0.00    -0.266 OA
HETATM   25  N   UNL     1      44.500 -16.756   6.644  1.00  0.00    -0.321 N 
HETATM   26  C   UNL     1      44.371 -17.723   5.649  1.00  0.00     0.048 A 
HETATM   27  H   UNL     1      45.074 -16.830   7.470  1.00  0.00     0.169 HD
HETATM   28  C   UNL     1      44.989 -18.955   5.590  1.00  0.00     0.032 A 
HETATM   29  C   UNL     1      44.703 -19.765   4.482  1.00  0.00     0.021 A 
HETATM   30  C   UNL     1      43.817 -19.327   3.474  1.00  0.00     0.012 A 
HETATM   31 BR   UNL     1      43.463 -20.460   2.001  1.00  0.00    -0.051 Br
HETATM   32  C   UNL     1      43.201 -18.078   3.542  1.00  0.00     0.035 A 
ENDBRANCH   2  20
TORSDOF 6
ENDMDL
MODEL 10
REMARK VINA RESULT:      -8.0      6.115      9.500
REMARK  6 active torsions:
REMARK  status: ('A' for Active; 'I' for Inactive)
REMARK    1  A    between atoms: O_2  and  C_3 
REMARK    2  A    between atoms: C_4  and  C_5 
REMARK    3  A    between atoms: C_6  and  C_7 
REMARK       I    between atoms: C_7  and  N_8 
REMARK    4  A    between atoms: N_8  and  C_9 
REMARK    5  A    between atoms: C_9  and  C_10 
REMARK       I    between atoms: C_10  and  N_11 
REMARK    6  A    between atoms: N_11  and  N_12 
ROOT
HETATM    1  C   UNL     1      42.708 -13.392   5.915  1.00  0.00     0.255 C 
HETATM    2  N   UNL     1      42.026 -14.383   5.228  1.00  0.00    -0.245 N 
HETATM    3  O   UNL     1      43.753 -13.566   6.542  1.00  0.00    -0.270 OA
HETATM    4  H   UNL     1      41.156 -14.155   4.746  1.00  0.00     0.192 HD
ENDROOT
BRANCH   1   5
HETATM    5  C   UNL     1      41.949 -12.066   5.998  1.00  0.00     0.227 C 
BRANCH   5   6
HETATM    6  N   UNL     1      41.804 -11.497   7.332  1.00  0.00    -0.349 N 
HETATM    7  C   UNL     1      41.842 -10.137   7.515  1.00  0.00     0.241 C 
HETATM    8  O   UNL     1      41.848  -9.327   6.599  1.00  0.00    -0.269 OA
HETATM    9  H   UNL     1      41.868 -12.118   8.129  1.00  0.00     0.163 HD
BRANCH   7  10
HETATM   10  C   UNL     1      41.930  -9.743   8.941  1.00  0.00     0.075 C 
HETATM   11  C   UNL     1      42.098 -10.692   9.875  1.00  0.00     0.020 C 
BRANCH  11  12
HETATM   12  C   UNL     1      42.155 -10.370  11.305  1.00  0.00    -0.003 A 
HETATM   13  C   UNL     1      40.994 -10.239  12.091  1.00  0.00     0.078 A 
HETATM   14  C   UNL     1      41.120  -9.913  13.447  1.00  0.00     0.037 A 
HETATM   15  C   UNL     1      42.384  -9.744  14.021  1.00  0.00     0.003 A 
HETATM   16  C   UNL     1      43.530  -9.891  13.247  1.00  0.00     0.001 A 
HETATM   17  C   UNL     1      43.417 -10.199  11.892  1.00  0.00     0.014 A 
BRANCH  13  18
HETATM   18  O   UNL     1      39.797 -10.418  11.446  1.00  0.00    -0.355 OA
HETATM   19  C   UNL     1      38.759  -9.494  11.739  1.00  0.00     0.210 C 
ENDBRANCH  13  18
ENDBRANCH  11  12
ENDBRANCH   7  10
ENDBRANCH   5   6
ENDBRANCH   1   5
BRANCH   2  20
HETATM   20  N   UNL     1      42.525 -15.652   5.182  1.00  0.00    -0.166 NA
HETATM   21  C   UNL     1      42.844 -16.114   4.018  1.00  0.00     0.157 A 
HETATM   22  C   UNL     1      42.701 -15.445   2.648  1.00  0.00     0.277 A 
HETATM   23  C   UNL     1      43.393 -17.439   3.762  1.00  0.00     0.028 A 
HETATM   24  O   UNL     1      42.273 -14.325   2.462  1.00  0.00    -0.266 OA
HETATM   25  N   UNL     1      43.137 -16.381   1.734  1.00  0.00    -0.321 N 
HETATM   26  C   UNL     1      43.542 -17.548   2.380  1.00  0.00     0.048 A 
HETATM   27  H   UNL     1      43.149 -16.223   0.737  1.00  0.00     0.169 HD
HETATM   28  C   UNL     1      44.031 -18.701   1.803  1.00  0.00     0.032 A 
HETATM   29  C   UNL     1      44.375 -19.753   2.663  1.00  0.00     0.021 A 
HETATM   30  C   UNL     1      44.223 -19.627   4.060  1.00  0.00     0.012 A 
HETATM   31 BR   UNL     1      44.705 -21.076   5.177  1.00  0.00    -0.051 Br
HETATM   32  C   UNL     1      43.723 -18.458   4.632  1.00  0.00     0.035 A 
ENDBRANCH   2  20
TORSDOF 6
ENDMDL
