MODEL 1
REMARK VINA RESULT:      -7.9      0.000      0.000
REMARK  4 active torsions:
REMARK  status: ('A' for Active; 'I' for Inactive)
REMARK    1  A    between atoms: C_2  and  C_3 
REMARK    2  A    between atoms: C_10  and  C_11 
REMARK       I    between atoms: C_11  and  N_12 
REMARK    3  A    between atoms: N_12  and  C_13 
REMARK    4  A    between atoms: C_20  and  C_21 
REMARK       I    between atoms: C_21  and  N_22 
ROOT
HETATM    1  C   UNL     1      40.445 -16.645   2.401  1.00  0.00     0.035 A 
HETATM    2  C   UNL     1      40.947 -16.581   3.705  1.00  0.00     0.046 A 
HETATM    3  C   UNL     1      42.169 -17.216   4.023  1.00  0.00     0.030 A 
HETATM    4  C   UNL     1      42.849 -17.906   3.029  1.00  0.00     0.063 A 
HETATM    5  N   UNL     1      43.968 -18.407   3.635  1.00  0.00    -0.277 N 
HETATM    6  H   UNL     1      44.696 -18.969   3.210  1.00  0.00     0.189 HD
HETATM    7  N   UNL     1      44.082 -18.095   4.937  1.00  0.00    -0.168 NA
HETATM    8  C   UNL     1      42.977 -17.357   5.192  1.00  0.00     0.156 A 
HETATM    9  C   UNL     1      42.383 -17.999   1.719  1.00  0.00     0.034 A 
HETATM   10  C   UNL     1      41.173 -17.355   1.430  1.00  0.00     0.032 A 
ENDROOT
BRANCH   1  11
HETATM   11  N   UNL     1      39.252 -16.046   1.955  1.00  0.00    -0.324 N 
HETATM   12  C   UNL     1      38.909 -14.805   1.512  1.00  0.00     0.246 C 
HETATM   13  O   UNL     1      37.748 -14.589   1.160  1.00  0.00    -0.268 OA
HETATM   14  H   UNL     1      38.431 -16.640   1.960  1.00  0.00     0.169 HD
BRANCH  12  15
HETATM   15  C   UNL     1      39.912 -13.732   1.410  1.00  0.00     0.082 C 
HETATM   16  C   UNL     1      40.525 -13.405   0.257  1.00  0.00    -0.045 C 
HETATM   17  C   UNL     1      41.563 -12.319   0.188  1.00  0.00     0.049 C 
BRANCH  16  18
HETATM   18  C   UNL     1      40.232 -14.084  -1.022  1.00  0.00    -0.008 A 
HETATM   19  C   UNL     1      39.177 -13.708  -1.871  1.00  0.00     0.044 A 
HETATM   20 CL   UNL     1      38.103 -12.410  -1.482  1.00  0.00    -0.083 Cl
HETATM   21  C   UNL     1      38.957 -14.392  -3.071  1.00  0.00     0.024 A 
HETATM   22  C   UNL     1      39.782 -15.456  -3.436  1.00  0.00     0.002 A 
HETATM   23  C   UNL     1      40.827 -15.841  -2.600  1.00  0.00     0.001 A 
HETATM   24  C   UNL     1      41.051 -15.159  -1.402  1.00  0.00     0.013 A 
ENDBRANCH  16  18
ENDBRANCH  12  15
ENDBRANCH   1  11
BRANCH   8  25
HETATM   25  C   UNL     1      42.719 -16.797   6.525  1.00  0.00     0.270 C 
HETATM   26  N   UNL     1      42.792 -15.431   6.580  1.00  0.00    -0.365 N 
HETATM   27  H   UNL     1      43.006 -14.923   5.730  1.00  0.00     0.159 HD
HETATM   28  H   UNL     1      42.624 -14.955   7.452  1.00  0.00     0.159 HD
HETATM   29  O   UNL     1      42.451 -17.462   7.519  1.00  0.00    -0.266 OA
ENDBRANCH   8  25
TORSDOF 4
ENDMDL
MODEL 2
REMARK VINA RESULT:      -7.8      3.552      7.164
REMARK  4 active torsions:
REMARK  status: ('A' for Active; 'I' for Inactive)
REMARK    1  A    between atoms: C_2  and  C_3 
REMARK    2  A    between atoms: C_10  and  C_11 
REMARK       I    between atoms: C_11  and  N_12 
REMARK    3  A    between atoms: N_12  and  C_13 
REMARK    4  A    between atoms: C_20  and  C_21 
REMARK       I    between atoms: C_21  and  N_22 
ROOT
HETATM    1  C   UNL     1      40.830 -16.180   3.053  1.00  0.00     0.035 A 
HETATM    2  C   UNL     1      40.851 -14.872   2.560  1.00  0.00     0.046 A 
HETATM    3  C   UNL     1      41.243 -14.627   1.224  1.00  0.00     0.030 A 
HETATM    4  C   UNL     1      41.614 -15.698   0.423  1.00  0.00     0.063 A 
HETATM    5  N   UNL     1      41.941 -15.151  -0.786  1.00  0.00    -0.277 N 
HETATM    6  H   UNL     1      42.262 -15.640  -1.614  1.00  0.00     0.189 HD
HETATM    7  N   UNL     1      41.808 -13.815  -0.847  1.00  0.00    -0.168 NA
HETATM    8  C   UNL     1      41.375 -13.476   0.389  1.00  0.00     0.156 A 
HETATM    9  C   UNL     1      41.612 -17.016   0.875  1.00  0.00     0.034 A 
HETATM   10  C   UNL     1      41.212 -17.230   2.201  1.00  0.00     0.032 A 
ENDROOT
BRANCH   1  11
HETATM   11  N   UNL     1      40.448 -16.556   4.355  1.00  0.00    -0.324 N 
HETATM   12  C   UNL     1      40.884 -16.251   5.609  1.00  0.00     0.246 C 
HETATM   13  O   UNL     1      40.309 -16.739   6.582  1.00  0.00    -0.268 OA
HETATM   14  H   UNL     1      39.680 -17.215   4.417  1.00  0.00     0.169 HD
BRANCH  12  15
HETATM   15  C   UNL     1      42.003 -15.317   5.815  1.00  0.00     0.082 C 
HETATM   16  C   UNL     1      43.284 -15.716   5.922  1.00  0.00    -0.045 C 
HETATM   17  C   UNL     1      44.405 -14.742   6.155  1.00  0.00     0.049 C 
BRANCH  16  18
HETATM   18  C   UNL     1      43.688 -17.134   5.822  1.00  0.00    -0.008 A 
HETATM   19  C   UNL     1      43.793 -17.987   6.934  1.00  0.00     0.044 A 
HETATM   20 CL   UNL     1      43.468 -17.442   8.543  1.00  0.00    -0.083 Cl
HETATM   21  C   UNL     1      44.178 -19.322   6.770  1.00  0.00     0.024 A 
HETATM   22  C   UNL     1      44.465 -19.818   5.497  1.00  0.00     0.002 A 
HETATM   23  C   UNL     1      44.371 -18.981   4.389  1.00  0.00     0.001 A 
HETATM   24  C   UNL     1      43.984 -17.649   4.550  1.00  0.00     0.013 A 
ENDBRANCH  16  18
ENDBRANCH  12  15
ENDBRANCH   1  11
BRANCH   8  25
HETATM   25  C   UNL     1      41.088 -12.080   0.745  1.00  0.00     0.270 C 
HETATM   26  N   UNL     1      42.020 -11.512   1.570  1.00  0.00    -0.365 N 
HETATM   27  H   UNL     1      42.813 -12.070   1.863  1.00  0.00     0.159 HD
HETATM   28  H   UNL     1      41.912 -10.554   1.865  1.00  0.00     0.159 HD
HETATM   29  O   UNL     1      40.115 -11.447   0.349  1.00  0.00    -0.266 OA
ENDBRANCH   8  25
TORSDOF 4
ENDMDL
MODEL 3
REMARK VINA RESULT:      -7.7      3.577      7.311
REMARK  4 active torsions:
REMARK  status: ('A' for Active; 'I' for Inactive)
REMARK    1  A    between atoms: C_2  and  C_3 
REMARK    2  A    between atoms: C_10  and  C_11 
REMARK       I    between atoms: C_11  and  N_12 
REMARK    3  A    between atoms: N_12  and  C_13 
REMARK    4  A    between atoms: C_20  and  C_21 
REMARK       I    between atoms: C_21  and  N_22 
ROOT
HETATM    1  C   UNL     1      42.770 -16.946   2.184  1.00  0.00     0.035 A 
HETATM    2  C   UNL     1      42.754 -15.560   1.999  1.00  0.00     0.046 A 
HETATM    3  C   UNL     1      41.864 -14.983   1.064  1.00  0.00     0.030 A 
HETATM    4  C   UNL     1      41.023 -15.811   0.335  1.00  0.00     0.063 A 
HETATM    5  N   UNL     1      40.303 -14.976  -0.474  1.00  0.00    -0.277 N 
HETATM    6  H   UNL     1      39.592 -15.236  -1.148  1.00  0.00     0.189 HD
HETATM    7  N   UNL     1      40.595 -13.672  -0.327  1.00  0.00    -0.168 NA
HETATM    8  C   UNL     1      41.559 -13.661   0.622  1.00  0.00     0.156 A 
HETATM    9  C   UNL     1      41.009 -17.197   0.484  1.00  0.00     0.034 A 
HETATM   10  C   UNL     1      41.897 -17.741   1.422  1.00  0.00     0.032 A 
ENDROOT
BRANCH   1  11
HETATM   11  N   UNL     1      43.596 -17.639   3.090  1.00  0.00    -0.324 N 
HETATM   12  C   UNL     1      43.416 -18.196   4.320  1.00  0.00     0.246 C 
HETATM   13  O   UNL     1      44.358 -18.773   4.864  1.00  0.00    -0.268 OA
HETATM   14  H   UNL     1      44.560 -17.765   2.801  1.00  0.00     0.169 HD
BRANCH  12  15
HETATM   15  C   UNL     1      42.104 -18.151   4.987  1.00  0.00     0.082 C 
HETATM   16  C   UNL     1      41.734 -17.158   5.817  1.00  0.00    -0.045 C 
HETATM   17  C   UNL     1      40.397 -17.149   6.502  1.00  0.00     0.049 C 
BRANCH  16  18
HETATM   18  C   UNL     1      42.609 -16.006   6.121  1.00  0.00    -0.008 A 
HETATM   19  C   UNL     1      43.545 -16.003   7.169  1.00  0.00     0.044 A 
HETATM   20 CL   UNL     1      43.751 -17.361   8.220  1.00  0.00    -0.083 Cl
HETATM   21  C   UNL     1      44.346 -14.880   7.401  1.00  0.00     0.024 A 
HETATM   22  C   UNL     1      44.219 -13.748   6.594  1.00  0.00     0.002 A 
HETATM   23  C   UNL     1      43.290 -13.737   5.557  1.00  0.00     0.001 A 
HETATM   24  C   UNL     1      42.492 -14.858   5.321  1.00  0.00     0.013 A 
ENDBRANCH  16  18
ENDBRANCH  12  15
ENDBRANCH   1  11
BRANCH   8  25
HETATM   25  C   UNL     1      42.156 -12.404   1.093  1.00  0.00     0.270 C 
HETATM   26  N   UNL     1      41.952 -12.153   2.423  1.00  0.00    -0.365 N 
HETATM   27  H   UNL     1      41.428 -12.827   2.968  1.00  0.00     0.159 HD
HETATM   28  H   UNL     1      42.330 -11.317   2.840  1.00  0.00     0.159 HD
HETATM   29  O   UNL     1      42.794 -11.630   0.388  1.00  0.00    -0.266 OA
ENDBRANCH   8  25
TORSDOF 4
ENDMDL
MODEL 4
REMARK VINA RESULT:      -7.6      3.040      4.490
REMARK  4 active torsions:
REMARK  status: ('A' for Active; 'I' for Inactive)
REMARK    1  A    between atoms: C_2  and  C_3 
REMARK    2  A    between atoms: C_10  and  C_11 
REMARK       I    between atoms: C_11  and  N_12 
REMARK    3  A    between atoms: N_12  and  C_13 
REMARK    4  A    between atoms: C_20  and  C_21 
REMARK       I    between atoms: C_21  and  N_22 
ROOT
HETATM    1  C   UNL     1      43.536 -15.963   3.192  1.00  0.00     0.035 A 
HETATM    2  C   UNL     1      43.391 -16.420   4.506  1.00  0.00     0.046 A 
HETATM    3  C   UNL     1      43.586 -17.789   4.803  1.00  0.00     0.030 A 
HETATM    4  C   UNL     1      43.909 -18.662   3.774  1.00  0.00     0.063 A 
HETATM    5  N   UNL     1      44.024 -19.890   4.363  1.00  0.00    -0.277 N 
HETATM    6  H   UNL     1      44.248 -20.770   3.911  1.00  0.00     0.189 HD
HETATM    7  N   UNL     1      43.811 -19.893   5.690  1.00  0.00    -0.168 NA
HETATM    8  C   UNL     1      43.540 -18.599   5.977  1.00  0.00     0.156 A 
HETATM    9  C   UNL     1      44.059 -18.251   2.451  1.00  0.00     0.034 A 
HETATM   10  C   UNL     1      43.867 -16.888   2.187  1.00  0.00     0.032 A 
ENDROOT
BRANCH   1  11
HETATM   11  N   UNL     1      43.382 -14.629   2.770  1.00  0.00    -0.324 N 
HETATM   12  C   UNL     1      42.429 -13.945   2.078  1.00  0.00     0.246 C 
HETATM   13  O   UNL     1      42.576 -12.738   1.881  1.00  0.00    -0.268 OA
HETATM   14  H   UNL     1      44.141 -14.000   3.007  1.00  0.00     0.169 HD
BRANCH  12  15
HETATM   15  C   UNL     1      41.210 -14.619   1.599  1.00  0.00     0.082 C 
HETATM   16  C   UNL     1      40.050 -14.613   2.282  1.00  0.00    -0.045 C 
HETATM   17  C   UNL     1      38.828 -15.329   1.779  1.00  0.00     0.049 C 
BRANCH  16  18
HETATM   18  C   UNL     1      39.887 -13.912   3.573  1.00  0.00    -0.008 A 
HETATM   19  C   UNL     1      39.446 -12.582   3.678  1.00  0.00     0.044 A 
HETATM   20 CL   UNL     1      39.062 -11.629   2.287  1.00  0.00    -0.083 Cl
HETATM   21  C   UNL     1      39.310 -11.978   4.932  1.00  0.00     0.024 A 
HETATM   22  C   UNL     1      39.616 -12.691   6.092  1.00  0.00     0.002 A 
HETATM   23  C   UNL     1      40.060 -14.007   6.000  1.00  0.00     0.001 A 
HETATM   24  C   UNL     1      40.194 -14.614   4.750  1.00  0.00     0.013 A 
ENDBRANCH  16  18
ENDBRANCH  12  15
ENDBRANCH   1  11
BRANCH   8  25
HETATM   25  C   UNL     1      43.257 -18.161   7.350  1.00  0.00     0.270 C 
HETATM   26  N   UNL     1      43.984 -18.818   8.306  1.00  0.00    -0.365 N 
HETATM   27  H   UNL     1      44.642 -19.529   8.011  1.00  0.00     0.159 HD
HETATM   28  H   UNL     1      43.863 -18.582   9.278  1.00  0.00     0.159 HD
HETATM   29  O   UNL     1      42.456 -17.282   7.649  1.00  0.00    -0.266 OA
ENDBRANCH   8  25
TORSDOF 4
ENDMDL
MODEL 5
REMARK VINA RESULT:      -7.6      2.425      3.992
REMARK  4 active torsions:
REMARK  status: ('A' for Active; 'I' for Inactive)
REMARK    1  A    between atoms: C_2  and  C_3 
REMARK    2  A    between atoms: C_10  and  C_11 
REMARK       I    between atoms: C_11  and  N_12 
REMARK    3  A    between atoms: N_12  and  C_13 
REMARK    4  A    between atoms: C_20  and  C_21 
REMARK       I    between atoms: C_21  and  N_22 
ROOT
HETATM    1  C   UNL     1      40.970 -17.267   2.885  1.00  0.00     0.035 A 
HETATM    2  C   UNL     1      41.423 -17.406   4.200  1.00  0.00     0.046 A 
HETATM    3  C   UNL     1      42.636 -18.083   4.461  1.00  0.00     0.030 A 
HETATM    4  C   UNL     1      43.356 -18.610   3.398  1.00  0.00     0.063 A 
HETATM    5  N   UNL     1      44.455 -19.198   3.960  1.00  0.00    -0.277 N 
HETATM    6  H   UNL     1      45.202 -19.687   3.480  1.00  0.00     0.189 HD
HETATM    7  N   UNL     1      44.520 -19.092   5.298  1.00  0.00    -0.168 NA
HETATM    8  C   UNL     1      43.402 -18.403   5.623  1.00  0.00     0.156 A 
HETATM    9  C   UNL     1      42.940 -18.498   2.073  1.00  0.00     0.034 A 
HETATM   10  C   UNL     1      41.737 -17.817   1.843  1.00  0.00     0.032 A 
ENDROOT
BRANCH   1  11
HETATM   11  N   UNL     1      39.789 -16.607   2.493  1.00  0.00    -0.324 N 
HETATM   12  C   UNL     1      39.511 -15.425   1.876  1.00  0.00     0.246 C 
HETATM   13  O   UNL     1      38.339 -15.127   1.643  1.00  0.00    -0.268 OA
HETATM   14  H   UNL     1      38.923 -17.084   2.713  1.00  0.00     0.169 HD
BRANCH  12  15
HETATM   15  C   UNL     1      40.591 -14.519   1.450  1.00  0.00     0.082 C 
HETATM   16  C   UNL     1      41.051 -13.512   2.216  1.00  0.00    -0.045 C 
HETATM   17  C   UNL     1      42.141 -12.589   1.746  1.00  0.00     0.049 C 
BRANCH  16  18
HETATM   18  C   UNL     1      40.524 -13.232   3.567  1.00  0.00    -0.008 A 
HETATM   19  C   UNL     1      39.421 -12.395   3.807  1.00  0.00     0.044 A 
HETATM   20 CL   UNL     1      38.581 -11.592   2.526  1.00  0.00    -0.083 Cl
HETATM   21  C   UNL     1      38.970 -12.175   5.113  1.00  0.00     0.024 A 
HETATM   22  C   UNL     1      39.613 -12.784   6.191  1.00  0.00     0.002 A 
HETATM   23  C   UNL     1      40.710 -13.612   5.966  1.00  0.00     0.001 A 
HETATM   24  C   UNL     1      41.162 -13.835   4.664  1.00  0.00     0.013 A 
ENDBRANCH  16  18
ENDBRANCH  12  15
ENDBRANCH   1  11
BRANCH   8  25
HETATM   25  C   UNL     1      43.092 -18.057   7.017  1.00  0.00     0.270 C 
HETATM   26  N   UNL     1      43.584 -18.945   7.935  1.00  0.00    -0.365 N 
HETATM   27  H   UNL     1      44.110 -19.744   7.602  1.00  0.00     0.159 HD
HETATM   28  H   UNL     1      43.428 -18.789   8.918  1.00  0.00     0.159 HD
HETATM   29  O   UNL     1      42.460 -17.065   7.363  1.00  0.00    -0.266 OA
ENDBRANCH   8  25
TORSDOF 4
ENDMDL
MODEL 6
REMARK VINA RESULT:      -7.5      3.926      6.990
REMARK  4 active torsions:
REMARK  status: ('A' for Active; 'I' for Inactive)
REMARK    1  A    between atoms: C_2  and  C_3 
REMARK    2  A    between atoms: C_10  and  C_11 
REMARK       I    between atoms: C_11  and  N_12 
REMARK    3  A    between atoms: N_12  and  C_13 
REMARK    4  A    between atoms: C_20  and  C_21 
REMARK       I    between atoms: C_21  and  N_22 
ROOT
HETATM    1  C   UNL     1      40.796 -14.786  -0.729  1.00  0.00     0.035 A 
HETATM    2  C   UNL     1      41.304 -13.487  -0.632  1.00  0.00     0.046 A 
HETATM    3  C   UNL     1      41.833 -12.849  -1.777  1.00  0.00     0.030 A 
HETATM    4  C   UNL     1      41.848 -13.534  -2.984  1.00  0.00     0.063 A 
HETATM    5  N   UNL     1      42.415 -12.674  -3.883  1.00  0.00    -0.277 N 
HETATM    6  H   UNL     1      42.590 -12.841  -4.867  1.00  0.00     0.189 HD
HETATM    7  N   UNL     1      42.765 -11.482  -3.368  1.00  0.00    -0.168 NA
HETATM    8  C   UNL     1      42.410 -11.575  -2.066  1.00  0.00     0.156 A 
HETATM    9  C   UNL     1      41.356 -14.830  -3.124  1.00  0.00     0.034 A 
HETATM   10  C   UNL     1      40.831 -15.435  -1.975  1.00  0.00     0.032 A 
ENDROOT
BRANCH   1  11
HETATM   11  N   UNL     1      40.232 -15.523   0.330  1.00  0.00    -0.324 N 
HETATM   12  C   UNL     1      40.427 -15.569   1.678  1.00  0.00     0.246 C 
HETATM   13  O   UNL     1      39.738 -16.327   2.361  1.00  0.00    -0.268 OA
HETATM   14  H   UNL     1      39.518 -16.193   0.071  1.00  0.00     0.169 HD
BRANCH  12  15
HETATM   15  C   UNL     1      41.420 -14.700   2.330  1.00  0.00     0.082 C 
HETATM   16  C   UNL     1      42.595 -15.153   2.807  1.00  0.00    -0.045 C 
HETATM   17  C   UNL     1      43.581 -14.246   3.488  1.00  0.00     0.049 C 
BRANCH  16  18
HETATM   18  C   UNL     1      43.004 -16.570   2.703  1.00  0.00    -0.008 A 
HETATM   19  C   UNL     1      42.815 -17.505   3.735  1.00  0.00     0.044 A 
HETATM   20 CL   UNL     1      42.091 -17.073   5.245  1.00  0.00    -0.083 Cl
HETATM   21  C   UNL     1      43.223 -18.833   3.570  1.00  0.00     0.024 A 
HETATM   22  C   UNL     1      43.825 -19.240   2.379  1.00  0.00     0.002 A 
HETATM   23  C   UNL     1      44.023 -18.321   1.352  1.00  0.00     0.001 A 
HETATM   24  C   UNL     1      43.615 -16.995   1.512  1.00  0.00     0.013 A 
ENDBRANCH  16  18
ENDBRANCH  12  15
ENDBRANCH   1  11
BRANCH   8  25
HETATM   25  C   UNL     1      42.613 -10.457  -1.135  1.00  0.00     0.270 C 
HETATM   26  N   UNL     1      41.547  -9.604  -1.046  1.00  0.00    -0.365 N 
HETATM   27  H   UNL     1      40.724  -9.797  -1.604  1.00  0.00     0.159 HD
HETATM   28  H   UNL     1      41.590  -8.810  -0.427  1.00  0.00     0.159 HD
HETATM   29  O   UNL     1      43.629 -10.280  -0.472  1.00  0.00    -0.266 OA
ENDBRANCH   8  25
TORSDOF 4
ENDMDL
MODEL 7
REMARK VINA RESULT:      -7.5      4.588      6.891
REMARK  4 active torsions:
REMARK  status: ('A' for Active; 'I' for Inactive)
REMARK    1  A    between atoms: C_2  and  C_3 
REMARK    2  A    between atoms: C_10  and  C_11 
REMARK       I    between atoms: C_11  and  N_12 
REMARK    3  A    between atoms: N_12  and  C_13 
REMARK    4  A    between atoms: C_20  and  C_21 
REMARK       I    between atoms: C_21  and  N_22 
ROOT
HETATM    1  C   UNL     1      40.774 -14.550   4.809  1.00  0.00     0.035 A 
HETATM    2  C   UNL     1      40.496 -13.611   5.808  1.00  0.00     0.046 A 
HETATM    3  C   UNL     1      40.816 -12.249   5.605  1.00  0.00     0.030 A 
HETATM    4  C   UNL     1      41.415 -11.868   4.413  1.00  0.00     0.063 A 
HETATM    5  N   UNL     1      41.604 -10.518   4.517  1.00  0.00    -0.277 N 
HETATM    6  H   UNL     1      42.023  -9.902   3.829  1.00  0.00     0.189 HD
HETATM    7  N   UNL     1      41.172  -9.984   5.671  1.00  0.00    -0.168 NA
HETATM    8  C   UNL     1      40.680 -11.042   6.355  1.00  0.00     0.156 A 
HETATM    9  C   UNL     1      41.713 -12.771   3.393  1.00  0.00     0.034 A 
HETATM   10  C   UNL     1      41.379 -14.113   3.619  1.00  0.00     0.032 A 
ENDROOT
BRANCH   1  11
HETATM   11  N   UNL     1      40.493 -15.928   4.883  1.00  0.00    -0.324 N 
HETATM   12  C   UNL     1      41.108 -17.004   5.449  1.00  0.00     0.246 C 
HETATM   13  O   UNL     1      40.585 -18.115   5.358  1.00  0.00    -0.268 OA
HETATM   14  H   UNL     1      39.651 -16.233   4.409  1.00  0.00     0.169 HD
BRANCH  12  15
HETATM   15  C   UNL     1      42.365 -16.850   6.200  1.00  0.00     0.082 C 
HETATM   16  C   UNL     1      43.568 -17.186   5.698  1.00  0.00    -0.045 C 
HETATM   17  C   UNL     1      44.833 -17.038   6.496  1.00  0.00     0.049 C 
BRANCH  16  18
HETATM   18  C   UNL     1      43.739 -17.726   4.333  1.00  0.00    -0.008 A 
HETATM   19  C   UNL     1      44.000 -19.081   4.067  1.00  0.00     0.044 A 
HETATM   20 CL   UNL     1      44.161 -20.251   5.330  1.00  0.00    -0.083 Cl
HETATM   21  C   UNL     1      44.148 -19.528   2.749  1.00  0.00     0.024 A 
HETATM   22  C   UNL     1      44.041 -18.630   1.686  1.00  0.00     0.002 A 
HETATM   23  C   UNL     1      43.789 -17.284   1.939  1.00  0.00     0.001 A 
HETATM   24  C   UNL     1      43.638 -16.835   3.252  1.00  0.00     0.013 A 
ENDBRANCH  16  18
ENDBRANCH  12  15
ENDBRANCH   1  11
BRANCH   8  25
HETATM   25  C   UNL     1      40.087 -10.885   7.689  1.00  0.00     0.270 C 
HETATM   26  N   UNL     1      40.975 -11.052   8.718  1.00  0.00    -0.365 N 
HETATM   27  H   UNL     1      41.941 -11.261   8.495  1.00  0.00     0.159 HD
HETATM   28  H   UNL     1      40.662 -10.957   9.671  1.00  0.00     0.159 HD
HETATM   29  O   UNL     1      38.909 -10.618   7.900  1.00  0.00    -0.266 OA
ENDBRANCH   8  25
TORSDOF 4
ENDMDL
MODEL 8
REMARK VINA RESULT:      -7.5      3.146      4.893
REMARK  4 active torsions:
REMARK  status: ('A' for Active; 'I' for Inactive)
REMARK    1  A    between atoms: C_2  and  C_3 
REMARK    2  A    between atoms: C_10  and  C_11 
REMARK       I    between atoms: C_11  and  N_12 
REMARK    3  A    between atoms: N_12  and  C_13 
REMARK    4  A    between atoms: C_20  and  C_21 
REMARK       I    between atoms: C_21  and  N_22 
ROOT
HETATM    1  C   UNL     1      43.509 -16.391   5.603  1.00  0.00     0.035 A 
HETATM    2  C   UNL     1      43.926 -17.654   5.170  1.00  0.00     0.046 A 
HETATM    3  C   UNL     1      43.895 -18.752   6.060  1.00  0.00     0.030 A 
HETATM    4  C   UNL     1      43.457 -18.552   7.361  1.00  0.00     0.063 A 
HETATM    5  N   UNL     1      43.548 -19.775   7.966  1.00  0.00    -0.277 N 
HETATM    6  H   UNL     1      43.313 -20.004   8.926  1.00  0.00     0.189 HD
HETATM    7  N   UNL     1      43.999 -20.758   7.169  1.00  0.00    -0.168 NA
HETATM    8  C   UNL     1      44.217 -20.140   5.985  1.00  0.00     0.156 A 
HETATM    9  C   UNL     1      43.037 -17.311   7.836  1.00  0.00     0.034 A 
HETATM   10  C   UNL     1      43.072 -16.242   6.931  1.00  0.00     0.032 A 
ENDROOT
BRANCH   1  11
HETATM   11  N   UNL     1      43.480 -15.225   4.814  1.00  0.00    -0.324 N 
HETATM   12  C   UNL     1      43.647 -14.960   3.489  1.00  0.00     0.246 C 
HETATM   13  O   UNL     1      43.534 -13.801   3.087  1.00  0.00    -0.268 OA
HETATM   14  H   UNL     1      43.307 -14.359   5.312  1.00  0.00     0.169 HD
BRANCH  12  15
HETATM   15  C   UNL     1      43.921 -16.041   2.528  1.00  0.00     0.082 C 
HETATM   16  C   UNL     1      43.037 -16.436   1.593  1.00  0.00    -0.045 C 
HETATM   17  C   UNL     1      43.336 -17.559   0.639  1.00  0.00     0.049 C 
BRANCH  16  18
HETATM   18  C   UNL     1      41.710 -15.806   1.433  1.00  0.00    -0.008 A 
HETATM   19  C   UNL     1      40.615 -16.090   2.267  1.00  0.00     0.044 A 
HETATM   20 CL   UNL     1      40.719 -17.232   3.562  1.00  0.00    -0.083 Cl
HETATM   21  C   UNL     1      39.386 -15.454   2.063  1.00  0.00     0.024 A 
HETATM   22  C   UNL     1      39.235 -14.532   1.026  1.00  0.00     0.002 A 
HETATM   23  C   UNL     1      40.312 -14.247   0.191  1.00  0.00     0.001 A 
HETATM   24  C   UNL     1      41.540 -14.878   0.393  1.00  0.00     0.013 A 
ENDBRANCH  16  18
ENDBRANCH  12  15
ENDBRANCH   1  11
BRANCH   8  25
HETATM   25  C   UNL     1      44.711 -20.878   4.815  1.00  0.00     0.270 C 
HETATM   26  N   UNL     1      45.095 -22.164   5.087  1.00  0.00    -0.365 N 
HETATM   27  H   UNL     1      45.011 -22.504   6.038  1.00  0.00     0.159 HD
HETATM   28  H   UNL     1      45.442 -22.751   4.346  1.00  0.00     0.159 HD
HETATM   29  O   UNL     1      44.779 -20.419   3.680  1.00  0.00    -0.266 OA
ENDBRANCH   8  25
TORSDOF 4
ENDMDL
MODEL 9
REMARK VINA RESULT:      -7.4      3.399      6.969
REMARK  4 active torsions:
REMARK  status: ('A' for Active; 'I' for Inactive)
REMARK    1  A    between atoms: C_2  and  C_3 
REMARK    2  A    between atoms: C_10  and  C_11 
REMARK       I    between atoms: C_11  and  N_12 
REMARK    3  A    between atoms: N_12  and  C_13 
REMARK    4  A    between atoms: C_20  and  C_21 
REMARK       I    between atoms: C_21  and  N_22 
ROOT
HETATM    1  C   UNL     1      39.604 -14.622   1.727  1.00  0.00     0.035 A 
HETATM    2  C   UNL     1      39.976 -15.014   0.438  1.00  0.00     0.046 A 
HETATM    3  C   UNL     1      39.806 -14.124  -0.647  1.00  0.00     0.030 A 
HETATM    4  C   UNL     1      39.260 -12.871  -0.411  1.00  0.00     0.063 A 
HETATM    5  N   UNL     1      39.217 -12.257  -1.633  1.00  0.00    -0.277 N 
HETATM    6  H   UNL     1      38.872 -11.327  -1.841  1.00  0.00     0.189 HD
HETATM    7  N   UNL     1      39.697 -12.999  -2.645  1.00  0.00    -0.168 NA
HETATM    8  C   UNL     1      40.067 -14.157  -2.051  1.00  0.00     0.156 A 
HETATM    9  C   UNL     1      38.872 -12.441   0.856  1.00  0.00     0.034 A 
HETATM   10  C   UNL     1      39.058 -13.341   1.914  1.00  0.00     0.032 A 
ENDROOT
BRANCH   1  11
HETATM   11  N   UNL     1      39.734 -15.408   2.889  1.00  0.00    -0.324 N 
HETATM   12  C   UNL     1      40.642 -15.480   3.902  1.00  0.00     0.246 C 
HETATM   13  O   UNL     1      40.461 -16.282   4.818  1.00  0.00    -0.268 OA
HETATM   14  H   UNL     1      39.009 -16.100   3.037  1.00  0.00     0.169 HD
BRANCH  12  15
HETATM   15  C   UNL     1      41.812 -14.587   3.935  1.00  0.00     0.082 C 
HETATM   16  C   UNL     1      43.038 -14.965   3.525  1.00  0.00    -0.045 C 
HETATM   17  C   UNL     1      44.220 -14.039   3.592  1.00  0.00     0.049 C 
BRANCH  16  18
HETATM   18  C   UNL     1      43.318 -16.312   2.985  1.00  0.00    -0.008 A 
HETATM   19  C   UNL     1      43.627 -17.419   3.794  1.00  0.00     0.044 A 
HETATM   20 CL   UNL     1      43.724 -17.299   5.516  1.00  0.00    -0.083 Cl
HETATM   21  C   UNL     1      43.879 -18.669   3.218  1.00  0.00     0.024 A 
HETATM   22  C   UNL     1      43.827 -18.827   1.832  1.00  0.00     0.002 A 
HETATM   23  C   UNL     1      43.528 -17.736   1.020  1.00  0.00     0.001 A 
HETATM   24  C   UNL     1      43.274 -16.488   1.593  1.00  0.00     0.013 A 
ENDBRANCH  16  18
ENDBRANCH  12  15
ENDBRANCH   1  11
BRANCH   8  25
HETATM   25  C   UNL     1      40.666 -15.256  -2.819  1.00  0.00     0.270 C 
HETATM   26  N   UNL     1      39.895 -16.386  -2.871  1.00  0.00    -0.365 N 
HETATM   27  H   UNL     1      38.999 -16.383  -2.397  1.00  0.00     0.159 HD
HETATM   28  H   UNL     1      40.219 -17.192  -3.381  1.00  0.00     0.159 HD
HETATM   29  O   UNL     1      41.752 -15.198  -3.385  1.00  0.00    -0.266 OA
ENDBRANCH   8  25
TORSDOF 4
ENDMDL
MODEL 10
REMARK VINA RESULT:      -7.4      4.070      6.469
REMARK  4 active torsions:
REMARK  status: ('A' for Active; 'I' for Inactive)
REMARK    1  A    between atoms: C_2  and  C_3 
REMARK    2  A    between atoms: C_10  and  C_11 
REMARK       I    between atoms: C_11  and  N_12 
REMARK    3  A    between atoms: N_12  and  C_13 
REMARK    4  A    between atoms: C_20  and  C_21 
REMARK       I    between atoms: C_21  and  N_22 
ROOT
HETATM    1  C   UNL     1      40.564 -14.292   4.716  1.00  0.00     0.035 A 
HETATM    2  C   UNL     1      40.912 -13.431   5.761  1.00  0.00     0.046 A 
HETATM    3  C   UNL     1      41.133 -12.059   5.501  1.00  0.00     0.030 A 
HETATM    4  C   UNL     1      41.008 -11.590   4.201  1.00  0.00     0.063 A 
HETATM    5  N   UNL     1      41.284 -10.253   4.269  1.00  0.00    -0.277 N 
HETATM    6  H   UNL     1      41.292  -9.588   3.504  1.00  0.00     0.189 HD
HETATM    7  N   UNL     1      41.569  -9.806   5.504  1.00  0.00    -0.168 NA
HETATM    8  C   UNL     1      41.478 -10.911   6.278  1.00  0.00     0.156 A 
HETATM    9  C   UNL     1      40.668 -12.414   3.130  1.00  0.00     0.034 A 
HETATM   10  C   UNL     1      40.448 -13.768   3.417  1.00  0.00     0.032 A 
ENDROOT
BRANCH   1  11
HETATM   11  N   UNL     1      40.306 -15.670   4.845  1.00  0.00    -0.324 N 
HETATM   12  C   UNL     1      40.955 -16.717   5.427  1.00  0.00     0.246 C 
HETATM   13  O   UNL     1      40.446 -17.838   5.389  1.00  0.00    -0.268 OA
HETATM   14  H   UNL     1      39.454 -16.003   4.408  1.00  0.00     0.169 HD
BRANCH  12  15
HETATM   15  C   UNL     1      42.233 -16.520   6.131  1.00  0.00     0.082 C 
HETATM   16  C   UNL     1      43.426 -16.827   5.588  1.00  0.00    -0.045 C 
HETATM   17  C   UNL     1      44.714 -16.635   6.339  1.00  0.00     0.049 C 
BRANCH  16  18
HETATM   18  C   UNL     1      43.564 -17.375   4.223  1.00  0.00    -0.008 A 
HETATM   19  C   UNL     1      43.692 -16.570   3.078  1.00  0.00     0.044 A 
HETATM   20 CL   UNL     1      43.684 -14.843   3.163  1.00  0.00    -0.083 Cl
HETATM   21  C   UNL     1      43.823 -17.154   1.813  1.00  0.00     0.024 A 
HETATM   22  C   UNL     1      43.825 -18.543   1.677  1.00  0.00     0.002 A 
HETATM   23  C   UNL     1      43.692 -19.350   2.804  1.00  0.00     0.001 A 
HETATM   24  C   UNL     1      43.564 -18.771   4.068  1.00  0.00     0.013 A 
ENDBRANCH  16  18
ENDBRANCH  12  15
ENDBRANCH   1  11
BRANCH   8  25
HETATM   25  C   UNL     1      41.708 -10.854   7.727  1.00  0.00     0.270 C 
HETATM   26  N   UNL     1      40.592 -11.100   8.480  1.00  0.00    -0.365 N 
HETATM   27  H   UNL     1      39.721 -11.301   8.003  1.00  0.00     0.159 HD
HETATM   28  H   UNL     1      40.652 -11.089   9.485  1.00  0.00     0.159 HD
HETATM   29  O   UNL     1      42.792 -10.618   8.251  1.00  0.00    -0.266 OA
ENDBRANCH   8  25
TORSDOF 4
ENDMDL
