MODEL 1
REMARK VINA RESULT:      -8.7      0.000      0.000
REMARK  3 active torsions:
REMARK  status: ('A' for Active; 'I' for Inactive)
REMARK    1  A    between atoms: C_8  and  C_9 
REMARK       I    between atoms: C_9  and  N_10 
REMARK    2  A    between atoms: N_10  and  C_11 
REMARK    3  A    between atoms: C_18  and  C_19 
REMARK       I    between atoms: C_19  and  N_20 
ROOT
HETATM    1  C   UNL     1      41.293 -16.396   1.639  1.00  0.00     0.036 A 
HETATM    2  C   UNL     1      41.436 -16.127   0.271  1.00  0.00     0.046 A 
HETATM    3  C   UNL     1      40.636 -15.130  -0.331  1.00  0.00     0.030 A 
HETATM    4  C   UNL     1      39.750 -14.413   0.463  1.00  0.00     0.063 A 
HETATM    5  N   UNL     1      39.142 -13.528  -0.384  1.00  0.00    -0.277 N 
HETATM    6  H   UNL     1      38.440 -12.836  -0.147  1.00  0.00     0.189 HD
HETATM    7  N   UNL     1      39.528 -13.628  -1.666  1.00  0.00    -0.168 NA
HETATM    8  C   UNL     1      40.449 -14.619  -1.650  1.00  0.00     0.156 A 
HETATM    9  C   UNL     1      39.592 -14.644   1.831  1.00  0.00     0.034 A 
HETATM   10  C   UNL     1      40.371 -15.661   2.397  1.00  0.00     0.032 A 
ENDROOT
BRANCH   1  11
HETATM   11  N   UNL     1      42.004 -17.417   2.309  1.00  0.00    -0.323 N 
HETATM   12  C   UNL     1      43.373 -17.624   2.290  1.00  0.00     0.258 C 
HETATM   13  O   UNL     1      44.214 -16.880   1.807  1.00  0.00    -0.267 OA
HETATM   14  H   UNL     1      41.433 -18.069   2.830  1.00  0.00     0.169 HD
BRANCH  12  15
HETATM   15  C   UNL     1      43.827 -18.884   2.940  1.00  0.00     0.056 A 
HETATM   16  C   UNL     1      44.115 -18.929   4.311  1.00  0.00     0.048 A 
HETATM   17  C   UNL     1      43.958 -17.735   5.210  1.00  0.00     0.071 C 
HETATM   18  N   UNL     1      44.558 -20.062   4.924  1.00  0.00    -0.241 NA
HETATM   19  C   UNL     1      44.700 -21.166   4.165  1.00  0.00     0.126 A 
HETATM   20 CL   UNL     1      45.269 -22.546   5.008  1.00  0.00    -0.063 Cl
HETATM   21  C   UNL     1      44.421 -21.223   2.813  1.00  0.00     0.045 A 
HETATM   22  C   UNL     1      43.972 -20.061   2.191  1.00  0.00     0.022 A 
ENDBRANCH  12  15
ENDBRANCH   1  11
BRANCH   8  23
HETATM   23  C   UNL     1      41.104 -15.069  -2.886  1.00  0.00     0.270 C 
HETATM   24  N   UNL     1      42.263 -14.403  -3.179  1.00  0.00    -0.365 N 
HETATM   25  H   UNL     1      42.563 -13.658  -2.562  1.00  0.00     0.159 HD
HETATM   26  H   UNL     1      42.758 -14.617  -4.030  1.00  0.00     0.159 HD
HETATM   27  O   UNL     1      40.673 -15.948  -3.626  1.00  0.00    -0.266 OA
ENDBRANCH   8  23
TORSDOF 3
ENDMDL
MODEL 2
REMARK VINA RESULT:      -8.0      2.973      4.590
REMARK  3 active torsions:
REMARK  status: ('A' for Active; 'I' for Inactive)
REMARK    1  A    between atoms: C_8  and  C_9 
REMARK       I    between atoms: C_9  and  N_10 
REMARK    2  A    between atoms: N_10  and  C_11 
REMARK    3  A    between atoms: C_18  and  C_19 
REMARK       I    between atoms: C_19  and  N_20 
ROOT
HETATM    1  C   UNL     1      40.953 -16.070   3.278  1.00  0.00     0.036 A 
HETATM    2  C   UNL     1      40.801 -15.153   4.327  1.00  0.00     0.046 A 
HETATM    3  C   UNL     1      40.085 -13.957   4.109  1.00  0.00     0.030 A 
HETATM    4  C   UNL     1      39.514 -13.735   2.861  1.00  0.00     0.063 A 
HETATM    5  N   UNL     1      38.886 -12.525   2.961  1.00  0.00    -0.277 N 
HETATM    6  H   UNL     1      38.355 -12.048   2.241  1.00  0.00     0.189 HD
HETATM    7  N   UNL     1      39.026 -11.920   4.152  1.00  0.00    -0.168 NA
HETATM    8  C   UNL     1      39.769 -12.792   4.872  1.00  0.00     0.156 A 
HETATM    9  C   UNL     1      39.633 -14.632   1.798  1.00  0.00     0.034 A 
HETATM   10  C   UNL     1      40.377 -15.796   2.030  1.00  0.00     0.032 A 
ENDROOT
BRANCH   1  11
HETATM   11  N   UNL     1      41.707 -17.261   3.387  1.00  0.00    -0.323 N 
HETATM   12  C   UNL     1      43.011 -17.457   2.965  1.00  0.00     0.258 C 
HETATM   13  O   UNL     1      43.780 -16.600   2.555  1.00  0.00    -0.267 OA
HETATM   14  H   UNL     1      41.218 -18.045   3.795  1.00  0.00     0.169 HD
BRANCH  12  15
HETATM   15  C   UNL     1      43.491 -18.864   3.043  1.00  0.00     0.056 A 
HETATM   16  C   UNL     1      44.147 -19.343   4.185  1.00  0.00     0.048 A 
HETATM   17  C   UNL     1      44.379 -18.493   5.402  1.00  0.00     0.071 C 
HETATM   18  N   UNL     1      44.620 -20.618   4.270  1.00  0.00    -0.241 NA
HETATM   19  C   UNL     1      44.423 -21.428   3.212  1.00  0.00     0.126 A 
HETATM   20 CL   UNL     1      45.053 -23.011   3.394  1.00  0.00    -0.063 Cl
HETATM   21  C   UNL     1      43.770 -21.051   2.053  1.00  0.00     0.045 A 
HETATM   22  C   UNL     1      43.292 -19.746   1.970  1.00  0.00     0.022 A 
ENDBRANCH  12  15
ENDBRANCH   1  11
BRANCH   8  23
HETATM   23  C   UNL     1      40.181 -12.485   6.249  1.00  0.00     0.270 C 
HETATM   24  N   UNL     1      39.343 -12.988   7.207  1.00  0.00    -0.365 N 
HETATM   25  H   UNL     1      38.517 -13.494   6.912  1.00  0.00     0.159 HD
HETATM   26  H   UNL     1      39.525 -12.792   8.179  1.00  0.00     0.159 HD
HETATM   27  O   UNL     1      41.170 -11.827   6.553  1.00  0.00    -0.266 OA
ENDBRANCH   8  23
TORSDOF 3
ENDMDL
MODEL 3
REMARK VINA RESULT:      -7.9      3.524      8.136
REMARK  3 active torsions:
REMARK  status: ('A' for Active; 'I' for Inactive)
REMARK    1  A    between atoms: C_8  and  C_9 
REMARK       I    between atoms: C_9  and  N_10 
REMARK    2  A    between atoms: N_10  and  C_11 
REMARK    3  A    between atoms: C_18  and  C_19 
REMARK       I    between atoms: C_19  and  N_20 
ROOT
HETATM    1  C   UNL     1      43.348 -17.405   1.996  1.00  0.00     0.036 A 
HETATM    2  C   UNL     1      43.498 -17.102   3.357  1.00  0.00     0.046 A 
HETATM    3  C   UNL     1      43.885 -18.116   4.258  1.00  0.00     0.030 A 
HETATM    4  C   UNL     1      44.146 -19.388   3.764  1.00  0.00     0.063 A 
HETATM    5  N   UNL     1      44.506 -20.132   4.854  1.00  0.00    -0.277 N 
HETATM    6  H   UNL     1      44.775 -21.109   4.867  1.00  0.00     0.189 HD
HETATM    7  N   UNL     1      44.470 -19.467   6.020  1.00  0.00    -0.168 NA
HETATM    8  C   UNL     1      44.082 -18.219   5.668  1.00  0.00     0.156 A 
HETATM    9  C   UNL     1      44.022 -19.722   2.415  1.00  0.00     0.034 A 
HETATM   10  C   UNL     1      43.603 -18.707   1.546  1.00  0.00     0.032 A 
ENDROOT
BRANCH   1  11
HETATM   11  N   UNL     1      42.903 -16.470   1.035  1.00  0.00    -0.323 N 
HETATM   12  C   UNL     1      41.592 -16.095   0.787  1.00  0.00     0.258 C 
HETATM   13  O   UNL     1      40.611 -16.402   1.449  1.00  0.00    -0.267 OA
HETATM   14  H   UNL     1      43.628 -16.063   0.461  1.00  0.00     0.169 HD
BRANCH  12  15
HETATM   15  C   UNL     1      41.402 -15.227  -0.406  1.00  0.00     0.056 A 
HETATM   16  C   UNL     1      41.521 -13.833  -0.313  1.00  0.00     0.048 A 
HETATM   17  C   UNL     1      41.874 -13.134   0.969  1.00  0.00     0.071 C 
HETATM   18  N   UNL     1      41.325 -13.014  -1.384  1.00  0.00    -0.241 NA
HETATM   19  C   UNL     1      41.021 -13.592  -2.563  1.00  0.00     0.126 A 
HETATM   20 CL   UNL     1      40.782 -12.495  -3.858  1.00  0.00    -0.063 Cl
HETATM   21  C   UNL     1      40.904 -14.956  -2.755  1.00  0.00     0.045 A 
HETATM   22  C   UNL     1      41.102 -15.788  -1.656  1.00  0.00     0.022 A 
ENDBRANCH  12  15
ENDBRANCH   1  11
BRANCH   8  23
HETATM   23  C   UNL     1      43.885 -17.171   6.679  1.00  0.00     0.270 C 
HETATM   24  N   UNL     1      42.929 -17.467   7.612  1.00  0.00    -0.365 N 
HETATM   25  H   UNL     1      42.425 -18.342   7.529  1.00  0.00     0.159 HD
HETATM   26  H   UNL     1      42.698 -16.788   8.320  1.00  0.00     0.159 HD
HETATM   27  O   UNL     1      44.492 -16.105   6.709  1.00  0.00    -0.266 OA
ENDBRANCH   8  23
TORSDOF 3
ENDMDL
MODEL 4
REMARK VINA RESULT:      -7.7      2.344      2.937
REMARK  3 active torsions:
REMARK  status: ('A' for Active; 'I' for Inactive)
REMARK    1  A    between atoms: C_8  and  C_9 
REMARK       I    between atoms: C_9  and  N_10 
REMARK    2  A    between atoms: N_10  and  C_11 
REMARK    3  A    between atoms: C_18  and  C_19 
REMARK       I    between atoms: C_19  and  N_20 
ROOT
HETATM    1  C   UNL     1      41.495 -15.805   3.685  1.00  0.00     0.036 A 
HETATM    2  C   UNL     1      40.560 -15.473   2.695  1.00  0.00     0.046 A 
HETATM    3  C   UNL     1      39.888 -14.233   2.759  1.00  0.00     0.030 A 
HETATM    4  C   UNL     1      40.200 -13.354   3.789  1.00  0.00     0.063 A 
HETATM    5  N   UNL     1      39.412 -12.257   3.578  1.00  0.00    -0.277 N 
HETATM    6  H   UNL     1      39.381 -11.408   4.132  1.00  0.00     0.189 HD
HETATM    7  N   UNL     1      38.589 -12.356   2.522  1.00  0.00    -0.168 NA
HETATM    8  C   UNL     1      38.868 -13.576   2.008  1.00  0.00     0.156 A 
HETATM    9  C   UNL     1      41.136 -13.646   4.783  1.00  0.00     0.034 A 
HETATM   10  C   UNL     1      41.764 -14.896   4.717  1.00  0.00     0.032 A 
ENDROOT
BRANCH   1  11
HETATM   11  N   UNL     1      42.166 -17.048   3.736  1.00  0.00    -0.323 N 
HETATM   12  C   UNL     1      43.301 -17.407   3.028  1.00  0.00     0.258 C 
HETATM   13  O   UNL     1      43.997 -16.668   2.346  1.00  0.00    -0.267 OA
HETATM   14  H   UNL     1      41.743 -17.742   4.337  1.00  0.00     0.169 HD
BRANCH  12  15
HETATM   15  C   UNL     1      43.684 -18.841   3.140  1.00  0.00     0.056 A 
HETATM   16  C   UNL     1      44.315 -19.334   4.290  1.00  0.00     0.048 A 
HETATM   17  C   UNL     1      44.617 -18.469   5.482  1.00  0.00     0.071 C 
HETATM   18  N   UNL     1      44.701 -20.635   4.407  1.00  0.00    -0.241 NA
HETATM   19  C   UNL     1      44.439 -21.458   3.372  1.00  0.00     0.126 A 
HETATM   20 CL   UNL     1      44.961 -23.075   3.592  1.00  0.00    -0.063 Cl
HETATM   21  C   UNL     1      43.803 -21.068   2.209  1.00  0.00     0.045 A 
HETATM   22  C   UNL     1      43.415 -19.736   2.093  1.00  0.00     0.022 A 
ENDBRANCH  12  15
ENDBRANCH   1  11
BRANCH   8  23
HETATM   23  C   UNL     1      38.143 -14.092   0.838  1.00  0.00     0.270 C 
HETATM   24  N   UNL     1      38.938 -14.338  -0.248  1.00  0.00    -0.365 N 
HETATM   25  H   UNL     1      39.927 -14.131  -0.182  1.00  0.00     0.159 HD
HETATM   26  H   UNL     1      38.520 -14.656  -1.108  1.00  0.00     0.159 HD
HETATM   27  O   UNL     1      36.932 -14.284   0.794  1.00  0.00    -0.266 OA
ENDBRANCH   8  23
TORSDOF 3
ENDMDL
MODEL 5
REMARK VINA RESULT:      -7.7      3.997      8.072
REMARK  3 active torsions:
REMARK  status: ('A' for Active; 'I' for Inactive)
REMARK    1  A    between atoms: C_8  and  C_9 
REMARK       I    between atoms: C_9  and  N_10 
REMARK    2  A    between atoms: N_10  and  C_11 
REMARK    3  A    between atoms: C_18  and  C_19 
REMARK       I    between atoms: C_19  and  N_20 
ROOT
HETATM    1  C   UNL     1      41.800 -16.698   1.211  1.00  0.00     0.036 A 
HETATM    2  C   UNL     1      41.427 -16.369   2.522  1.00  0.00     0.046 A 
HETATM    3  C   UNL     1      42.205 -16.833   3.605  1.00  0.00     0.030 A 
HETATM    4  C   UNL     1      43.347 -17.578   3.338  1.00  0.00     0.063 A 
HETATM    5  N   UNL     1      43.885 -17.864   4.563  1.00  0.00    -0.277 N 
HETATM    6  H   UNL     1      44.732 -18.388   4.753  1.00  0.00     0.189 HD
HETATM    7  N   UNL     1      43.176 -17.402   5.605  1.00  0.00    -0.168 NA
HETATM    8  C   UNL     1      42.131 -16.765   5.028  1.00  0.00     0.156 A 
HETATM    9  C   UNL     1      43.756 -17.912   2.046  1.00  0.00     0.034 A 
HETATM   10  C   UNL     1      42.949 -17.469   0.991  1.00  0.00     0.032 A 
ENDROOT
BRANCH   1  11
HETATM   11  N   UNL     1      41.046 -16.331   0.073  1.00  0.00    -0.323 N 
HETATM   12  C   UNL     1      41.095 -15.122  -0.600  1.00  0.00     0.258 C 
HETATM   13  O   UNL     1      41.896 -14.217  -0.412  1.00  0.00    -0.267 OA
HETATM   14  H   UNL     1      40.391 -17.028  -0.253  1.00  0.00     0.169 HD
BRANCH  12  15
HETATM   15  C   UNL     1      40.060 -14.947  -1.654  1.00  0.00     0.056 A 
HETATM   16  C   UNL     1      38.900 -14.198  -1.412  1.00  0.00     0.048 A 
HETATM   17  C   UNL     1      38.640 -13.508  -0.103  1.00  0.00     0.071 C 
HETATM   18  N   UNL     1      37.924 -14.046  -2.351  1.00  0.00    -0.241 NA
HETATM   19  C   UNL     1      38.114 -14.632  -3.549  1.00  0.00     0.126 A 
HETATM   20 CL   UNL     1      36.840 -14.401  -4.671  1.00  0.00    -0.063 Cl
HETATM   21  C   UNL     1      39.234 -15.370  -3.886  1.00  0.00     0.045 A 
HETATM   22  C   UNL     1      40.226 -15.526  -2.921  1.00  0.00     0.022 A 
ENDBRANCH  12  15
ENDBRANCH   1  11
BRANCH   8  23
HETATM   23  C   UNL     1      41.081 -16.136   5.842  1.00  0.00     0.270 C 
HETATM   24  N   UNL     1      40.223 -17.025   6.431  1.00  0.00    -0.365 N 
HETATM   25  H   UNL     1      40.350 -18.013   6.251  1.00  0.00     0.159 HD
HETATM   26  H   UNL     1      39.447 -16.681   6.974  1.00  0.00     0.159 HD
HETATM   27  O   UNL     1      40.942 -14.926   5.990  1.00  0.00    -0.266 OA
ENDBRANCH   8  23
TORSDOF 3
ENDMDL
MODEL 6
REMARK VINA RESULT:      -7.7      3.425      7.853
REMARK  3 active torsions:
REMARK  status: ('A' for Active; 'I' for Inactive)
REMARK    1  A    between atoms: C_8  and  C_9 
REMARK       I    between atoms: C_9  and  N_10 
REMARK    2  A    between atoms: N_10  and  C_11 
REMARK    3  A    between atoms: C_18  and  C_19 
REMARK       I    between atoms: C_19  and  N_20 
ROOT
HETATM    1  C   UNL     1      43.253 -17.292   2.707  1.00  0.00     0.036 A 
HETATM    2  C   UNL     1      43.528 -18.660   2.567  1.00  0.00     0.046 A 
HETATM    3  C   UNL     1      43.981 -19.397   3.682  1.00  0.00     0.030 A 
HETATM    4  C   UNL     1      44.109 -18.751   4.906  1.00  0.00     0.063 A 
HETATM    5  N   UNL     1      44.544 -19.711   5.777  1.00  0.00    -0.277 N 
HETATM    6  H   UNL     1      44.737 -19.600   6.766  1.00  0.00     0.189 HD
HETATM    7  N   UNL     1      44.745 -20.918   5.223  1.00  0.00    -0.168 NA
HETATM    8  C   UNL     1      44.405 -20.738   3.925  1.00  0.00     0.156 A 
HETATM    9  C   UNL     1      43.831 -17.395   5.085  1.00  0.00     0.034 A 
HETATM   10  C   UNL     1      43.416 -16.678   3.956  1.00  0.00     0.032 A 
ENDROOT
BRANCH   1  11
HETATM   11  N   UNL     1      42.858 -16.463   1.632  1.00  0.00    -0.323 N 
HETATM   12  C   UNL     1      41.563 -16.110   1.291  1.00  0.00     0.258 C 
HETATM   13  O   UNL     1      40.552 -16.336   1.941  1.00  0.00    -0.267 OA
HETATM   14  H   UNL     1      43.611 -16.126   1.049  1.00  0.00     0.169 HD
BRANCH  12  15
HETATM   15  C   UNL     1      41.431 -15.374   0.004  1.00  0.00     0.056 A 
HETATM   16  C   UNL     1      41.595 -13.983  -0.055  1.00  0.00     0.048 A 
HETATM   17  C   UNL     1      41.939 -13.157   1.152  1.00  0.00     0.071 C 
HETATM   18  N   UNL     1      41.453 -13.283  -1.215  1.00  0.00    -0.241 NA
HETATM   19  C   UNL     1      41.160 -13.979  -2.331  1.00  0.00     0.126 A 
HETATM   20 CL   UNL     1      40.989 -13.027  -3.745  1.00  0.00    -0.063 Cl
HETATM   21  C   UNL     1      41.001 -15.351  -2.374  1.00  0.00     0.045 A 
HETATM   22  C   UNL     1      41.144 -16.061  -1.184  1.00  0.00     0.022 A 
ENDBRANCH  12  15
ENDBRANCH   1  11
BRANCH   8  23
HETATM   23  C   UNL     1      44.517 -21.833   2.951  1.00  0.00     0.270 C 
HETATM   24  N   UNL     1      44.799 -23.050   3.509  1.00  0.00    -0.365 N 
HETATM   25  H   UNL     1      44.931 -23.105   4.511  1.00  0.00     0.159 HD
HETATM   26  H   UNL     1      44.934 -23.851   2.912  1.00  0.00     0.159 HD
HETATM   27  O   UNL     1      44.393 -21.704   1.738  1.00  0.00    -0.266 OA
ENDBRANCH   8  23
TORSDOF 3
ENDMDL
MODEL 7
REMARK VINA RESULT:      -7.4      2.913      3.433
REMARK  3 active torsions:
REMARK  status: ('A' for Active; 'I' for Inactive)
REMARK    1  A    between atoms: C_8  and  C_9 
REMARK       I    between atoms: C_9  and  N_10 
REMARK    2  A    between atoms: N_10  and  C_11 
REMARK    3  A    between atoms: C_18  and  C_19 
REMARK       I    between atoms: C_19  and  N_20 
ROOT
HETATM    1  C   UNL     1      42.786 -14.928   3.767  1.00  0.00     0.036 A 
HETATM    2  C   UNL     1      42.683 -14.281   2.527  1.00  0.00     0.046 A 
HETATM    3  C   UNL     1      42.133 -12.983   2.463  1.00  0.00     0.030 A 
HETATM    4  C   UNL     1      41.739 -12.362   3.642  1.00  0.00     0.063 A 
HETATM    5  N   UNL     1      41.270 -11.134   3.265  1.00  0.00    -0.277 N 
HETATM    6  H   UNL     1      40.907 -10.405   3.869  1.00  0.00     0.189 HD
HETATM    7  N   UNL     1      41.291 -10.912   1.941  1.00  0.00    -0.168 NA
HETATM    8  C   UNL     1      41.818 -12.049   1.431  1.00  0.00     0.156 A 
HETATM    9  C   UNL     1      41.841 -12.971   4.895  1.00  0.00     0.034 A 
HETATM   10  C   UNL     1      42.358 -14.272   4.928  1.00  0.00     0.032 A 
ENDROOT
BRANCH   1  11
HETATM   11  N   UNL     1      43.264 -16.250   3.917  1.00  0.00    -0.323 N 
HETATM   12  C   UNL     1      42.502 -17.405   3.974  1.00  0.00     0.258 C 
HETATM   13  O   UNL     1      41.301 -17.495   3.765  1.00  0.00    -0.267 OA
HETATM   14  H   UNL     1      44.265 -16.338   4.017  1.00  0.00     0.169 HD
BRANCH  12  15
HETATM   15  C   UNL     1      43.258 -18.640   4.320  1.00  0.00     0.056 A 
HETATM   16  C   UNL     1      43.795 -19.463   3.320  1.00  0.00     0.048 A 
HETATM   17  C   UNL     1      43.672 -19.145   1.856  1.00  0.00     0.071 C 
HETATM   18  N   UNL     1      44.466 -20.613   3.609  1.00  0.00    -0.241 NA
HETATM   19  C   UNL     1      44.618 -20.937   4.908  1.00  0.00     0.126 A 
HETATM   20 CL   UNL     1      45.467 -22.399   5.187  1.00  0.00    -0.063 Cl
HETATM   21  C   UNL     1      44.143 -20.177   5.960  1.00  0.00     0.045 A 
HETATM   22  C   UNL     1      43.454 -19.005   5.659  1.00  0.00     0.022 A 
ENDBRANCH  12  15
ENDBRANCH   1  11
BRANCH   8  23
HETATM   23  C   UNL     1      41.982 -12.227  -0.019  1.00  0.00     0.270 C 
HETATM   24  N   UNL     1      40.966 -12.926  -0.615  1.00  0.00    -0.365 N 
HETATM   25  H   UNL     1      40.216 -13.279  -0.034  1.00  0.00     0.159 HD
HETATM   26  H   UNL     1      41.015 -13.131  -1.600  1.00  0.00     0.159 HD
HETATM   27  O   UNL     1      42.936 -11.817  -0.671  1.00  0.00    -0.266 OA
ENDBRANCH   8  23
TORSDOF 3
ENDMDL
MODEL 8
REMARK VINA RESULT:      -7.4      5.696      8.215
REMARK  3 active torsions:
REMARK  status: ('A' for Active; 'I' for Inactive)
REMARK    1  A    between atoms: C_8  and  C_9 
REMARK       I    between atoms: C_9  and  N_10 
REMARK    2  A    between atoms: N_10  and  C_11 
REMARK    3  A    between atoms: C_18  and  C_19 
REMARK       I    between atoms: C_19  and  N_20 
ROOT
HETATM    1  C   UNL     1      43.820 -15.928   6.525  1.00  0.00     0.036 A 
HETATM    2  C   UNL     1      42.997 -16.125   5.407  1.00  0.00     0.046 A 
HETATM    3  C   UNL     1      43.157 -17.286   4.620  1.00  0.00     0.030 A 
HETATM    4  C   UNL     1      44.108 -18.226   4.998  1.00  0.00     0.063 A 
HETATM    5  N   UNL     1      44.017 -19.225   4.068  1.00  0.00    -0.277 N 
HETATM    6  H   UNL     1      44.558 -20.082   4.034  1.00  0.00     0.189 HD
HETATM    7  N   UNL     1      43.117 -19.003   3.097  1.00  0.00    -0.168 NA
HETATM    8  C   UNL     1      42.579 -17.804   3.422  1.00  0.00     0.156 A 
HETATM    9  C   UNL     1      44.934 -18.070   6.112  1.00  0.00     0.034 A 
HETATM   10  C   UNL     1      44.780 -16.894   6.857  1.00  0.00     0.032 A 
ENDROOT
BRANCH   1  11
HETATM   11  N   UNL     1      43.774 -14.767   7.330  1.00  0.00    -0.323 N 
HETATM   12  C   UNL     1      44.627 -13.678   7.264  1.00  0.00     0.258 C 
HETATM   13  O   UNL     1      45.475 -13.469   6.409  1.00  0.00    -0.267 OA
HETATM   14  H   UNL     1      43.053 -14.762   8.039  1.00  0.00     0.169 HD
BRANCH  12  15
HETATM   15  C   UNL     1      44.456 -12.680   8.355  1.00  0.00     0.056 A 
HETATM   16  C   UNL     1      43.432 -11.723   8.307  1.00  0.00     0.048 A 
HETATM   17  C   UNL     1      42.434 -11.661   7.185  1.00  0.00     0.071 C 
HETATM   18  N   UNL     1      43.272 -10.782   9.279  1.00  0.00    -0.241 NA
HETATM   19  C   UNL     1      44.131 -10.804  10.317  1.00  0.00     0.126 A 
HETATM   20 CL   UNL     1      43.868  -9.584  11.491  1.00  0.00    -0.063 Cl
HETATM   21  C   UNL     1      45.156 -11.720  10.460  1.00  0.00     0.045 A 
HETATM   22  C   UNL     1      45.318 -12.678   9.462  1.00  0.00     0.022 A 
ENDBRANCH  12  15
ENDBRANCH   1  11
BRANCH   8  23
HETATM   23  C   UNL     1      41.556 -17.175   2.576  1.00  0.00     0.270 C 
HETATM   24  N   UNL     1      41.541 -17.630   1.285  1.00  0.00    -0.365 N 
HETATM   25  H   UNL     1      42.227 -18.321   1.007  1.00  0.00     0.159 HD
HETATM   26  H   UNL     1      40.899 -17.225   0.623  1.00  0.00     0.159 HD
HETATM   27  O   UNL     1      40.777 -16.305   2.951  1.00  0.00    -0.266 OA
ENDBRANCH   8  23
TORSDOF 3
ENDMDL
MODEL 9
REMARK VINA RESULT:      -7.4      3.591      7.886
REMARK  3 active torsions:
REMARK  status: ('A' for Active; 'I' for Inactive)
REMARK    1  A    between atoms: C_8  and  C_9 
REMARK       I    between atoms: C_9  and  N_10 
REMARK    2  A    between atoms: N_10  and  C_11 
REMARK    3  A    between atoms: C_18  and  C_19 
REMARK       I    between atoms: C_19  and  N_20 
ROOT
HETATM    1  C   UNL     1      43.612 -17.324   3.419  1.00  0.00     0.036 A 
HETATM    2  C   UNL     1      43.678 -18.610   2.863  1.00  0.00     0.046 A 
HETATM    3  C   UNL     1      44.087 -19.696   3.666  1.00  0.00     0.030 A 
HETATM    4  C   UNL     1      44.379 -19.467   5.005  1.00  0.00     0.063 A 
HETATM    5  N   UNL     1      44.722 -20.690   5.514  1.00  0.00    -0.277 N 
HETATM    6  H   UNL     1      44.988 -20.904   6.468  1.00  0.00     0.189 HD
HETATM    7  N   UNL     1      44.714 -21.689   4.617  1.00  0.00    -0.168 NA
HETATM    8  C   UNL     1      44.327 -21.089   3.468  1.00  0.00     0.156 A 
HETATM    9  C   UNL     1      44.310 -18.205   5.596  1.00  0.00     0.034 A 
HETATM   10  C   UNL     1      43.936 -17.137   4.770  1.00  0.00     0.032 A 
ENDROOT
BRANCH   1  11
HETATM   11  N   UNL     1      43.277 -16.171   2.675  1.00  0.00    -0.323 N 
HETATM   12  C   UNL     1      42.012 -15.633   2.505  1.00  0.00     0.258 C 
HETATM   13  O   UNL     1      40.991 -15.979   3.081  1.00  0.00    -0.267 OA
HETATM   14  H   UNL     1      44.050 -15.721   2.204  1.00  0.00     0.169 HD
BRANCH  12  15
HETATM   15  C   UNL     1      41.931 -14.519   1.521  1.00  0.00     0.056 A 
HETATM   16  C   UNL     1      41.649 -14.765   0.170  1.00  0.00     0.048 A 
HETATM   17  C   UNL     1      41.383 -16.145  -0.363  1.00  0.00     0.071 C 
HETATM   18  N   UNL     1      41.596 -13.766  -0.755  1.00  0.00    -0.241 NA
HETATM   19  C   UNL     1      41.810 -12.507  -0.326  1.00  0.00     0.126 A 
HETATM   20 CL   UNL     1      41.735 -11.310  -1.550  1.00  0.00    -0.063 Cl
HETATM   21  C   UNL     1      42.074 -12.166   0.987  1.00  0.00     0.045 A 
HETATM   22  C   UNL     1      42.131 -13.191   1.928  1.00  0.00     0.022 A 
ENDBRANCH  12  15
ENDBRANCH   1  11
BRANCH   8  23
HETATM   23  C   UNL     1      44.222 -21.846   2.212  1.00  0.00     0.270 C 
HETATM   24  N   UNL     1      43.019 -21.707   1.575  1.00  0.00    -0.365 N 
HETATM   25  H   UNL     1      42.304 -21.136   2.008  1.00  0.00     0.159 HD
HETATM   26  H   UNL     1      42.843 -22.223   0.727  1.00  0.00     0.159 HD
HETATM   27  O   UNL     1      45.105 -22.563   1.752  1.00  0.00    -0.266 OA
ENDBRANCH   8  23
TORSDOF 3
ENDMDL
MODEL 10
REMARK VINA RESULT:      -7.3      3.895      5.341
REMARK  3 active torsions:
REMARK  status: ('A' for Active; 'I' for Inactive)
REMARK    1  A    between atoms: C_8  and  C_9 
REMARK       I    between atoms: C_9  and  N_10 
REMARK    2  A    between atoms: N_10  and  C_11 
REMARK    3  A    between atoms: C_18  and  C_19 
REMARK       I    between atoms: C_19  and  N_20 
ROOT
HETATM    1  C   UNL     1      42.497 -14.759   3.751  1.00  0.00     0.036 A 
HETATM    2  C   UNL     1      41.798 -14.079   4.757  1.00  0.00     0.046 A 
HETATM    3  C   UNL     1      41.369 -12.753   4.533  1.00  0.00     0.030 A 
HETATM    4  C   UNL     1      41.622 -12.166   3.300  1.00  0.00     0.063 A 
HETATM    5  N   UNL     1      41.085 -10.911   3.380  1.00  0.00    -0.277 N 
HETATM    6  H   UNL     1      41.075 -10.201   2.657  1.00  0.00     0.189 HD
HETATM    7  N   UNL     1      40.534 -10.615   4.568  1.00  0.00    -0.168 NA
HETATM    8  C   UNL     1      40.707 -11.743   5.294  1.00  0.00     0.156 A 
HETATM    9  C   UNL     1      42.303 -12.818   2.270  1.00  0.00     0.034 A 
HETATM   10  C   UNL     1      42.748 -14.120   2.529  1.00  0.00     0.032 A 
ENDROOT
BRANCH   1  11
HETATM   11  N   UNL     1      43.019 -16.063   3.910  1.00  0.00    -0.323 N 
HETATM   12  C   UNL     1      42.304 -17.249   3.903  1.00  0.00     0.258 C 
HETATM   13  O   UNL     1      41.123 -17.384   3.618  1.00  0.00    -0.267 OA
HETATM   14  H   UNL     1      44.016 -16.112   4.072  1.00  0.00     0.169 HD
BRANCH  12  15
HETATM   15  C   UNL     1      43.088 -18.458   4.276  1.00  0.00     0.056 A 
HETATM   16  C   UNL     1      43.679 -19.268   3.297  1.00  0.00     0.048 A 
HETATM   17  C   UNL     1      43.588 -18.961   1.828  1.00  0.00     0.071 C 
HETATM   18  N   UNL     1      44.378 -20.395   3.611  1.00  0.00    -0.241 NA
HETATM   19  C   UNL     1      44.503 -20.708   4.915  1.00  0.00     0.126 A 
HETATM   20 CL   UNL     1      45.389 -22.141   5.226  1.00  0.00    -0.063 Cl
HETATM   21  C   UNL     1      43.975 -19.959   5.950  1.00  0.00     0.045 A 
HETATM   22  C   UNL     1      43.258 -18.810   5.623  1.00  0.00     0.022 A 
ENDBRANCH  12  15
ENDBRANCH   1  11
BRANCH   8  23
HETATM   23  C   UNL     1      40.264 -11.823   6.694  1.00  0.00     0.270 C 
HETATM   24  N   UNL     1      41.246 -11.551   7.607  1.00  0.00    -0.365 N 
HETATM   25  H   UNL     1      42.179 -11.348   7.269  1.00  0.00     0.159 HD
HETATM   26  H   UNL     1      41.043 -11.622   8.591  1.00  0.00     0.159 HD
HETATM   27  O   UNL     1      39.129 -12.119   7.052  1.00  0.00    -0.266 OA
ENDBRANCH   8  23
TORSDOF 3
ENDMDL
