MODEL 1
REMARK VINA RESULT:      -8.8      0.000      0.000
REMARK  4 active torsions:
REMARK  status: ('A' for Active; 'I' for Inactive)
REMARK    1  A    between atoms: C_8  and  C_9 
REMARK       I    between atoms: C_9  and  N_10 
REMARK    2  A    between atoms: N_10  and  C_11 
REMARK    3  A    between atoms: C_13  and  C_14 
REMARK       I    between atoms: C_14  and  N_15 
REMARK    4  A    between atoms: N_15  and  C_16 
ROOT
HETATM    1  C   UNL     1      43.434 -17.293   2.753  1.00  0.00     0.277 C 
HETATM    2  N   UNL     1      42.064 -17.129   2.871  1.00  0.00    -0.322 N 
HETATM    3  O   UNL     1      44.181 -16.628   2.042  1.00  0.00    -0.266 OA
HETATM    4  H   UNL     1      41.629 -17.824   3.475  1.00  0.00     0.169 HD
ENDROOT
BRANCH   2   5
HETATM    5  C   UNL     1      41.244 -16.164   2.265  1.00  0.00     0.036 A 
HETATM    6  C   UNL     1      41.213 -15.933   0.886  1.00  0.00     0.046 A 
HETATM    7  C   UNL     1      40.363 -14.956   0.349  1.00  0.00     0.034 A 
HETATM    8  C   UNL     1      39.564 -14.185   1.200  1.00  0.00     0.017 A 
HETATM    9  C   UNL     1      39.598 -14.404   2.576  1.00  0.00     0.003 A 
HETATM   10  C   UNL     1      40.433 -15.391   3.104  1.00  0.00     0.029 A 
BRANCH   7  11
HETATM   11  C   UNL     1      40.312 -14.677  -1.115  1.00  0.00     0.252 C 
HETATM   12  N   UNL     1      39.071 -14.786  -1.717  1.00  0.00    -0.352 N 
HETATM   13  H   UNL     1      38.250 -14.949  -1.147  1.00  0.00     0.163 HD
HETATM   14  O   UNL     1      41.333 -14.346  -1.708  1.00  0.00    -0.268 OA
BRANCH  12  15
HETATM   15  C   UNL     1      38.881 -14.592  -3.119  1.00  0.00     0.084 A 
HETATM   16  C   UNL     1      39.046 -15.747  -4.067  1.00  0.00     0.027 A 
HETATM   17  C   UNL     1      37.683 -15.173  -3.818  1.00  0.00     0.027 A 
ENDBRANCH  12  15
ENDBRANCH   7  11
ENDBRANCH   2   5
BRANCH   1  18
HETATM   18  C   UNL     1      43.925 -18.404   3.590  1.00  0.00     0.157 A 
HETATM   19  C   UNL     1      44.053 -19.775   3.224  1.00  0.00     0.028 A 
HETATM   20  C   UNL     1      43.796 -20.548   2.075  1.00  0.00     0.016 A 
HETATM   21  C   UNL     1      44.569 -20.404   4.351  1.00  0.00     0.063 A 
HETATM   22  C   UNL     1      44.068 -21.921   2.104  1.00  0.00     0.001 A 
HETATM   23  C   UNL     1      44.587 -22.521   3.250  1.00  0.00     0.002 A 
HETATM   24  C   UNL     1      44.851 -21.773   4.402  1.00  0.00     0.032 A 
HETATM   25  N   UNL     1      44.708 -19.415   5.284  1.00  0.00    -0.277 N 
HETATM   26  H   UNL     1      45.062 -19.511   6.230  1.00  0.00     0.189 HD
HETATM   27  N   UNL     1      44.325 -18.194   4.866  1.00  0.00    -0.168 NA
ENDBRANCH   1  18
TORSDOF 4
ENDMDL
MODEL 2
REMARK VINA RESULT:      -8.2      1.556      1.837
REMARK  4 active torsions:
REMARK  status: ('A' for Active; 'I' for Inactive)
REMARK    1  A    between atoms: C_8  and  C_9 
REMARK       I    between atoms: C_9  and  N_10 
REMARK    2  A    between atoms: N_10  and  C_11 
REMARK    3  A    between atoms: C_13  and  C_14 
REMARK       I    between atoms: C_14  and  N_15 
REMARK    4  A    between atoms: N_15  and  C_16 
ROOT
HETATM    1  C   UNL     1      43.135 -16.684   3.364  1.00  0.00     0.277 C 
HETATM    2  N   UNL     1      41.795 -16.580   3.696  1.00  0.00    -0.322 N 
HETATM    3  O   UNL     1      43.782 -15.870   2.713  1.00  0.00    -0.266 OA
HETATM    4  H   UNL     1      41.443 -17.395   4.195  1.00  0.00     0.169 HD
ENDROOT
BRANCH   2   5
HETATM    5  C   UNL     1      40.905 -15.530   3.421  1.00  0.00     0.036 A 
HETATM    6  C   UNL     1      40.134 -15.458   2.257  1.00  0.00     0.046 A 
HETATM    7  C   UNL     1      39.260 -14.381   2.050  1.00  0.00     0.034 A 
HETATM    8  C   UNL     1      39.182 -13.356   3.000  1.00  0.00     0.017 A 
HETATM    9  C   UNL     1      39.955 -13.419   4.158  1.00  0.00     0.003 A 
HETATM   10  C   UNL     1      40.811 -14.502   4.366  1.00  0.00     0.029 A 
BRANCH   7  11
HETATM   11  C   UNL     1      38.429 -14.268   0.817  1.00  0.00     0.252 C 
HETATM   12  N   UNL     1      39.110 -14.303  -0.386  1.00  0.00    -0.352 N 
HETATM   13  H   UNL     1      40.104 -14.498  -0.395  1.00  0.00     0.163 HD
HETATM   14  O   UNL     1      37.210 -14.177   0.910  1.00  0.00    -0.268 OA
BRANCH  12  15
HETATM   15  C   UNL     1      38.449 -14.160  -1.645  1.00  0.00     0.084 A 
HETATM   16  C   UNL     1      38.270 -12.796  -2.250  1.00  0.00     0.027 A 
HETATM   17  C   UNL     1      39.220 -13.773  -2.876  1.00  0.00     0.027 A 
ENDBRANCH  12  15
ENDBRANCH   7  11
ENDBRANCH   2   5
BRANCH   1  18
HETATM   18  C   UNL     1      43.730 -17.932   3.877  1.00  0.00     0.157 A 
HETATM   19  C   UNL     1      43.789 -19.198   3.224  1.00  0.00     0.028 A 
HETATM   20  C   UNL     1      43.360 -19.726   1.990  1.00  0.00     0.016 A 
HETATM   21  C   UNL     1      44.457 -20.033   4.113  1.00  0.00     0.063 A 
HETATM   22  C   UNL     1      43.619 -21.070   1.699  1.00  0.00     0.001 A 
HETATM   23  C   UNL     1      44.293 -21.881   2.612  1.00  0.00     0.002 A 
HETATM   24  C   UNL     1      44.728 -21.378   3.843  1.00  0.00     0.032 A 
HETATM   25  N   UNL     1      44.739 -19.252   5.198  1.00  0.00    -0.277 N 
HETATM   26  H   UNL     1      45.225 -19.532   6.044  1.00  0.00     0.189 HD
HETATM   27  N   UNL     1      44.312 -17.979   5.098  1.00  0.00    -0.168 NA
ENDBRANCH   1  18
TORSDOF 4
ENDMDL
MODEL 3
REMARK VINA RESULT:      -8.1      5.692      8.880
REMARK  4 active torsions:
REMARK  status: ('A' for Active; 'I' for Inactive)
REMARK    1  A    between atoms: C_8  and  C_9 
REMARK       I    between atoms: C_9  and  N_10 
REMARK    2  A    between atoms: N_10  and  C_11 
REMARK    3  A    between atoms: C_13  and  C_14 
REMARK       I    between atoms: C_14  and  N_15 
REMARK    4  A    between atoms: N_15  and  C_16 
ROOT
HETATM    1  C   UNL     1      44.349 -14.047   7.148  1.00  0.00     0.277 C 
HETATM    2  N   UNL     1      43.546 -15.159   7.335  1.00  0.00    -0.322 N 
HETATM    3  O   UNL     1      45.429 -14.028   6.565  1.00  0.00    -0.266 OA
HETATM    4  H   UNL     1      42.717 -14.963   7.894  1.00  0.00     0.169 HD
ENDROOT
BRANCH   2   5
HETATM    5  C   UNL     1      43.745 -16.470   6.875  1.00  0.00     0.036 A 
HETATM    6  C   UNL     1      43.773 -16.817   5.521  1.00  0.00     0.046 A 
HETATM    7  C   UNL     1      43.984 -18.148   5.133  1.00  0.00     0.034 A 
HETATM    8  C   UNL     1      44.135 -19.141   6.108  1.00  0.00     0.017 A 
HETATM    9  C   UNL     1      44.098 -18.802   7.459  1.00  0.00     0.003 A 
HETATM   10  C   UNL     1      43.905 -17.472   7.839  1.00  0.00     0.029 A 
BRANCH   7  11
HETATM   11  C   UNL     1      44.011 -18.555   3.699  1.00  0.00     0.252 C 
HETATM   12  N   UNL     1      43.909 -19.910   3.443  1.00  0.00    -0.352 N 
HETATM   13  H   UNL     1      43.725 -20.551   4.205  1.00  0.00     0.163 HD
HETATM   14  O   UNL     1      44.094 -17.698   2.825  1.00  0.00    -0.268 OA
BRANCH  12  15
HETATM   15  C   UNL     1      43.966 -20.446   2.120  1.00  0.00     0.084 A 
HETATM   16  C   UNL     1      44.592 -21.791   1.881  1.00  0.00     0.027 A 
HETATM   17  C   UNL     1      43.110 -21.619   1.730  1.00  0.00     0.027 A 
ENDBRANCH  12  15
ENDBRANCH   7  11
ENDBRANCH   2   5
BRANCH   1  18
HETATM   18  C   UNL     1      43.762 -12.840   7.757  1.00  0.00     0.157 A 
HETATM   19  C   UNL     1      44.205 -12.156   8.927  1.00  0.00     0.028 A 
HETATM   20  C   UNL     1      45.237 -12.319   9.871  1.00  0.00     0.016 A 
HETATM   21  C   UNL     1      43.332 -11.082   9.069  1.00  0.00     0.063 A 
HETATM   22  C   UNL     1      45.353 -11.399  10.919  1.00  0.00     0.001 A 
HETATM   23  C   UNL     1      44.463 -10.333  11.033  1.00  0.00     0.002 A 
HETATM   24  C   UNL     1      43.430 -10.150  10.107  1.00  0.00     0.032 A 
HETATM   25  N   UNL     1      42.456 -11.188   8.026  1.00  0.00    -0.277 N 
HETATM   26  H   UNL     1      41.682 -10.569   7.812  1.00  0.00     0.189 HD
HETATM   27  N   UNL     1      42.678 -12.238   7.213  1.00  0.00    -0.168 NA
ENDBRANCH   1  18
TORSDOF 4
ENDMDL
MODEL 4
REMARK VINA RESULT:      -7.9      1.626      1.740
REMARK  4 active torsions:
REMARK  status: ('A' for Active; 'I' for Inactive)
REMARK    1  A    between atoms: C_8  and  C_9 
REMARK       I    between atoms: C_9  and  N_10 
REMARK    2  A    between atoms: N_10  and  C_11 
REMARK    3  A    between atoms: C_13  and  C_14 
REMARK       I    between atoms: C_14  and  N_15 
REMARK    4  A    between atoms: N_15  and  C_16 
ROOT
HETATM    1  C   UNL     1      42.044 -16.707   2.925  1.00  0.00     0.277 C 
HETATM    2  N   UNL     1      42.709 -15.663   2.305  1.00  0.00    -0.322 N 
HETATM    3  O   UNL     1      40.827 -16.852   2.987  1.00  0.00    -0.266 OA
HETATM    4  H   UNL     1      43.720 -15.708   2.420  1.00  0.00     0.169 HD
ENDROOT
BRANCH   2   5
HETATM    5  C   UNL     1      42.167 -14.588   1.581  1.00  0.00     0.036 A 
HETATM    6  C   UNL     1      41.614 -14.719   0.304  1.00  0.00     0.046 A 
HETATM    7  C   UNL     1      41.086 -13.601  -0.358  1.00  0.00     0.034 A 
HETATM    8  C   UNL     1      41.140 -12.342   0.250  1.00  0.00     0.017 A 
HETATM    9  C   UNL     1      41.698 -12.205   1.520  1.00  0.00     0.003 A 
HETATM   10  C   UNL     1      42.207 -13.324   2.181  1.00  0.00     0.029 A 
BRANCH   7  11
HETATM   11  C   UNL     1      40.497 -13.703  -1.725  1.00  0.00     0.252 C 
HETATM   12  N   UNL     1      40.261 -14.980  -2.197  1.00  0.00    -0.352 N 
HETATM   13  H   UNL     1      40.397 -15.775  -1.584  1.00  0.00     0.163 HD
HETATM   14  O   UNL     1      40.227 -12.682  -2.348  1.00  0.00    -0.268 OA
BRANCH  12  15
HETATM   15  C   UNL     1      39.742 -15.230  -3.505  1.00  0.00     0.084 A 
HETATM   16  C   UNL     1      39.134 -16.565  -3.831  1.00  0.00     0.027 A 
HETATM   17  C   UNL     1      38.261 -15.350  -3.733  1.00  0.00     0.027 A 
ENDBRANCH  12  15
ENDBRANCH   7  11
ENDBRANCH   2   5
BRANCH   1  18
HETATM   18  C   UNL     1      42.983 -17.660   3.545  1.00  0.00     0.157 A 
HETATM   19  C   UNL     1      43.360 -18.946   3.060  1.00  0.00     0.028 A 
HETATM   20  C   UNL     1      43.039 -19.747   1.946  1.00  0.00     0.016 A 
HETATM   21  C   UNL     1      44.272 -19.431   3.991  1.00  0.00     0.063 A 
HETATM   22  C   UNL     1      43.646 -21.001   1.812  1.00  0.00     0.001 A 
HETATM   23  C   UNL     1      44.557 -21.457   2.762  1.00  0.00     0.002 A 
HETATM   24  C   UNL     1      44.892 -20.680   3.876  1.00  0.00     0.032 A 
HETATM   25  N   UNL     1      44.376 -18.451   4.938  1.00  0.00    -0.277 N 
HETATM   26  H   UNL     1      44.958 -18.462   5.769  1.00  0.00     0.189 HD
HETATM   27  N   UNL     1      43.611 -17.368   4.708  1.00  0.00    -0.168 NA
ENDBRANCH   1  18
TORSDOF 4
ENDMDL
MODEL 5
REMARK VINA RESULT:      -7.9      2.864      4.542
REMARK  4 active torsions:
REMARK  status: ('A' for Active; 'I' for Inactive)
REMARK    1  A    between atoms: C_8  and  C_9 
REMARK       I    between atoms: C_9  and  N_10 
REMARK    2  A    between atoms: N_10  and  C_11 
REMARK    3  A    between atoms: C_13  and  C_14 
REMARK       I    between atoms: C_14  and  N_15 
REMARK    4  A    between atoms: N_15  and  C_16 
ROOT
HETATM    1  C   UNL     1      43.216 -17.077   3.281  1.00  0.00     0.277 C 
HETATM    2  N   UNL     1      41.870 -16.975   3.590  1.00  0.00    -0.322 N 
HETATM    3  O   UNL     1      43.863 -16.281   2.607  1.00  0.00    -0.266 OA
HETATM    4  H   UNL     1      41.519 -17.773   4.116  1.00  0.00     0.169 HD
ENDROOT
BRANCH   2   5
HETATM    5  C   UNL     1      40.972 -15.947   3.260  1.00  0.00     0.036 A 
HETATM    6  C   UNL     1      40.823 -14.780   4.016  1.00  0.00     0.046 A 
HETATM    7  C   UNL     1      39.910 -13.791   3.622  1.00  0.00     0.034 A 
HETATM    8  C   UNL     1      39.120 -13.987   2.484  1.00  0.00     0.017 A 
HETATM    9  C   UNL     1      39.258 -15.153   1.733  1.00  0.00     0.003 A 
HETATM   10  C   UNL     1      40.181 -16.126   2.120  1.00  0.00     0.029 A 
BRANCH   7  11
HETATM   11  C   UNL     1      39.719 -12.539   4.410  1.00  0.00     0.252 C 
HETATM   12  N   UNL     1      40.221 -11.380   3.848  1.00  0.00    -0.352 N 
HETATM   13  H   UNL     1      40.600 -11.400   2.909  1.00  0.00     0.163 HD
HETATM   14  O   UNL     1      39.120 -12.578   5.479  1.00  0.00    -0.268 OA
BRANCH  12  15
HETATM   15  C   UNL     1      40.151 -10.115   4.510  1.00  0.00     0.084 A 
HETATM   16  C   UNL     1      41.271  -9.673   5.409  1.00  0.00     0.027 A 
HETATM   17  C   UNL     1      41.049  -8.982   4.097  1.00  0.00     0.027 A 
ENDBRANCH  12  15
ENDBRANCH   7  11
ENDBRANCH   2   5
BRANCH   1  18
HETATM   18  C   UNL     1      43.816 -18.297   3.852  1.00  0.00     0.157 A 
HETATM   19  C   UNL     1      43.904 -19.585   3.248  1.00  0.00     0.028 A 
HETATM   20  C   UNL     1      43.506 -20.164   2.028  1.00  0.00     0.016 A 
HETATM   21  C   UNL     1      44.565 -20.377   4.181  1.00  0.00     0.063 A 
HETATM   22  C   UNL     1      43.788 -21.515   1.793  1.00  0.00     0.001 A 
HETATM   23  C   UNL     1      44.453 -22.282   2.747  1.00  0.00     0.002 A 
HETATM   24  C   UNL     1      44.858 -21.727   3.967  1.00  0.00     0.032 A 
HETATM   25  N   UNL     1      44.816 -19.552   5.241  1.00  0.00    -0.277 N 
HETATM   26  H   UNL     1      45.289 -19.793   6.105  1.00  0.00     0.189 HD
HETATM   27  N   UNL     1      44.376 -18.289   5.084  1.00  0.00    -0.168 NA
ENDBRANCH   1  18
TORSDOF 4
ENDMDL
MODEL 6
REMARK VINA RESULT:      -7.7      2.216      2.798
REMARK  4 active torsions:
REMARK  status: ('A' for Active; 'I' for Inactive)
REMARK    1  A    between atoms: C_8  and  C_9 
REMARK       I    between atoms: C_9  and  N_10 
REMARK    2  A    between atoms: N_10  and  C_11 
REMARK    3  A    between atoms: C_13  and  C_14 
REMARK       I    between atoms: C_14  and  N_15 
REMARK    4  A    between atoms: N_15  and  C_16 
ROOT
HETATM    1  C   UNL     1      41.225 -17.190   1.923  1.00  0.00     0.277 C 
HETATM    2  N   UNL     1      40.769 -15.891   2.070  1.00  0.00    -0.322 N 
HETATM    3  O   UNL     1      40.940 -17.954   1.006  1.00  0.00    -0.266 OA
HETATM    4  H   UNL     1      41.086 -15.451   2.933  1.00  0.00     0.169 HD
ENDROOT
BRANCH   2   5
HETATM    5  C   UNL     1      39.943 -15.151   1.210  1.00  0.00     0.036 A 
HETATM    6  C   UNL     1      40.357 -14.675  -0.038  1.00  0.00     0.046 A 
HETATM    7  C   UNL     1      39.474 -13.946  -0.848  1.00  0.00     0.034 A 
HETATM    8  C   UNL     1      38.181 -13.667  -0.392  1.00  0.00     0.017 A 
HETATM    9  C   UNL     1      37.766 -14.131   0.855  1.00  0.00     0.003 A 
HETATM   10  C   UNL     1      38.644 -14.871   1.650  1.00  0.00     0.029 A 
BRANCH   7  11
HETATM   11  C   UNL     1      39.885 -13.416  -2.180  1.00  0.00     0.252 C 
HETATM   12  N   UNL     1      40.553 -12.205  -2.178  1.00  0.00    -0.352 N 
HETATM   13  H   UNL     1      40.820 -11.781  -1.299  1.00  0.00     0.163 HD
HETATM   14  O   UNL     1      39.647 -14.065  -3.193  1.00  0.00    -0.268 OA
BRANCH  12  15
HETATM   15  C   UNL     1      40.966 -11.557  -3.383  1.00  0.00     0.084 A 
HETATM   16  C   UNL     1      41.949 -10.422  -3.327  1.00  0.00     0.027 A 
HETATM   17  C   UNL     1      42.361 -11.739  -3.912  1.00  0.00     0.027 A 
ENDBRANCH  12  15
ENDBRANCH   7  11
ENDBRANCH   2   5
BRANCH   1  18
HETATM   18  C   UNL     1      42.113 -17.586   3.032  1.00  0.00     0.157 A 
HETATM   19  C   UNL     1      43.018 -18.687   3.066  1.00  0.00     0.028 A 
HETATM   20  C   UNL     1      43.394 -19.722   2.189  1.00  0.00     0.016 A 
HETATM   21  C   UNL     1      43.623 -18.617   4.316  1.00  0.00     0.063 A 
HETATM   22  C   UNL     1      44.361 -20.646   2.601  1.00  0.00     0.001 A 
HETATM   23  C   UNL     1      44.950 -20.548   3.860  1.00  0.00     0.002 A 
HETATM   24  C   UNL     1      44.593 -19.527   4.749  1.00  0.00     0.032 A 
HETATM   25  N   UNL     1      43.064 -17.531   4.928  1.00  0.00    -0.277 N 
HETATM   26  H   UNL     1      43.271 -17.177   5.856  1.00  0.00     0.189 HD
HETATM   27  N   UNL     1      42.144 -16.884   4.188  1.00  0.00    -0.168 NA
ENDBRANCH   1  18
TORSDOF 4
ENDMDL
MODEL 7
REMARK VINA RESULT:      -7.6      4.576      6.862
REMARK  4 active torsions:
REMARK  status: ('A' for Active; 'I' for Inactive)
REMARK    1  A    between atoms: C_8  and  C_9 
REMARK       I    between atoms: C_9  and  N_10 
REMARK    2  A    between atoms: N_10  and  C_11 
REMARK    3  A    between atoms: C_13  and  C_14 
REMARK       I    between atoms: C_14  and  N_15 
REMARK    4  A    between atoms: N_15  and  C_16 
ROOT
HETATM    1  C   UNL     1      42.247 -16.779   5.666  1.00  0.00     0.277 C 
HETATM    2  N   UNL     1      42.644 -15.624   5.014  1.00  0.00    -0.322 N 
HETATM    3  O   UNL     1      41.246 -16.906   6.364  1.00  0.00    -0.266 OA
HETATM    4  H   UNL     1      43.536 -15.722   4.533  1.00  0.00     0.169 HD
ENDROOT
BRANCH   2   5
HETATM    5  C   UNL     1      41.989 -14.383   4.958  1.00  0.00     0.036 A 
HETATM    6  C   UNL     1      42.151 -13.381   5.920  1.00  0.00     0.046 A 
HETATM    7  C   UNL     1      41.470 -12.162   5.797  1.00  0.00     0.034 A 
HETATM    8  C   UNL     1      40.597 -11.959   4.722  1.00  0.00     0.017 A 
HETATM    9  C   UNL     1      40.424 -12.957   3.766  1.00  0.00     0.003 A 
HETATM   10  C   UNL     1      41.119 -14.163   3.884  1.00  0.00     0.029 A 
BRANCH   7  11
HETATM   11  C   UNL     1      41.613 -11.075   6.808  1.00  0.00     0.252 C 
HETATM   12  N   UNL     1      42.343 -11.384   7.941  1.00  0.00    -0.352 N 
HETATM   13  H   UNL     1      42.823 -12.273   8.001  1.00  0.00     0.163 HD
HETATM   14  O   UNL     1      41.117  -9.975   6.593  1.00  0.00    -0.268 OA
BRANCH  12  15
HETATM   15  C   UNL     1      42.523 -10.456   9.012  1.00  0.00     0.084 A 
HETATM   16  C   UNL     1      42.033 -10.796  10.392  1.00  0.00     0.027 A 
HETATM   17  C   UNL     1      43.505 -10.740  10.115  1.00  0.00     0.027 A 
ENDBRANCH  12  15
ENDBRANCH   7  11
ENDBRANCH   2   5
BRANCH   1  18
HETATM   18  C   UNL     1      43.196 -17.886   5.442  1.00  0.00     0.157 A 
HETATM   19  C   UNL     1      43.365 -18.657   4.256  1.00  0.00     0.028 A 
HETATM   20  C   UNL     1      42.777 -18.695   2.976  1.00  0.00     0.016 A 
HETATM   21  C   UNL     1      44.385 -19.555   4.550  1.00  0.00     0.063 A 
HETATM   22  C   UNL     1      43.238 -19.632   2.044  1.00  0.00     0.001 A 
HETATM   23  C   UNL     1      44.263 -20.517   2.369  1.00  0.00     0.002 A 
HETATM   24  C   UNL     1      44.862 -20.498   3.634  1.00  0.00     0.032 A 
HETATM   25  N   UNL     1      44.744 -19.282   5.840  1.00  0.00    -0.277 N 
HETATM   26  H   UNL     1      45.465 -19.744   6.385  1.00  0.00     0.189 HD
HETATM   27  N   UNL     1      44.048 -18.284   6.416  1.00  0.00    -0.168 NA
ENDBRANCH   1  18
TORSDOF 4
ENDMDL
MODEL 8
REMARK VINA RESULT:      -7.5      3.207      3.766
REMARK  4 active torsions:
REMARK  status: ('A' for Active; 'I' for Inactive)
REMARK    1  A    between atoms: C_8  and  C_9 
REMARK       I    between atoms: C_9  and  N_10 
REMARK    2  A    between atoms: N_10  and  C_11 
REMARK    3  A    between atoms: C_13  and  C_14 
REMARK       I    between atoms: C_14  and  N_15 
REMARK    4  A    between atoms: N_15  and  C_16 
ROOT
HETATM    1  C   UNL     1      42.210 -16.750   3.624  1.00  0.00     0.277 C 
HETATM    2  N   UNL     1      42.783 -15.493   3.727  1.00  0.00    -0.322 N 
HETATM    3  O   UNL     1      41.068 -16.993   3.248  1.00  0.00    -0.266 OA
HETATM    4  H   UNL     1      43.725 -15.513   4.113  1.00  0.00     0.169 HD
ENDROOT
BRANCH   2   5
HETATM    5  C   UNL     1      42.228 -14.249   3.386  1.00  0.00     0.036 A 
HETATM    6  C   UNL     1      42.393 -13.646   2.136  1.00  0.00     0.046 A 
HETATM    7  C   UNL     1      41.804 -12.403   1.864  1.00  0.00     0.034 A 
HETATM    8  C   UNL     1      41.073 -11.747   2.861  1.00  0.00     0.017 A 
HETATM    9  C   UNL     1      40.913 -12.339   4.112  1.00  0.00     0.003 A 
HETATM   10  C   UNL     1      41.487 -13.585   4.371  1.00  0.00     0.029 A 
BRANCH   7  11
HETATM   11  C   UNL     1      41.967 -11.727   0.544  1.00  0.00     0.252 C 
HETATM   12  N   UNL     1      42.482 -10.444   0.572  1.00  0.00    -0.352 N 
HETATM   13  H   UNL     1      42.813 -10.055   1.446  1.00  0.00     0.163 HD
HETATM   14  O   UNL     1      41.674 -12.325  -0.485  1.00  0.00    -0.268 OA
BRANCH  12  15
HETATM   15  C   UNL     1      42.650  -9.661  -0.611  1.00  0.00     0.084 A 
HETATM   16  C   UNL     1      43.465  -8.399  -0.568  1.00  0.00     0.027 A 
HETATM   17  C   UNL     1      43.982  -9.598  -1.306  1.00  0.00     0.027 A 
ENDBRANCH  12  15
ENDBRANCH   7  11
ENDBRANCH   2   5
BRANCH   1  18
HETATM   18  C   UNL     1      43.144 -17.811   4.047  1.00  0.00     0.157 A 
HETATM   19  C   UNL     1      43.451 -19.020   3.357  1.00  0.00     0.028 A 
HETATM   20  C   UNL     1      43.048 -19.636   2.156  1.00  0.00     0.016 A 
HETATM   21  C   UNL     1      44.388 -19.664   4.157  1.00  0.00     0.063 A 
HETATM   22  C   UNL     1      43.602 -20.873   1.807  1.00  0.00     0.001 A 
HETATM   23  C   UNL     1      44.542 -21.491   2.630  1.00  0.00     0.002 A 
HETATM   24  C   UNL     1      44.957 -20.898   3.827  1.00  0.00     0.032 A 
HETATM   25  N   UNL     1      44.573 -18.839   5.231  1.00  0.00    -0.277 N 
HETATM   26  H   UNL     1      45.193 -18.991   6.020  1.00  0.00     0.189 HD
HETATM   27  N   UNL     1      43.836 -17.713   5.205  1.00  0.00    -0.168 NA
ENDBRANCH   1  18
TORSDOF 4
ENDMDL
MODEL 9
REMARK VINA RESULT:      -7.5      2.571      8.377
REMARK  4 active torsions:
REMARK  status: ('A' for Active; 'I' for Inactive)
REMARK    1  A    between atoms: C_8  and  C_9 
REMARK       I    between atoms: C_9  and  N_10 
REMARK    2  A    between atoms: N_10  and  C_11 
REMARK    3  A    between atoms: C_13  and  C_14 
REMARK       I    between atoms: C_14  and  N_15 
REMARK    4  A    between atoms: N_15  and  C_16 
ROOT
HETATM    1  C   UNL     1      41.133 -14.870  -0.022  1.00  0.00     0.277 C 
HETATM    2  N   UNL     1      42.371 -15.210   0.494  1.00  0.00    -0.322 N 
HETATM    3  O   UNL     1      40.052 -15.012   0.543  1.00  0.00    -0.266 OA
HETATM    4  H   UNL     1      43.134 -15.059  -0.164  1.00  0.00     0.169 HD
ENDROOT
BRANCH   2   5
HETATM    5  C   UNL     1      42.678 -15.732   1.762  1.00  0.00     0.036 A 
HETATM    6  C   UNL     1      43.245 -16.994   1.960  1.00  0.00     0.046 A 
HETATM    7  C   UNL     1      43.530 -17.448   3.256  1.00  0.00     0.034 A 
HETATM    8  C   UNL     1      43.215 -16.646   4.359  1.00  0.00     0.017 A 
HETATM    9  C   UNL     1      42.640 -15.392   4.167  1.00  0.00     0.003 A 
HETATM   10  C   UNL     1      42.375 -14.938   2.874  1.00  0.00     0.029 A 
BRANCH   7  11
HETATM   11  C   UNL     1      44.128 -18.791   3.505  1.00  0.00     0.252 C 
HETATM   12  N   UNL     1      44.299 -19.601   2.397  1.00  0.00    -0.352 N 
HETATM   13  H   UNL     1      44.112 -19.232   1.473  1.00  0.00     0.163 HD
HETATM   14  O   UNL     1      44.460 -19.109   4.642  1.00  0.00    -0.268 OA
BRANCH  12  15
HETATM   15  C   UNL     1      44.817 -20.929   2.492  1.00  0.00     0.084 A 
HETATM   16  C   UNL     1      43.962 -22.032   3.051  1.00  0.00     0.027 A 
HETATM   17  C   UNL     1      44.304 -22.018   1.591  1.00  0.00     0.027 A 
ENDBRANCH  12  15
ENDBRANCH   7  11
ENDBRANCH   2   5
BRANCH   1  18
HETATM   18  C   UNL     1      41.243 -14.312  -1.382  1.00  0.00     0.157 A 
HETATM   19  C   UNL     1      41.773 -13.044  -1.759  1.00  0.00     0.028 A 
HETATM   20  C   UNL     1      42.332 -11.936  -1.091  1.00  0.00     0.016 A 
HETATM   21  C   UNL     1      41.664 -13.004  -3.145  1.00  0.00     0.063 A 
HETATM   22  C   UNL     1      42.758 -10.834  -1.841  1.00  0.00     0.001 A 
HETATM   23  C   UNL     1      42.637 -10.826  -3.229  1.00  0.00     0.002 A 
HETATM   24  C   UNL     1      42.085 -11.914  -3.914  1.00  0.00     0.032 A 
HETATM   25  N   UNL     1      41.095 -14.195  -3.496  1.00  0.00    -0.277 N 
HETATM   26  H   UNL     1      40.869 -14.513  -4.433  1.00  0.00     0.189 HD
HETATM   27  N   UNL     1      40.821 -15.011  -2.461  1.00  0.00    -0.168 NA
ENDBRANCH   1  18
TORSDOF 4
ENDMDL
MODEL 10
REMARK VINA RESULT:      -7.4      2.937      3.879
REMARK  4 active torsions:
REMARK  status: ('A' for Active; 'I' for Inactive)
REMARK    1  A    between atoms: C_8  and  C_9 
REMARK       I    between atoms: C_9  and  N_10 
REMARK    2  A    between atoms: N_10  and  C_11 
REMARK    3  A    between atoms: C_13  and  C_14 
REMARK       I    between atoms: C_14  and  N_15 
REMARK    4  A    between atoms: N_15  and  C_16 
ROOT
HETATM    1  C   UNL     1      41.673 -16.609   2.463  1.00  0.00     0.277 C 
HETATM    2  N   UNL     1      42.353 -16.052   1.393  1.00  0.00    -0.322 N 
HETATM    3  O   UNL     1      40.473 -16.498   2.691  1.00  0.00    -0.266 OA
HETATM    4  H   UNL     1      43.357 -16.223   1.424  1.00  0.00     0.169 HD
ENDROOT
BRANCH   2   5
HETATM    5  C   UNL     1      41.838 -15.299   0.325  1.00  0.00     0.036 A 
HETATM    6  C   UNL     1      41.880 -13.903   0.275  1.00  0.00     0.046 A 
HETATM    7  C   UNL     1      41.350 -13.216  -0.827  1.00  0.00     0.034 A 
HETATM    8  C   UNL     1      40.747 -13.931  -1.867  1.00  0.00     0.017 A 
HETATM    9  C   UNL     1      40.694 -15.322  -1.818  1.00  0.00     0.003 A 
HETATM   10  C   UNL     1      41.238 -16.002  -0.726  1.00  0.00     0.029 A 
BRANCH   7  11
HETATM   11  C   UNL     1      41.370 -11.727  -0.909  1.00  0.00     0.252 C 
HETATM   12  N   UNL     1      42.581 -11.148  -1.239  1.00  0.00    -0.352 N 
HETATM   13  H   UNL     1      43.363 -11.735  -1.502  1.00  0.00     0.163 HD
HETATM   14  O   UNL     1      40.339 -11.093  -0.714  1.00  0.00    -0.268 OA
BRANCH  12  15
HETATM   15  C   UNL     1      42.759  -9.732  -1.309  1.00  0.00     0.084 A 
HETATM   16  C   UNL     1      43.280  -8.979  -0.118  1.00  0.00     0.027 A 
HETATM   17  C   UNL     1      44.138  -9.132  -1.338  1.00  0.00     0.027 A 
ENDBRANCH  12  15
ENDBRANCH   7  11
ENDBRANCH   2   5
BRANCH   1  18
HETATM   18  C   UNL     1      42.577 -17.367   3.349  1.00  0.00     0.157 A 
HETATM   19  C   UNL     1      43.184 -18.631   3.092  1.00  0.00     0.028 A 
HETATM   20  C   UNL     1      43.177 -19.566   2.039  1.00  0.00     0.016 A 
HETATM   21  C   UNL     1      43.947 -18.901   4.222  1.00  0.00     0.063 A 
HETATM   22  C   UNL     1      43.936 -20.736   2.164  1.00  0.00     0.001 A 
HETATM   23  C   UNL     1      44.692 -20.976   3.310  1.00  0.00     0.002 A 
HETATM   24  C   UNL     1      44.715 -20.061   4.368  1.00  0.00     0.032 A 
HETATM   25  N   UNL     1      43.754 -17.832   5.052  1.00  0.00    -0.277 N 
HETATM   26  H   UNL     1      44.162 -17.689   5.970  1.00  0.00     0.189 HD
HETATM   27  N   UNL     1      42.930 -16.886   4.564  1.00  0.00    -0.168 NA
ENDBRANCH   1  18
TORSDOF 4
ENDMDL
