MODEL 1
REMARK VINA RESULT:      -7.4      0.000      0.000
REMARK  6 active torsions:
REMARK  status: ('A' for Active; 'I' for Inactive)
REMARK    1  A    between atoms: C_2  and  N_3 
REMARK    2  A    between atoms: C_2  and  C_21 
REMARK    3  A    between atoms: N_3  and  C_6 
REMARK    4  A    between atoms: C_6  and  C_7 
REMARK       I    between atoms: C_7  and  N_8 
REMARK    5  A    between atoms: N_8  and  C_9 
REMARK    6  A    between atoms: C_16  and  C_17 
REMARK       I    between atoms: C_17  and  N_18 
ROOT
HETATM    1  C   UNL     1      42.684 -16.632   5.849  1.00  0.00     0.248 C 
HETATM    2  N   UNL     1      43.570 -16.931   4.843  1.00  0.00    -0.319 N 
HETATM    3  O   UNL     1      41.967 -17.390   6.501  1.00  0.00    -0.271 OA
HETATM    4  H   UNL     1      44.192 -16.206   4.477  1.00  0.00     0.169 HD
ENDROOT
BRANCH   2   5
HETATM    5  C   UNL     1      43.844 -18.185   4.311  1.00  0.00     0.093 A 
HETATM    6  S   UNL     1      44.538 -19.425   5.259  1.00  0.00    -0.075 SA
HETATM    7  C   UNL     1      44.487 -20.474   3.965  1.00  0.00    -0.008 A 
HETATM    8  C   UNL     1      43.964 -19.934   2.821  1.00  0.00    -0.026 A 
HETATM    9  C   UNL     1      44.912 -21.888   3.845  1.00  0.00     0.047 C 
HETATM   10  C   UNL     1      43.965 -20.947   1.730  1.00  0.00     0.041 C 
HETATM   11  C   UNL     1      43.575 -18.573   2.993  1.00  0.00     0.072 A 
HETATM   12  C   UNL     1      44.253 -22.278   2.491  1.00  0.00     0.010 C 
BRANCH  11  13
HETATM   13  C   UNL     1      42.996 -17.631   2.034  1.00  0.00     0.252 C 
HETATM   14  N   UNL     1      43.730 -17.324   0.931  1.00  0.00    -0.366 N 
HETATM   15  H   UNL     1      44.671 -17.647   0.776  1.00  0.00     0.159 HD
HETATM   16  H   UNL     1      43.354 -16.641   0.286  1.00  0.00     0.159 HD
HETATM   17  O   UNL     1      41.898 -17.105   2.222  1.00  0.00    -0.268 OA
ENDBRANCH  11  13
ENDBRANCH   2   5
BRANCH   1  18
HETATM   18  C   UNL     1      42.675 -15.154   6.239  1.00  0.00     0.335 C 
BRANCH  18  19
HETATM   19  N   UNL     1      43.606 -14.950   7.397  1.00  0.00    -0.057 N 
HETATM   20  H   UNL     1      43.818 -15.867   7.827  1.00  0.00     0.278 HD
HETATM   21  H   UNL     1      43.079 -14.474   8.149  1.00  0.00     0.278 HD
BRANCH  19  22
HETATM   22  C   UNL     1      44.907 -14.276   7.119  1.00  0.00     0.239 C 
HETATM   23  C   UNL     1      44.875 -13.733   5.696  1.00  0.00     0.047 C 
BRANCH  22  24
HETATM   24  C   UNL     1      45.160 -13.198   8.119  1.00  0.00     0.082 A 
HETATM   25  O   UNL     1      44.345 -13.195   9.221  1.00  0.00    -0.325 OA
HETATM   26  C   UNL     1      44.743 -12.162  10.006  1.00  0.00     0.142 A 
HETATM   27  C   UNL     1      45.812 -11.510   9.436  1.00  0.00     0.027 A 
HETATM   28  C   UNL     1      46.085 -12.180   8.218  1.00  0.00     0.037 A 
ENDBRANCH  22  24
ENDBRANCH  19  22
ENDBRANCH  18  19
ENDBRANCH   1  18
TORSDOF 6
ENDMDL
MODEL 2
REMARK VINA RESULT:      -7.4      1.971      3.073
REMARK  6 active torsions:
REMARK  status: ('A' for Active; 'I' for Inactive)
REMARK    1  A    between atoms: C_2  and  N_3 
REMARK    2  A    between atoms: C_2  and  C_21 
REMARK    3  A    between atoms: N_3  and  C_6 
REMARK    4  A    between atoms: C_6  and  C_7 
REMARK       I    between atoms: C_7  and  N_8 
REMARK    5  A    between atoms: N_8  and  C_9 
REMARK    6  A    between atoms: C_16  and  C_17 
REMARK       I    between atoms: C_17  and  N_18 
ROOT
HETATM    1  C   UNL     1      41.698 -16.997   5.516  1.00  0.00     0.248 C 
HETATM    2  N   UNL     1      43.003 -17.287   5.202  1.00  0.00    -0.319 N 
HETATM    3  O   UNL     1      40.720 -17.744   5.530  1.00  0.00    -0.271 OA
HETATM    4  H   UNL     1      43.733 -16.587   5.356  1.00  0.00     0.169 HD
ENDROOT
BRANCH   2   5
HETATM    5  C   UNL     1      43.517 -18.513   4.799  1.00  0.00     0.093 A 
HETATM    6  S   UNL     1      44.044 -19.676   5.934  1.00  0.00    -0.075 SA
HETATM    7  C   UNL     1      44.429 -20.734   4.705  1.00  0.00    -0.008 A 
HETATM    8  C   UNL     1      44.181 -20.253   3.448  1.00  0.00    -0.026 A 
HETATM    9  C   UNL     1      44.994 -22.103   4.745  1.00  0.00     0.047 C 
HETATM   10  C   UNL     1      44.560 -21.269   2.427  1.00  0.00     0.041 C 
HETATM   11  C   UNL     1      43.642 -18.933   3.469  1.00  0.00     0.072 A 
HETATM   12  C   UNL     1      44.754 -22.561   3.278  1.00  0.00     0.010 C 
BRANCH  11  13
HETATM   13  C   UNL     1      43.256 -18.056   2.363  1.00  0.00     0.252 C 
HETATM   14  N   UNL     1      44.247 -17.566   1.572  1.00  0.00    -0.366 N 
HETATM   15  H   UNL     1      45.228 -17.710   1.748  1.00  0.00     0.159 HD
HETATM   16  H   UNL     1      43.991 -16.924   0.832  1.00  0.00     0.159 HD
HETATM   17  O   UNL     1      42.082 -17.741   2.164  1.00  0.00    -0.268 OA
ENDBRANCH  11  13
ENDBRANCH   2   5
BRANCH   1  18
HETATM   18  C   UNL     1      41.485 -15.558   5.985  1.00  0.00     0.335 C 
BRANCH  18  19
HETATM   19  N   UNL     1      42.715 -15.096   6.709  1.00  0.00    -0.057 N 
HETATM   20  H   UNL     1      43.419 -15.852   6.698  1.00  0.00     0.278 HD
HETATM   21  H   UNL     1      42.485 -15.026   7.714  1.00  0.00     0.278 HD
BRANCH  19  22
HETATM   22  C   UNL     1      43.380 -13.859   6.205  1.00  0.00     0.239 C 
HETATM   23  C   UNL     1      44.879 -13.983   6.451  1.00  0.00     0.047 C 
BRANCH  22  24
HETATM   24  C   UNL     1      43.070 -13.652   4.760  1.00  0.00     0.082 A 
HETATM   25  O   UNL     1      43.569 -14.591   3.896  1.00  0.00    -0.325 OA
HETATM   26  C   UNL     1      43.166 -14.236   2.649  1.00  0.00     0.142 A 
HETATM   27  C   UNL     1      42.403 -13.094   2.698  1.00  0.00     0.027 A 
HETATM   28  C   UNL     1      42.336 -12.716   4.062  1.00  0.00     0.037 A 
ENDBRANCH  22  24
ENDBRANCH  19  22
ENDBRANCH  18  19
ENDBRANCH   1  18
TORSDOF 6
ENDMDL
MODEL 3
REMARK VINA RESULT:      -7.3      4.207      6.319
REMARK  6 active torsions:
REMARK  status: ('A' for Active; 'I' for Inactive)
REMARK    1  A    between atoms: C_2  and  N_3 
REMARK    2  A    between atoms: C_2  and  C_21 
REMARK    3  A    between atoms: N_3  and  C_6 
REMARK    4  A    between atoms: C_6  and  C_7 
REMARK       I    between atoms: C_7  and  N_8 
REMARK    5  A    between atoms: N_8  and  C_9 
REMARK    6  A    between atoms: C_16  and  C_17 
REMARK       I    between atoms: C_17  and  N_18 
ROOT
HETATM    1  C   UNL     1      40.955 -14.991   3.607  1.00  0.00     0.248 C 
HETATM    2  N   UNL     1      40.817 -16.336   3.843  1.00  0.00    -0.319 N 
HETATM    3  O   UNL     1      41.973 -14.351   3.345  1.00  0.00    -0.271 OA
HETATM    4  H   UNL     1      39.884 -16.748   3.925  1.00  0.00     0.169 HD
ENDROOT
BRANCH   2   5
HETATM    5  C   UNL     1      41.824 -17.294   3.861  1.00  0.00     0.093 A 
HETATM    6  S   UNL     1      42.474 -17.878   5.329  1.00  0.00    -0.075 SA
HETATM    7  C   UNL     1      43.487 -18.907   4.497  1.00  0.00    -0.008 A 
HETATM    8  C   UNL     1      43.368 -18.837   3.135  1.00  0.00    -0.026 A 
HETATM    9  C   UNL     1      44.494 -19.880   4.982  1.00  0.00     0.047 C 
HETATM   10  C   UNL     1      44.313 -19.789   2.489  1.00  0.00     0.041 C 
HETATM   11  C   UNL     1      42.390 -17.885   2.724  1.00  0.00     0.072 A 
HETATM   12  C   UNL     1      44.775 -20.684   3.680  1.00  0.00     0.010 C 
BRANCH  11  13
HETATM   13  C   UNL     1      41.966 -17.490   1.380  1.00  0.00     0.252 C 
HETATM   14  N   UNL     1      42.888 -16.896   0.577  1.00  0.00    -0.366 N 
HETATM   15  H   UNL     1      43.816 -16.646   0.879  1.00  0.00     0.159 HD
HETATM   16  H   UNL     1      42.590 -16.581  -0.337  1.00  0.00     0.159 HD
HETATM   17  O   UNL     1      40.809 -17.657   0.989  1.00  0.00    -0.268 OA
ENDBRANCH  11  13
ENDBRANCH   2   5
BRANCH   1  18
HETATM   18  C   UNL     1      39.630 -14.231   3.597  1.00  0.00     0.335 C 
BRANCH  18  19
HETATM   19  N   UNL     1      39.452 -13.578   2.258  1.00  0.00    -0.057 N 
HETATM   20  H   UNL     1      40.345 -13.142   1.973  1.00  0.00     0.278 HD
HETATM   21  H   UNL     1      38.838 -12.756   2.384  1.00  0.00     0.278 HD
BRANCH  19  22
HETATM   22  C   UNL     1      38.998 -14.443   1.130  1.00  0.00     0.239 C 
HETATM   23  C   UNL     1      37.514 -14.189   0.896  1.00  0.00     0.047 C 
BRANCH  22  24
HETATM   24  C   UNL     1      39.807 -14.172  -0.093  1.00  0.00     0.082 A 
HETATM   25  O   UNL     1      41.167 -14.252   0.054  1.00  0.00    -0.325 OA
HETATM   26  C   UNL     1      41.713 -13.993  -1.161  1.00  0.00     0.142 A 
HETATM   27  C   UNL     1      40.728 -13.763  -2.092  1.00  0.00     0.027 A 
HETATM   28  C   UNL     1      39.494 -13.882  -1.405  1.00  0.00     0.037 A 
ENDBRANCH  22  24
ENDBRANCH  19  22
ENDBRANCH  18  19
ENDBRANCH   1  18
TORSDOF 6
ENDMDL
MODEL 4
REMARK VINA RESULT:      -7.2      3.102      5.019
REMARK  6 active torsions:
REMARK  status: ('A' for Active; 'I' for Inactive)
REMARK    1  A    between atoms: C_2  and  N_3 
REMARK    2  A    between atoms: C_2  and  C_21 
REMARK    3  A    between atoms: N_3  and  C_6 
REMARK    4  A    between atoms: C_6  and  C_7 
REMARK       I    between atoms: C_7  and  N_8 
REMARK    5  A    between atoms: N_8  and  C_9 
REMARK    6  A    between atoms: C_16  and  C_17 
REMARK       I    between atoms: C_17  and  N_18 
ROOT
HETATM    1  C   UNL     1      42.002 -16.309   4.925  1.00  0.00     0.248 C 
HETATM    2  N   UNL     1      43.189 -16.693   4.353  1.00  0.00    -0.319 N 
HETATM    3  O   UNL     1      41.055 -17.007   5.286  1.00  0.00    -0.271 OA
HETATM    4  H   UNL     1      43.938 -16.009   4.220  1.00  0.00     0.169 HD
ENDROOT
BRANCH   2   5
HETATM    5  C   UNL     1      43.586 -17.985   4.026  1.00  0.00     0.093 A 
HETATM    6  S   UNL     1      44.351 -18.999   5.168  1.00  0.00    -0.075 SA
HETATM    7  C   UNL     1      44.432 -20.233   4.052  1.00  0.00    -0.008 A 
HETATM    8  C   UNL     1      43.903 -19.923   2.828  1.00  0.00    -0.026 A 
HETATM    9  C   UNL     1      44.979 -21.606   4.160  1.00  0.00     0.047 C 
HETATM   10  C   UNL     1      44.026 -21.086   1.907  1.00  0.00     0.041 C 
HETATM   11  C   UNL     1      43.395 -18.591   2.779  1.00  0.00     0.072 A 
HETATM   12  C   UNL     1      44.400 -22.254   2.870  1.00  0.00     0.010 C 
BRANCH  11  13
HETATM   13  C   UNL     1      42.770 -17.862   1.675  1.00  0.00     0.252 C 
HETATM   14  N   UNL     1      43.576 -17.432   0.668  1.00  0.00    -0.366 N 
HETATM   15  H   UNL     1      44.579 -17.520   0.676  1.00  0.00     0.159 HD
HETATM   16  H   UNL     1      43.157 -16.889  -0.077  1.00  0.00     0.159 HD
HETATM   17  O   UNL     1      41.563 -17.613   1.661  1.00  0.00    -0.268 OA
ENDBRANCH  11  13
ENDBRANCH   2   5
BRANCH   1  18
HETATM   18  C   UNL     1      41.915 -14.811   5.211  1.00  0.00     0.335 C 
BRANCH  18  19
HETATM   19  N   UNL     1      41.742 -14.077   3.915  1.00  0.00    -0.057 N 
HETATM   20  H   UNL     1      42.401 -14.461   3.217  1.00  0.00     0.278 HD
HETATM   21  H   UNL     1      42.098 -13.115   4.044  1.00  0.00     0.278 HD
BRANCH  19  22
HETATM   22  C   UNL     1      40.383 -14.087   3.299  1.00  0.00     0.239 C 
HETATM   23  C   UNL     1      39.669 -12.798   3.685  1.00  0.00     0.047 C 
BRANCH  22  24
HETATM   24  C   UNL     1      40.483 -14.245   1.819  1.00  0.00     0.082 A 
HETATM   25  O   UNL     1      41.750 -14.255   1.298  1.00  0.00    -0.325 OA
HETATM   26  C   UNL     1      41.626 -14.423  -0.043  1.00  0.00     0.142 A 
HETATM   27  C   UNL     1      40.301 -14.539  -0.392  1.00  0.00     0.027 A 
HETATM   28  C   UNL     1      39.560 -14.428   0.810  1.00  0.00     0.037 A 
ENDBRANCH  22  24
ENDBRANCH  19  22
ENDBRANCH  18  19
ENDBRANCH   1  18
TORSDOF 6
ENDMDL
MODEL 5
REMARK VINA RESULT:      -7.1      1.501      2.426
REMARK  6 active torsions:
REMARK  status: ('A' for Active; 'I' for Inactive)
REMARK    1  A    between atoms: C_2  and  N_3 
REMARK    2  A    between atoms: C_2  and  C_21 
REMARK    3  A    between atoms: N_3  and  C_6 
REMARK    4  A    between atoms: C_6  and  C_7 
REMARK       I    between atoms: C_7  and  N_8 
REMARK    5  A    between atoms: N_8  and  C_9 
REMARK    6  A    between atoms: C_16  and  C_17 
REMARK       I    between atoms: C_17  and  N_18 
ROOT
HETATM    1  C   UNL     1      42.306 -16.261   5.408  1.00  0.00     0.248 C 
HETATM    2  N   UNL     1      43.373 -16.699   4.661  1.00  0.00    -0.319 N 
HETATM    3  O   UNL     1      41.310 -16.882   5.774  1.00  0.00    -0.271 OA
HETATM    4  H   UNL     1      44.192 -16.099   4.539  1.00  0.00     0.169 HD
ENDROOT
BRANCH   2   5
HETATM    5  C   UNL     1      43.556 -17.967   4.123  1.00  0.00     0.093 A 
HETATM    6  S   UNL     1      43.066 -18.339   2.529  1.00  0.00    -0.075 SA
HETATM    7  C   UNL     1      43.640 -19.895   2.692  1.00  0.00    -0.008 A 
HETATM    8  C   UNL     1      44.197 -20.167   3.913  1.00  0.00    -0.026 A 
HETATM    9  C   UNL     1      43.650 -21.031   1.740  1.00  0.00     0.047 C 
HETATM   10  C   UNL     1      44.675 -21.576   3.955  1.00  0.00     0.041 C 
HETATM   11  C   UNL     1      44.159 -19.042   4.788  1.00  0.00     0.072 A 
HETATM   12  C   UNL     1      44.628 -22.005   2.457  1.00  0.00     0.010 C 
BRANCH  11  13
HETATM   13  C   UNL     1      44.624 -18.907   6.169  1.00  0.00     0.252 C 
HETATM   14  N   UNL     1      44.013 -19.666   7.116  1.00  0.00    -0.366 N 
HETATM   15  H   UNL     1      43.215 -20.254   6.935  1.00  0.00     0.159 HD
HETATM   16  H   UNL     1      44.300 -19.546   8.080  1.00  0.00     0.159 HD
HETATM   17  O   UNL     1      45.516 -18.115   6.480  1.00  0.00    -0.268 OA
ENDBRANCH  11  13
ENDBRANCH   2   5
BRANCH   1  18
HETATM   18  C   UNL     1      42.453 -14.821   5.899  1.00  0.00     0.335 C 
BRANCH  18  19
HETATM   19  N   UNL     1      43.317 -14.811   7.125  1.00  0.00    -0.057 N 
HETATM   20  H   UNL     1      43.419 -15.778   7.476  1.00  0.00     0.278 HD
HETATM   21  H   UNL     1      42.783 -14.358   7.886  1.00  0.00     0.278 HD
BRANCH  19  22
HETATM   22  C   UNL     1      44.688 -14.238   6.991  1.00  0.00     0.239 C 
HETATM   23  C   UNL     1      44.898 -13.825   5.540  1.00  0.00     0.047 C 
BRANCH  22  24
HETATM   24  C   UNL     1      44.866 -13.089   7.926  1.00  0.00     0.082 A 
HETATM   25  O   UNL     1      43.723 -12.431   8.297  1.00  0.00    -0.325 OA
HETATM   26  C   UNL     1      44.094 -11.444   9.152  1.00  0.00     0.142 A 
HETATM   27  C   UNL     1      45.454 -11.467   9.351  1.00  0.00     0.027 A 
HETATM   28  C   UNL     1      45.956 -12.532   8.562  1.00  0.00     0.037 A 
ENDBRANCH  22  24
ENDBRANCH  19  22
ENDBRANCH  18  19
ENDBRANCH   1  18
TORSDOF 6
ENDMDL
MODEL 6
REMARK VINA RESULT:      -7.0      5.212      8.871
REMARK  6 active torsions:
REMARK  status: ('A' for Active; 'I' for Inactive)
REMARK    1  A    between atoms: C_2  and  N_3 
REMARK    2  A    between atoms: C_2  and  C_21 
REMARK    3  A    between atoms: N_3  and  C_6 
REMARK    4  A    between atoms: C_6  and  C_7 
REMARK       I    between atoms: C_7  and  N_8 
REMARK    5  A    between atoms: N_8  and  C_9 
REMARK    6  A    between atoms: C_16  and  C_17 
REMARK       I    between atoms: C_17  and  N_18 
ROOT
HETATM    1  C   UNL     1      41.549 -16.190   0.697  1.00  0.00     0.248 C 
HETATM    2  N   UNL     1      41.538 -15.287  -0.338  1.00  0.00    -0.319 N 
HETATM    3  O   UNL     1      40.616 -16.569   1.404  1.00  0.00    -0.271 OA
HETATM    4  H   UNL     1      42.372 -15.165  -0.918  1.00  0.00     0.169 HD
ENDROOT
BRANCH   2   5
HETATM    5  C   UNL     1      40.448 -14.569  -0.814  1.00  0.00     0.093 A 
HETATM    6  S   UNL     1      39.650 -13.412   0.157  1.00  0.00    -0.075 SA
HETATM    7  C   UNL     1      38.604 -13.054  -1.091  1.00  0.00    -0.008 A 
HETATM    8  C   UNL     1      38.821 -13.775  -2.234  1.00  0.00    -0.026 A 
HETATM    9  C   UNL     1      37.482 -12.089  -1.170  1.00  0.00     0.047 C 
HETATM   10  C   UNL     1      37.838 -13.383  -3.281  1.00  0.00     0.041 C 
HETATM   11  C   UNL     1      39.909 -14.687  -2.101  1.00  0.00     0.072 A 
HETATM   12  C   UNL     1      37.217 -12.074  -2.703  1.00  0.00     0.010 C 
BRANCH  11  13
HETATM   13  C   UNL     1      40.458 -15.645  -3.062  1.00  0.00     0.252 C 
HETATM   14  N   UNL     1      39.703 -16.734  -3.367  1.00  0.00    -0.366 N 
HETATM   15  H   UNL     1      38.829 -16.955  -2.917  1.00  0.00     0.159 HD
HETATM   16  H   UNL     1      40.095 -17.422  -3.998  1.00  0.00     0.159 HD
HETATM   17  O   UNL     1      41.575 -15.497  -3.560  1.00  0.00    -0.268 OA
ENDBRANCH  11  13
ENDBRANCH   2   5
BRANCH   1  18
HETATM   18  C   UNL     1      42.908 -16.852   0.919  1.00  0.00     0.335 C 
BRANCH  18  19
HETATM   19  N   UNL     1      42.723 -18.068   1.776  1.00  0.00    -0.057 N 
HETATM   20  H   UNL     1      42.538 -18.886   1.170  1.00  0.00     0.278 HD
HETATM   21  H   UNL     1      41.828 -17.967   2.284  1.00  0.00     0.278 HD
BRANCH  19  22
HETATM   22  C   UNL     1      43.842 -18.436   2.692  1.00  0.00     0.239 C 
HETATM   23  C   UNL     1      43.514 -17.918   4.087  1.00  0.00     0.047 C 
BRANCH  22  24
HETATM   24  C   UNL     1      44.057 -19.913   2.685  1.00  0.00     0.082 A 
HETATM   25  O   UNL     1      43.518 -20.595   1.627  1.00  0.00    -0.325 OA
HETATM   26  C   UNL     1      43.836 -21.904   1.796  1.00  0.00     0.142 A 
HETATM   27  C   UNL     1      44.586 -22.073   2.936  1.00  0.00     0.027 A 
HETATM   28  C   UNL     1      44.733 -20.787   3.512  1.00  0.00     0.037 A 
ENDBRANCH  22  24
ENDBRANCH  19  22
ENDBRANCH  18  19
ENDBRANCH   1  18
TORSDOF 6
ENDMDL
MODEL 7
REMARK VINA RESULT:      -7.0      3.156      5.427
REMARK  6 active torsions:
REMARK  status: ('A' for Active; 'I' for Inactive)
REMARK    1  A    between atoms: C_2  and  N_3 
REMARK    2  A    between atoms: C_2  and  C_21 
REMARK    3  A    between atoms: N_3  and  C_6 
REMARK    4  A    between atoms: C_6  and  C_7 
REMARK       I    between atoms: C_7  and  N_8 
REMARK    5  A    between atoms: N_8  and  C_9 
REMARK    6  A    between atoms: C_16  and  C_17 
REMARK       I    between atoms: C_17  and  N_18 
ROOT
HETATM    1  C   UNL     1      42.941 -14.601   4.572  1.00  0.00     0.248 C 
HETATM    2  N   UNL     1      42.464 -15.850   4.884  1.00  0.00    -0.319 N 
HETATM    3  O   UNL     1      43.800 -14.282   3.751  1.00  0.00    -0.271 OA
HETATM    4  H   UNL     1      41.656 -15.949   5.504  1.00  0.00     0.169 HD
ENDROOT
BRANCH   2   5
HETATM    5  C   UNL     1      42.871 -17.064   4.344  1.00  0.00     0.093 A 
HETATM    6  S   UNL     1      42.423 -17.531   2.763  1.00  0.00    -0.075 SA
HETATM    7  C   UNL     1      43.284 -18.950   2.914  1.00  0.00    -0.008 A 
HETATM    8  C   UNL     1      43.910 -19.105   4.122  1.00  0.00    -0.026 A 
HETATM    9  C   UNL     1      43.485 -20.070   1.964  1.00  0.00     0.047 C 
HETATM   10  C   UNL     1      44.646 -20.398   4.155  1.00  0.00     0.041 C 
HETATM   11  C   UNL     1      43.681 -18.002   4.996  1.00  0.00     0.072 A 
HETATM   12  C   UNL     1      44.645 -20.838   2.659  1.00  0.00     0.010 C 
BRANCH  11  13
HETATM   13  C   UNL     1      44.144 -17.773   6.365  1.00  0.00     0.252 C 
HETATM   14  N   UNL     1      43.804 -18.693   7.307  1.00  0.00    -0.366 N 
HETATM   15  H   UNL     1      43.194 -19.475   7.132  1.00  0.00     0.159 HD
HETATM   16  H   UNL     1      44.084 -18.519   8.264  1.00  0.00     0.159 HD
HETATM   17  O   UNL     1      44.794 -16.773   6.673  1.00  0.00    -0.268 OA
ENDBRANCH  11  13
ENDBRANCH   2   5
BRANCH   1  18
HETATM   18  C   UNL     1      42.226 -13.470   5.310  1.00  0.00     0.335 C 
BRANCH  18  19
HETATM   19  N   UNL     1      40.753 -13.752   5.324  1.00  0.00    -0.057 N 
HETATM   20  H   UNL     1      40.402 -13.676   6.293  1.00  0.00     0.278 HD
HETATM   21  H   UNL     1      40.620 -14.758   5.123  1.00  0.00     0.278 HD
BRANCH  19  22
HETATM   22  C   UNL     1      39.883 -12.896   4.466  1.00  0.00     0.239 C 
HETATM   23  C   UNL     1      40.613 -11.586   4.196  1.00  0.00     0.047 C 
BRANCH  22  24
HETATM   24  C   UNL     1      39.535 -13.608   3.202  1.00  0.00     0.082 A 
HETATM   25  O   UNL     1      39.844 -14.942   3.157  1.00  0.00    -0.325 OA
HETATM   26  C   UNL     1      39.437 -15.403   1.947  1.00  0.00     0.142 A 
HETATM   27  C   UNL     1      38.855 -14.392   1.219  1.00  0.00     0.027 A 
HETATM   28  C   UNL     1      38.914 -13.231   2.029  1.00  0.00     0.037 A 
ENDBRANCH  22  24
ENDBRANCH  19  22
ENDBRANCH  18  19
ENDBRANCH   1  18
TORSDOF 6
ENDMDL
MODEL 8
REMARK VINA RESULT:      -6.9      3.916      7.664
REMARK  6 active torsions:
REMARK  status: ('A' for Active; 'I' for Inactive)
REMARK    1  A    between atoms: C_2  and  N_3 
REMARK    2  A    between atoms: C_2  and  C_21 
REMARK    3  A    between atoms: N_3  and  C_6 
REMARK    4  A    between atoms: C_6  and  C_7 
REMARK       I    between atoms: C_7  and  N_8 
REMARK    5  A    between atoms: N_8  and  C_9 
REMARK    6  A    between atoms: C_16  and  C_17 
REMARK       I    between atoms: C_17  and  N_18 
ROOT
HETATM    1  C   UNL     1      41.173 -16.179   1.512  1.00  0.00     0.248 C 
HETATM    2  N   UNL     1      42.476 -16.383   1.896  1.00  0.00    -0.319 N 
HETATM    3  O   UNL     1      40.195 -16.906   1.679  1.00  0.00    -0.271 OA
HETATM    4  H   UNL     1      43.161 -15.629   1.798  1.00  0.00     0.169 HD
ENDROOT
BRANCH   2   5
HETATM    5  C   UNL     1      42.995 -17.491   2.553  1.00  0.00     0.093 A 
HETATM    6  S   UNL     1      43.582 -18.845   1.693  1.00  0.00    -0.075 SA
HETATM    7  C   UNL     1      43.999 -19.600   3.119  1.00  0.00    -0.008 A 
HETATM    8  C   UNL     1      43.714 -18.875   4.245  1.00  0.00    -0.026 A 
HETATM    9  C   UNL     1      44.624 -20.919   3.373  1.00  0.00     0.047 C 
HETATM   10  C   UNL     1      44.121 -19.634   5.459  1.00  0.00     0.041 C 
HETATM   11  C   UNL     1      43.113 -17.618   3.943  1.00  0.00     0.072 A 
HETATM   12  C   UNL     1      45.005 -20.778   4.874  1.00  0.00     0.010 C 
BRANCH  11  13
HETATM   13  C   UNL     1      42.643 -16.560   4.838  1.00  0.00     0.252 C 
HETATM   14  N   UNL     1      43.566 -15.942   5.622  1.00  0.00    -0.366 N 
HETATM   15  H   UNL     1      44.532 -16.220   5.676  1.00  0.00     0.159 HD
HETATM   16  H   UNL     1      43.241 -15.239   6.274  1.00  0.00     0.159 HD
HETATM   17  O   UNL     1      41.452 -16.251   4.910  1.00  0.00    -0.268 OA
ENDBRANCH  11  13
ENDBRANCH   2   5
BRANCH   1  18
HETATM   18  C   UNL     1      40.930 -14.817   0.865  1.00  0.00     0.335 C 
BRANCH  18  19
HETATM   19  N   UNL     1      41.745 -14.722  -0.391  1.00  0.00    -0.057 N 
HETATM   20  H   UNL     1      41.886 -15.671  -0.776  1.00  0.00     0.278 HD
HETATM   21  H   UNL     1      42.707 -14.449  -0.126  1.00  0.00     0.278 HD
BRANCH  19  22
HETATM   22  C   UNL     1      41.210 -13.869  -1.491  1.00  0.00     0.239 C 
HETATM   23  C   UNL     1      42.385 -13.230  -2.221  1.00  0.00     0.047 C 
BRANCH  22  24
HETATM   24  C   UNL     1      40.358 -14.678  -2.411  1.00  0.00     0.082 A 
HETATM   25  O   UNL     1      39.107 -14.183  -2.666  1.00  0.00    -0.325 OA
HETATM   26  C   UNL     1      38.507 -15.045  -3.526  1.00  0.00     0.142 A 
HETATM   27  C   UNL     1      39.358 -16.077  -3.842  1.00  0.00     0.027 A 
HETATM   28  C   UNL     1      40.557 -15.841  -3.125  1.00  0.00     0.037 A 
ENDBRANCH  22  24
ENDBRANCH  19  22
ENDBRANCH  18  19
ENDBRANCH   1  18
TORSDOF 6
ENDMDL
MODEL 9
REMARK VINA RESULT:      -6.9      4.311      7.334
REMARK  6 active torsions:
REMARK  status: ('A' for Active; 'I' for Inactive)
REMARK    1  A    between atoms: C_2  and  N_3 
REMARK    2  A    between atoms: C_2  and  C_21 
REMARK    3  A    between atoms: N_3  and  C_6 
REMARK    4  A    between atoms: C_6  and  C_7 
REMARK       I    between atoms: C_7  and  N_8 
REMARK    5  A    between atoms: N_8  and  C_9 
REMARK    6  A    between atoms: C_16  and  C_17 
REMARK       I    between atoms: C_17  and  N_18 
ROOT
HETATM    1  C   UNL     1      40.669 -15.037   2.773  1.00  0.00     0.248 C 
HETATM    2  N   UNL     1      40.513 -16.267   3.362  1.00  0.00    -0.319 N 
HETATM    3  O   UNL     1      41.692 -14.509   2.340  1.00  0.00    -0.271 OA
HETATM    4  H   UNL     1      39.576 -16.625   3.560  1.00  0.00     0.169 HD
ENDROOT
BRANCH   2   5
HETATM    5  C   UNL     1      41.506 -17.203   3.627  1.00  0.00     0.093 A 
HETATM    6  S   UNL     1      42.266 -18.077   2.371  1.00  0.00    -0.075 SA
HETATM    7  C   UNL     1      43.240 -18.859   3.474  1.00  0.00    -0.008 A 
HETATM    8  C   UNL     1      43.024 -18.495   4.776  1.00  0.00    -0.026 A 
HETATM    9  C   UNL     1      44.298 -19.879   3.283  1.00  0.00     0.047 C 
HETATM   10  C   UNL     1      43.938 -19.249   5.677  1.00  0.00     0.041 C 
HETATM   11  C   UNL     1      41.996 -17.515   4.901  1.00  0.00     0.072 A 
HETATM   12  C   UNL     1      44.971 -19.868   4.686  1.00  0.00     0.010 C 
BRANCH  11  13
HETATM   13  C   UNL     1      41.446 -16.875   6.096  1.00  0.00     0.252 C 
HETATM   14  N   UNL     1      42.302 -16.175   6.887  1.00  0.00    -0.366 N 
HETATM   15  H   UNL     1      43.298 -16.136   6.738  1.00  0.00     0.159 HD
HETATM   16  H   UNL     1      41.937 -15.766   7.738  1.00  0.00     0.159 HD
HETATM   17  O   UNL     1      40.257 -16.983   6.403  1.00  0.00    -0.268 OA
ENDBRANCH  11  13
ENDBRANCH   2   5
BRANCH   1  18
HETATM   18  C   UNL     1      39.355 -14.283   2.571  1.00  0.00     0.335 C 
BRANCH  18  19
HETATM   19  N   UNL     1      38.591 -14.927   1.452  1.00  0.00    -0.057 N 
HETATM   20  H   UNL     1      37.905 -15.591   1.848  1.00  0.00     0.278 HD
HETATM   21  H   UNL     1      39.237 -15.557   0.947  1.00  0.00     0.278 HD
BRANCH  19  22
HETATM   22  C   UNL     1      37.854 -14.025   0.520  1.00  0.00     0.239 C 
HETATM   23  C   UNL     1      37.664 -12.677   1.203  1.00  0.00     0.047 C 
BRANCH  22  24
HETATM   24  C   UNL     1      38.590 -13.895  -0.771  1.00  0.00     0.082 A 
HETATM   25  O   UNL     1      39.821 -14.493  -0.825  1.00  0.00    -0.325 OA
HETATM   26  C   UNL     1      40.312 -14.277  -2.072  1.00  0.00     0.142 A 
HETATM   27  C   UNL     1      39.410 -13.566  -2.827  1.00  0.00     0.027 A 
HETATM   28  C   UNL     1      38.294 -13.320  -1.989  1.00  0.00     0.037 A 
ENDBRANCH  22  24
ENDBRANCH  19  22
ENDBRANCH  18  19
ENDBRANCH   1  18
TORSDOF 6
ENDMDL
MODEL 10
REMARK VINA RESULT:      -6.9      3.948      6.851
REMARK  6 active torsions:
REMARK  status: ('A' for Active; 'I' for Inactive)
REMARK    1  A    between atoms: C_2  and  N_3 
REMARK    2  A    between atoms: C_2  and  C_21 
REMARK    3  A    between atoms: N_3  and  C_6 
REMARK    4  A    between atoms: C_6  and  C_7 
REMARK       I    between atoms: C_7  and  N_8 
REMARK    5  A    between atoms: N_8  and  C_9 
REMARK    6  A    between atoms: C_16  and  C_17 
REMARK       I    between atoms: C_17  and  N_18 
ROOT
HETATM    1  C   UNL     1      41.606 -17.011   1.414  1.00  0.00     0.248 C 
HETATM    2  N   UNL     1      42.852 -17.165   1.971  1.00  0.00    -0.319 N 
HETATM    3  O   UNL     1      40.502 -17.109   1.947  1.00  0.00    -0.271 OA
HETATM    4  H   UNL     1      43.687 -16.929   1.429  1.00  0.00     0.169 HD
ENDROOT
BRANCH   2   5
HETATM    5  C   UNL     1      43.148 -17.493   3.289  1.00  0.00     0.093 A 
HETATM    6  S   UNL     1      42.979 -16.356   4.552  1.00  0.00    -0.075 SA
HETATM    7  C   UNL     1      43.463 -17.492   5.670  1.00  0.00    -0.008 A 
HETATM    8  C   UNL     1      43.758 -18.719   5.138  1.00  0.00    -0.026 A 
HETATM    9  C   UNL     1      43.629 -17.398   7.140  1.00  0.00     0.047 C 
HETATM   10  C   UNL     1      44.179 -19.656   6.215  1.00  0.00     0.041 C 
HETATM   11  C   UNL     1      43.584 -18.751   3.723  1.00  0.00     0.072 A 
HETATM   12  C   UNL     1      43.765 -18.902   7.515  1.00  0.00     0.010 C 
BRANCH  11  13
HETATM   13  C   UNL     1      43.801 -19.843   2.773  1.00  0.00     0.252 C 
HETATM   14  N   UNL     1      44.992 -20.495   2.825  1.00  0.00    -0.366 N 
HETATM   15  H   UNL     1      45.755 -20.224   3.424  1.00  0.00     0.159 HD
HETATM   16  H   UNL     1      45.166 -21.222   2.142  1.00  0.00     0.159 HD
HETATM   17  O   UNL     1      42.955 -20.149   1.931  1.00  0.00    -0.268 OA
ENDBRANCH  11  13
ENDBRANCH   2   5
BRANCH   1  18
HETATM   18  C   UNL     1      41.639 -16.582  -0.052  1.00  0.00     0.335 C 
BRANCH  18  19
HETATM   19  N   UNL     1      41.843 -15.097  -0.120  1.00  0.00    -0.057 N 
HETATM   20  H   UNL     1      42.806 -14.902  -0.441  1.00  0.00     0.278 HD
HETATM   21  H   UNL     1      41.858 -14.734   0.847  1.00  0.00     0.278 HD
BRANCH  19  22
HETATM   22  C   UNL     1      40.915 -14.319  -0.992  1.00  0.00     0.239 C 
HETATM   23  C   UNL     1      40.720 -15.085  -2.294  1.00  0.00     0.047 C 
BRANCH  22  24
HETATM   24  C   UNL     1      39.621 -14.077  -0.290  1.00  0.00     0.082 A 
HETATM   25  O   UNL     1      39.688 -13.956   1.073  1.00  0.00    -0.325 OA
HETATM   26  C   UNL     1      38.425 -13.725   1.513  1.00  0.00     0.142 A 
HETATM   27  C   UNL     1      37.549 -13.678   0.454  1.00  0.00     0.027 A 
HETATM   28  C   UNL     1      38.320 -13.902  -0.713  1.00  0.00     0.037 A 
ENDBRANCH  22  24
ENDBRANCH  19  22
ENDBRANCH  18  19
ENDBRANCH   1  18
TORSDOF 6
ENDMDL
