MODEL 1
REMARK VINA RESULT:      -8.3      0.000      0.000
REMARK  7 active torsions:
REMARK  status: ('A' for Active; 'I' for Inactive)
REMARK    1  A    between atoms: C_8  and  C_9 
REMARK    2  A    between atoms: C_9  and  C_10 
REMARK    3  A    between atoms: C_10  and  C_11 
REMARK       I    between atoms: C_11  and  N_12 
REMARK    4  A    between atoms: N_12  and  C_13 
REMARK    5  A    between atoms: C_13  and  C_14 
REMARK    6  A    between atoms: C_14  and  C_15 
REMARK    7  A    between atoms: C_16  and  O_17 
ROOT
HETATM    1  C   UNL     1      40.975 -16.176   5.678  1.00  0.00     0.217 C 
HETATM    2  N   UNL     1      40.924 -16.867   4.486  1.00  0.00    -0.360 N 
HETATM    3  O   UNL     1      41.688 -16.495   6.623  1.00  0.00    -0.274 OA
HETATM    4  H   UNL     1      40.192 -16.628   3.828  1.00  0.00     0.162 HD
ENDROOT
BRANCH   2   5
HETATM    5  C   UNL     1      41.601 -18.134   4.295  1.00  0.00     0.137 C 
BRANCH   5   6
HETATM    6  C   UNL     1      42.576 -18.168   3.087  1.00  0.00     0.005 C 
HETATM    7  C   UNL     1      41.890 -17.735   1.760  1.00  0.00     0.016 C 
HETATM    8  C   UNL     1      43.030 -17.267   0.857  1.00  0.00     0.001 C 
HETATM    9  C   UNL     1      44.103 -16.737   1.802  1.00  0.00     0.001 C 
HETATM   10  C   UNL     1      43.534 -16.939   3.204  1.00  0.00     0.016 C 
BRANCH   6  11
HETATM   11  C   UNL     1      43.310 -19.535   3.021  1.00  0.00    -0.015 A 
HETATM   12  C   UNL     1      44.231 -19.977   4.005  1.00  0.00     0.075 A 
HETATM   13  C   UNL     1      44.862 -21.226   3.877  1.00  0.00     0.037 A 
HETATM   14  C   UNL     1      44.615 -22.047   2.780  1.00  0.00     0.003 A 
HETATM   15  C   UNL     1      43.749 -21.619   1.789  1.00  0.00     0.001 A 
HETATM   16  C   UNL     1      43.117 -20.380   1.903  1.00  0.00     0.011 A 
BRANCH  12  17
HETATM   17  O   UNL     1      44.512 -19.117   5.037  1.00  0.00    -0.355 OA
HETATM   18  C   UNL     1      44.270 -19.566   6.364  1.00  0.00     0.210 C 
ENDBRANCH  12  17
ENDBRANCH   6  11
ENDBRANCH   5   6
ENDBRANCH   2   5
BRANCH   1  19
HETATM   19  C   UNL     1      40.118 -14.928   5.671  1.00  0.00     0.107 C 
BRANCH  19  20
HETATM   20  C   UNL     1      40.963 -13.667   5.825  1.00  0.00     0.052 C 
BRANCH  20  21
HETATM   21  C   UNL     1      41.938 -13.510   4.704  1.00  0.00    -0.008 A 
HETATM   22  C   UNL     1      41.692 -13.175   3.385  1.00  0.00     0.032 A 
HETATM   23  C   UNL     1      40.442 -12.867   2.654  1.00  0.00     0.070 C 
HETATM   24  N   UNL     1      42.911 -13.169   2.767  1.00  0.00    -0.282 N 
HETATM   25  H   UNL     1      43.121 -12.962   1.796  1.00  0.00     0.189 HD
HETATM   26  N   UNL     1      43.929 -13.482   3.577  1.00  0.00    -0.179 NA
HETATM   27  C   UNL     1      43.351 -13.684   4.765  1.00  0.00     0.059 A 
HETATM   28  C   UNL     1      44.175 -14.051   5.945  1.00  0.00     0.073 C 
ENDBRANCH  20  21
ENDBRANCH  19  20
ENDBRANCH   1  19
TORSDOF 7
ENDMDL
MODEL 2
REMARK VINA RESULT:      -8.0      2.598      6.378
REMARK  7 active torsions:
REMARK  status: ('A' for Active; 'I' for Inactive)
REMARK    1  A    between atoms: C_8  and  C_9 
REMARK    2  A    between atoms: C_9  and  C_10 
REMARK    3  A    between atoms: C_10  and  C_11 
REMARK       I    between atoms: C_11  and  N_12 
REMARK    4  A    between atoms: N_12  and  C_13 
REMARK    5  A    between atoms: C_13  and  C_14 
REMARK    6  A    between atoms: C_14  and  C_15 
REMARK    7  A    between atoms: C_16  and  O_17 
ROOT
HETATM    1  C   UNL     1      42.326 -17.075   2.120  1.00  0.00     0.217 C 
HETATM    2  N   UNL     1      43.097 -16.354   3.007  1.00  0.00    -0.360 N 
HETATM    3  O   UNL     1      41.549 -16.566   1.320  1.00  0.00    -0.274 OA
HETATM    4  H   UNL     1      43.585 -16.862   3.735  1.00  0.00     0.162 HD
ENDROOT
BRANCH   2   5
HETATM    5  C   UNL     1      42.943 -14.923   3.183  1.00  0.00     0.137 C 
BRANCH   5   6
HETATM    6  C   UNL     1      42.109 -14.513   4.427  1.00  0.00     0.005 C 
HETATM    7  C   UNL     1      42.180 -12.986   4.710  1.00  0.00     0.016 C 
HETATM    8  C   UNL     1      40.925 -12.674   5.525  1.00  0.00     0.001 C 
HETATM    9  C   UNL     1      39.886 -13.694   5.073  1.00  0.00     0.001 C 
HETATM   10  C   UNL     1      40.598 -14.554   4.032  1.00  0.00     0.016 C 
BRANCH   6  11
HETATM   11  C   UNL     1      42.467 -15.415   5.641  1.00  0.00    -0.015 A 
HETATM   12  C   UNL     1      43.604 -15.205   6.462  1.00  0.00     0.075 A 
HETATM   13  C   UNL     1      43.868 -16.065   7.542  1.00  0.00     0.037 A 
HETATM   14  C   UNL     1      43.036 -17.147   7.819  1.00  0.00     0.003 A 
HETATM   15  C   UNL     1      41.943 -17.392   7.007  1.00  0.00     0.001 A 
HETATM   16  C   UNL     1      41.671 -16.546   5.930  1.00  0.00     0.011 A 
BRANCH  12  17
HETATM   17  O   UNL     1      44.447 -14.176   6.123  1.00  0.00    -0.355 OA
HETATM   18  C   UNL     1      45.279 -13.633   7.139  1.00  0.00     0.210 C 
ENDBRANCH  12  17
ENDBRANCH   6  11
ENDBRANCH   5   6
ENDBRANCH   2   5
BRANCH   1  19
HETATM   19  C   UNL     1      42.601 -18.562   2.175  1.00  0.00     0.107 C 
BRANCH  19  20
HETATM   20  C   UNL     1      44.097 -18.854   2.254  1.00  0.00     0.052 C 
BRANCH  20  21
HETATM   21  C   UNL     1      44.389 -20.037   3.119  1.00  0.00    -0.008 A 
HETATM   22  C   UNL     1      44.751 -20.061   4.454  1.00  0.00     0.032 A 
HETATM   23  C   UNL     1      44.964 -18.984   5.447  1.00  0.00     0.070 C 
HETATM   24  N   UNL     1      44.909 -21.381   4.773  1.00  0.00    -0.282 N 
HETATM   25  H   UNL     1      45.169 -21.783   5.668  1.00  0.00     0.189 HD
HETATM   26  N   UNL     1      44.688 -22.215   3.751  1.00  0.00    -0.179 NA
HETATM   27  C   UNL     1      44.360 -21.408   2.737  1.00  0.00     0.059 A 
HETATM   28  C   UNL     1      44.030 -21.978   1.405  1.00  0.00     0.073 C 
ENDBRANCH  20  21
ENDBRANCH  19  20
ENDBRANCH   1  19
TORSDOF 7
ENDMDL
MODEL 3
REMARK VINA RESULT:      -7.6      1.816      2.292
REMARK  7 active torsions:
REMARK  status: ('A' for Active; 'I' for Inactive)
REMARK    1  A    between atoms: C_8  and  C_9 
REMARK    2  A    between atoms: C_9  and  C_10 
REMARK    3  A    between atoms: C_10  and  C_11 
REMARK       I    between atoms: C_11  and  N_12 
REMARK    4  A    between atoms: N_12  and  C_13 
REMARK    5  A    between atoms: C_13  and  C_14 
REMARK    6  A    between atoms: C_14  and  C_15 
REMARK    7  A    between atoms: C_16  and  O_17 
ROOT
HETATM    1  C   UNL     1      41.106 -15.923   5.536  1.00  0.00     0.217 C 
HETATM    2  N   UNL     1      40.959 -16.778   4.464  1.00  0.00    -0.360 N 
HETATM    3  O   UNL     1      41.965 -16.052   6.401  1.00  0.00    -0.274 OA
HETATM    4  H   UNL     1      40.128 -16.688   3.893  1.00  0.00     0.162 HD
ENDROOT
BRANCH   2   5
HETATM    5  C   UNL     1      41.718 -18.008   4.344  1.00  0.00     0.137 C 
BRANCH   5   6
HETATM    6  C   UNL     1      42.624 -18.085   3.085  1.00  0.00     0.005 C 
HETATM    7  C   UNL     1      41.870 -17.681   1.787  1.00  0.00     0.016 C 
HETATM    8  C   UNL     1      42.963 -17.251   0.809  1.00  0.00     0.001 C 
HETATM    9  C   UNL     1      44.091 -16.706   1.679  1.00  0.00     0.001 C 
HETATM   10  C   UNL     1      43.599 -16.864   3.115  1.00  0.00     0.016 C 
BRANCH   6  11
HETATM   11  C   UNL     1      43.341 -19.461   3.017  1.00  0.00    -0.015 A 
HETATM   12  C   UNL     1      44.312 -19.885   3.960  1.00  0.00     0.075 A 
HETATM   13  C   UNL     1      44.923 -21.145   3.833  1.00  0.00     0.037 A 
HETATM   14  C   UNL     1      44.606 -21.993   2.775  1.00  0.00     0.003 A 
HETATM   15  C   UNL     1      43.690 -21.584   1.822  1.00  0.00     0.001 A 
HETATM   16  C   UNL     1      43.077 -20.335   1.937  1.00  0.00     0.011 A 
BRANCH  12  17
HETATM   17  O   UNL     1      44.658 -19.001   4.951  1.00  0.00    -0.355 OA
HETATM   18  C   UNL     1      44.374 -19.360   6.296  1.00  0.00     0.210 C 
ENDBRANCH  12  17
ENDBRANCH   6  11
ENDBRANCH   5   6
ENDBRANCH   2   5
BRANCH   1  19
HETATM   19  C   UNL     1      40.145 -14.754   5.491  1.00  0.00     0.107 C 
BRANCH  19  20
HETATM   20  C   UNL     1      40.696 -13.608   4.647  1.00  0.00     0.052 C 
BRANCH  20  21
HETATM   21  C   UNL     1      39.680 -12.531   4.439  1.00  0.00    -0.008 A 
HETATM   22  C   UNL     1      38.943 -12.249   3.303  1.00  0.00     0.032 A 
HETATM   23  C   UNL     1      38.898 -12.878   1.964  1.00  0.00     0.070 C 
HETATM   24  N   UNL     1      38.165 -11.171   3.622  1.00  0.00    -0.282 N 
HETATM   25  H   UNL     1      37.493 -10.687   3.037  1.00  0.00     0.189 HD
HETATM   26  N   UNL     1      38.345 -10.725   4.871  1.00  0.00    -0.179 NA
HETATM   27  C   UNL     1      39.261 -11.553   5.385  1.00  0.00     0.059 A 
HETATM   28  C   UNL     1      39.724 -11.379   6.785  1.00  0.00     0.073 C 
ENDBRANCH  20  21
ENDBRANCH  19  20
ENDBRANCH   1  19
TORSDOF 7
ENDMDL
MODEL 4
REMARK VINA RESULT:      -7.6      2.477      6.450
REMARK  7 active torsions:
REMARK  status: ('A' for Active; 'I' for Inactive)
REMARK    1  A    between atoms: C_8  and  C_9 
REMARK    2  A    between atoms: C_9  and  C_10 
REMARK    3  A    between atoms: C_10  and  C_11 
REMARK       I    between atoms: C_11  and  N_12 
REMARK    4  A    between atoms: N_12  and  C_13 
REMARK    5  A    between atoms: C_13  and  C_14 
REMARK    6  A    between atoms: C_14  and  C_15 
REMARK    7  A    between atoms: C_16  and  O_17 
ROOT
HETATM    1  C   UNL     1      42.252 -17.280   1.576  1.00  0.00     0.217 C 
HETATM    2  N   UNL     1      42.924 -16.325   2.308  1.00  0.00    -0.360 N 
HETATM    3  O   UNL     1      41.501 -17.021   0.641  1.00  0.00    -0.274 OA
HETATM    4  H   UNL     1      43.391 -16.618   3.158  1.00  0.00     0.162 HD
ENDROOT
BRANCH   2   5
HETATM    5  C   UNL     1      42.683 -14.905   2.138  1.00  0.00     0.137 C 
BRANCH   5   6
HETATM    6  C   UNL     1      42.027 -14.211   3.362  1.00  0.00     0.005 C 
HETATM    7  C   UNL     1      41.901 -12.673   3.173  1.00  0.00     0.016 C 
HETATM    8  C   UNL     1      40.776 -12.248   4.116  1.00  0.00     0.001 C 
HETATM    9  C   UNL     1      39.851 -13.457   4.212  1.00  0.00     0.001 C 
HETATM   10  C   UNL     1      40.497 -14.524   3.333  1.00  0.00     0.016 C 
BRANCH   6  11
HETATM   11  C   UNL     1      42.734 -14.646   4.675  1.00  0.00    -0.015 A 
HETATM   12  C   UNL     1      42.363 -15.796   5.419  1.00  0.00     0.075 A 
HETATM   13  C   UNL     1      43.047 -16.127   6.602  1.00  0.00     0.037 A 
HETATM   14  C   UNL     1      44.084 -15.330   7.079  1.00  0.00     0.003 A 
HETATM   15  C   UNL     1      44.437 -14.183   6.390  1.00  0.00     0.001 A 
HETATM   16  C   UNL     1      43.765 -13.843   5.214  1.00  0.00     0.011 A 
BRANCH  12  17
HETATM   17  O   UNL     1      41.291 -16.522   4.965  1.00  0.00    -0.355 OA
HETATM   18  C   UNL     1      41.277 -17.921   5.218  1.00  0.00     0.210 C 
ENDBRANCH  12  17
ENDBRANCH   6  11
ENDBRANCH   5   6
ENDBRANCH   2   5
BRANCH   1  19
HETATM   19  C   UNL     1      42.601 -18.693   1.991  1.00  0.00     0.107 C 
BRANCH  19  20
HETATM   20  C   UNL     1      44.096 -18.846   2.258  1.00  0.00     0.052 C 
BRANCH  20  21
HETATM   21  C   UNL     1      44.387 -20.015   3.143  1.00  0.00    -0.008 A 
HETATM   22  C   UNL     1      44.727 -20.018   4.483  1.00  0.00     0.032 A 
HETATM   23  C   UNL     1      44.912 -18.927   5.466  1.00  0.00     0.070 C 
HETATM   24  N   UNL     1      44.895 -21.332   4.822  1.00  0.00    -0.282 N 
HETATM   25  H   UNL     1      45.145 -21.720   5.726  1.00  0.00     0.189 HD
HETATM   26  N   UNL     1      44.700 -22.182   3.807  1.00  0.00    -0.179 NA
HETATM   27  C   UNL     1      44.380 -21.391   2.777  1.00  0.00     0.059 A 
HETATM   28  C   UNL     1      44.078 -21.981   1.447  1.00  0.00     0.073 C 
ENDBRANCH  20  21
ENDBRANCH  19  20
ENDBRANCH   1  19
TORSDOF 7
ENDMDL
MODEL 5
REMARK VINA RESULT:      -7.5      2.449      4.096
REMARK  7 active torsions:
REMARK  status: ('A' for Active; 'I' for Inactive)
REMARK    1  A    between atoms: C_8  and  C_9 
REMARK    2  A    between atoms: C_9  and  C_10 
REMARK    3  A    between atoms: C_10  and  C_11 
REMARK       I    between atoms: C_11  and  N_12 
REMARK    4  A    between atoms: N_12  and  C_13 
REMARK    5  A    between atoms: C_13  and  C_14 
REMARK    6  A    between atoms: C_14  and  C_15 
REMARK    7  A    between atoms: C_16  and  O_17 
ROOT
HETATM    1  C   UNL     1      40.592 -15.021   4.008  1.00  0.00     0.217 C 
HETATM    2  N   UNL     1      41.382 -16.146   3.923  1.00  0.00    -0.360 N 
HETATM    3  O   UNL     1      39.906 -14.738   4.985  1.00  0.00    -0.274 OA
HETATM    4  H   UNL     1      41.784 -16.380   3.024  1.00  0.00     0.162 HD
ENDROOT
BRANCH   2   5
HETATM    5  C   UNL     1      41.358 -17.189   4.931  1.00  0.00     0.137 C 
BRANCH   5   6
HETATM    6  C   UNL     1      42.663 -17.311   5.763  1.00  0.00     0.005 C 
HETATM    7  C   UNL     1      43.503 -16.003   5.743  1.00  0.00     0.016 C 
HETATM    8  C   UNL     1      44.373 -16.069   6.998  1.00  0.00     0.001 C 
HETATM    9  C   UNL     1      43.567 -16.881   8.006  1.00  0.00     0.001 C 
HETATM   10  C   UNL     1      42.279 -17.256   7.277  1.00  0.00     0.016 C 
BRANCH   6  11
HETATM   11  C   UNL     1      43.446 -18.590   5.359  1.00  0.00    -0.015 A 
HETATM   12  C   UNL     1      44.030 -18.778   4.080  1.00  0.00     0.075 A 
HETATM   13  C   UNL     1      44.722 -19.965   3.782  1.00  0.00     0.037 A 
HETATM   14  C   UNL     1      44.832 -20.987   4.722  1.00  0.00     0.003 A 
HETATM   15  C   UNL     1      44.236 -20.841   5.962  1.00  0.00     0.001 A 
HETATM   16  C   UNL     1      43.545 -19.667   6.269  1.00  0.00     0.011 A 
BRANCH  12  17
HETATM   17  O   UNL     1      43.844 -17.786   3.149  1.00  0.00    -0.355 OA
HETATM   18  C   UNL     1      44.262 -18.037   1.814  1.00  0.00     0.210 C 
ENDBRANCH  12  17
ENDBRANCH   6  11
ENDBRANCH   5   6
ENDBRANCH   2   5
BRANCH   1  19
HETATM   19  C   UNL     1      40.720 -14.120   2.798  1.00  0.00     0.107 C 
BRANCH  19  20
HETATM   20  C   UNL     1      42.003 -14.402   2.022  1.00  0.00     0.052 C 
BRANCH  20  21
HETATM   21  C   UNL     1      41.734 -14.657   0.574  1.00  0.00    -0.008 A 
HETATM   22  C   UNL     1      41.812 -13.774  -0.487  1.00  0.00     0.032 A 
HETATM   23  C   UNL     1      42.172 -12.340  -0.564  1.00  0.00     0.070 C 
HETATM   24  N   UNL     1      41.464 -14.492  -1.597  1.00  0.00    -0.282 N 
HETATM   25  H   UNL     1      41.412 -14.174  -2.559  1.00  0.00     0.189 HD
HETATM   26  N   UNL     1      41.158 -15.769  -1.341  1.00  0.00    -0.179 NA
HETATM   27  C   UNL     1      41.327 -15.886  -0.020  1.00  0.00     0.059 A 
HETATM   28  C   UNL     1      41.085 -17.188   0.653  1.00  0.00     0.073 C 
ENDBRANCH  20  21
ENDBRANCH  19  20
ENDBRANCH   1  19
TORSDOF 7
ENDMDL
MODEL 6
REMARK VINA RESULT:      -7.4      2.394      3.748
REMARK  7 active torsions:
REMARK  status: ('A' for Active; 'I' for Inactive)
REMARK    1  A    between atoms: C_8  and  C_9 
REMARK    2  A    between atoms: C_9  and  C_10 
REMARK    3  A    between atoms: C_10  and  C_11 
REMARK       I    between atoms: C_11  and  N_12 
REMARK    4  A    between atoms: N_12  and  C_13 
REMARK    5  A    between atoms: C_13  and  C_14 
REMARK    6  A    between atoms: C_14  and  C_15 
REMARK    7  A    between atoms: C_16  and  O_17 
ROOT
HETATM    1  C   UNL     1      40.395 -16.133   2.692  1.00  0.00     0.217 C 
HETATM    2  N   UNL     1      40.763 -16.111   4.020  1.00  0.00    -0.360 N 
HETATM    3  O   UNL     1      40.194 -17.161   2.055  1.00  0.00    -0.274 OA
HETATM    4  H   UNL     1      41.063 -15.228   4.416  1.00  0.00     0.162 HD
ENDROOT
BRANCH   2   5
HETATM    5  C   UNL     1      41.099 -17.317   4.751  1.00  0.00     0.137 C 
BRANCH   5   6
HETATM    6  C   UNL     1      42.469 -17.266   5.482  1.00  0.00     0.005 C 
HETATM    7  C   UNL     1      43.132 -15.862   5.401  1.00  0.00     0.016 C 
HETATM    8  C   UNL     1      44.094 -15.809   6.587  1.00  0.00     0.001 C 
HETATM    9  C   UNL     1      43.476 -16.709   7.651  1.00  0.00     0.001 C 
HETATM   10  C   UNL     1      42.195 -17.250   7.020  1.00  0.00     0.016 C 
BRANCH   6  11
HETATM   11  C   UNL     1      43.375 -18.439   5.016  1.00  0.00    -0.015 A 
HETATM   12  C   UNL     1      43.888 -18.554   3.699  1.00  0.00     0.075 A 
HETATM   13  C   UNL     1      44.700 -19.647   3.346  1.00  0.00     0.037 A 
HETATM   14  C   UNL     1      45.002 -20.645   4.270  1.00  0.00     0.003 A 
HETATM   15  C   UNL     1      44.479 -20.572   5.549  1.00  0.00     0.001 A 
HETATM   16  C   UNL     1      43.670 -19.493   5.911  1.00  0.00     0.011 A 
BRANCH  12  17
HETATM   17  O   UNL     1      43.517 -17.596   2.790  1.00  0.00    -0.355 OA
HETATM   18  C   UNL     1      43.995 -17.718   1.457  1.00  0.00     0.210 C 
ENDBRANCH  12  17
ENDBRANCH   6  11
ENDBRANCH   5   6
ENDBRANCH   2   5
BRANCH   1  19
HETATM   19  C   UNL     1      40.181 -14.748   2.117  1.00  0.00     0.107 C 
BRANCH  19  20
HETATM   20  C   UNL     1      40.837 -13.675   2.981  1.00  0.00     0.052 C 
BRANCH  20  21
HETATM   21  C   UNL     1      39.825 -12.792   3.637  1.00  0.00    -0.008 A 
HETATM   22  C   UNL     1      38.969 -11.877   3.051  1.00  0.00     0.032 A 
HETATM   23  C   UNL     1      38.760 -11.471   1.643  1.00  0.00     0.070 C 
HETATM   24  N   UNL     1      38.254 -11.326   4.077  1.00  0.00    -0.282 N 
HETATM   25  H   UNL     1      37.528 -10.619   4.027  1.00  0.00     0.189 HD
HETATM   26  N   UNL     1      38.583 -11.803   5.283  1.00  0.00    -0.179 NA
HETATM   27  C   UNL     1      39.535 -12.706   5.029  1.00  0.00     0.059 A 
HETATM   28  C   UNL     1      40.158 -13.470   6.140  1.00  0.00     0.073 C 
ENDBRANCH  20  21
ENDBRANCH  19  20
ENDBRANCH   1  19
TORSDOF 7
ENDMDL
MODEL 7
REMARK VINA RESULT:      -7.4      2.340      6.517
REMARK  7 active torsions:
REMARK  status: ('A' for Active; 'I' for Inactive)
REMARK    1  A    between atoms: C_8  and  C_9 
REMARK    2  A    between atoms: C_9  and  C_10 
REMARK    3  A    between atoms: C_10  and  C_11 
REMARK       I    between atoms: C_11  and  N_12 
REMARK    4  A    between atoms: N_12  and  C_13 
REMARK    5  A    between atoms: C_13  and  C_14 
REMARK    6  A    between atoms: C_14  and  C_15 
REMARK    7  A    between atoms: C_16  and  O_17 
ROOT
HETATM    1  C   UNL     1      42.979 -18.439   6.245  1.00  0.00     0.217 C 
HETATM    2  N   UNL     1      42.116 -18.270   5.183  1.00  0.00    -0.360 N 
HETATM    3  O   UNL     1      42.940 -17.769   7.271  1.00  0.00    -0.274 OA
HETATM    4  H   UNL     1      42.324 -18.755   4.319  1.00  0.00     0.162 HD
ENDROOT
BRANCH   2   5
HETATM    5  C   UNL     1      41.173 -17.170   5.118  1.00  0.00     0.137 C 
BRANCH   5   6
HETATM    6  C   UNL     1      41.530 -16.076   4.077  1.00  0.00     0.005 C 
HETATM    7  C   UNL     1      42.958 -16.261   3.489  1.00  0.00     0.016 C 
HETATM    8  C   UNL     1      42.933 -15.532   2.146  1.00  0.00     0.001 C 
HETATM    9  C   UNL     1      41.489 -15.625   1.663  1.00  0.00     0.001 C 
HETATM   10  C   UNL     1      40.751 -16.389   2.759  1.00  0.00     0.016 C 
BRANCH   6  11
HETATM   11  C   UNL     1      41.246 -14.663   4.656  1.00  0.00    -0.015 A 
HETATM   12  C   UNL     1      42.153 -13.963   5.493  1.00  0.00     0.075 A 
HETATM   13  C   UNL     1      41.826 -12.688   5.985  1.00  0.00     0.037 A 
HETATM   14  C   UNL     1      40.604 -12.092   5.680  1.00  0.00     0.003 A 
HETATM   15  C   UNL     1      39.689 -12.773   4.898  1.00  0.00     0.001 A 
HETATM   16  C   UNL     1      40.001 -14.041   4.404  1.00  0.00     0.011 A 
BRANCH  12  17
HETATM   17  O   UNL     1      43.317 -14.603   5.836  1.00  0.00    -0.355 OA
HETATM   18  C   UNL     1      44.178 -13.968   6.772  1.00  0.00     0.210 C 
ENDBRANCH  12  17
ENDBRANCH   6  11
ENDBRANCH   5   6
ENDBRANCH   2   5
BRANCH   1  19
HETATM   19  C   UNL     1      43.931 -19.600   6.050  1.00  0.00     0.107 C 
BRANCH  19  20
HETATM   20  C   UNL     1      44.783 -19.422   4.797  1.00  0.00     0.052 C 
BRANCH  20  21
HETATM   21  C   UNL     1      44.534 -20.503   3.796  1.00  0.00    -0.008 A 
HETATM   22  C   UNL     1      44.016 -20.394   2.518  1.00  0.00     0.032 A 
HETATM   23  C   UNL     1      43.551 -19.231   1.729  1.00  0.00     0.070 C 
HETATM   24  N   UNL     1      43.984 -21.666   2.019  1.00  0.00    -0.282 N 
HETATM   25  H   UNL     1      43.667 -21.973   1.105  1.00  0.00     0.189 HD
HETATM   26  N   UNL     1      44.431 -22.594   2.873  1.00  0.00    -0.179 NA
HETATM   27  C   UNL     1      44.780 -21.897   3.959  1.00  0.00     0.059 A 
HETATM   28  C   UNL     1      45.339 -22.592   5.146  1.00  0.00     0.073 C 
ENDBRANCH  20  21
ENDBRANCH  19  20
ENDBRANCH   1  19
TORSDOF 7
ENDMDL
MODEL 8
REMARK VINA RESULT:      -7.4      2.587      4.184
REMARK  7 active torsions:
REMARK  status: ('A' for Active; 'I' for Inactive)
REMARK    1  A    between atoms: C_8  and  C_9 
REMARK    2  A    between atoms: C_9  and  C_10 
REMARK    3  A    between atoms: C_10  and  C_11 
REMARK       I    between atoms: C_11  and  N_12 
REMARK    4  A    between atoms: N_12  and  C_13 
REMARK    5  A    between atoms: C_13  and  C_14 
REMARK    6  A    between atoms: C_14  and  C_15 
REMARK    7  A    between atoms: C_16  and  O_17 
ROOT
HETATM    1  C   UNL     1      40.217 -15.117   4.313  1.00  0.00     0.217 C 
HETATM    2  N   UNL     1      40.887 -16.296   4.065  1.00  0.00    -0.360 N 
HETATM    3  O   UNL     1      39.866 -14.752   5.430  1.00  0.00    -0.274 OA
HETATM    4  H   UNL     1      40.993 -16.590   3.102  1.00  0.00     0.162 HD
ENDROOT
BRANCH   2   5
HETATM    5  C   UNL     1      41.105 -17.295   5.093  1.00  0.00     0.137 C 
BRANCH   5   6
HETATM    6  C   UNL     1      42.533 -17.292   5.703  1.00  0.00     0.005 C 
HETATM    7  C   UNL     1      43.230 -15.908   5.571  1.00  0.00     0.016 C 
HETATM    8  C   UNL     1      44.293 -15.893   6.669  1.00  0.00     0.001 C 
HETATM    9  C   UNL     1      43.741 -16.782   7.779  1.00  0.00     0.001 C 
HETATM   10  C   UNL     1      42.394 -17.278   7.259  1.00  0.00     0.016 C 
BRANCH   6  11
HETATM   11  C   UNL     1      43.358 -18.488   5.155  1.00  0.00    -0.015 A 
HETATM   12  C   UNL     1      43.772 -18.599   3.802  1.00  0.00     0.075 A 
HETATM   13  C   UNL     1      44.514 -19.714   3.375  1.00  0.00     0.037 A 
HETATM   14  C   UNL     1      44.843 -20.739   4.259  1.00  0.00     0.003 A 
HETATM   15  C   UNL     1      44.417 -20.670   5.573  1.00  0.00     0.001 A 
HETATM   16  C   UNL     1      43.677 -19.569   6.009  1.00  0.00     0.011 A 
BRANCH  12  17
HETATM   17  O   UNL     1      43.373 -17.611   2.937  1.00  0.00    -0.355 OA
HETATM   18  C   UNL     1      44.100 -17.449   1.727  1.00  0.00     0.210 C 
ENDBRANCH  12  17
ENDBRANCH   6  11
ENDBRANCH   5   6
ENDBRANCH   2   5
BRANCH   1  19
HETATM   19  C   UNL     1      40.032 -14.273   3.070  1.00  0.00     0.107 C 
BRANCH  19  20
HETATM   20  C   UNL     1      39.152 -14.976   2.041  1.00  0.00     0.052 C 
BRANCH  20  21
HETATM   21  C   UNL     1      39.248 -14.335   0.695  1.00  0.00    -0.008 A 
HETATM   22  C   UNL     1      38.405 -13.402   0.121  1.00  0.00     0.032 A 
HETATM   23  C   UNL     1      37.175 -12.739   0.609  1.00  0.00     0.070 C 
HETATM   24  N   UNL     1      38.923 -13.142  -1.118  1.00  0.00    -0.282 N 
HETATM   25  H   UNL     1      38.571 -12.504  -1.823  1.00  0.00     0.189 HD
HETATM   26  N   UNL     1      40.031 -13.839  -1.397  1.00  0.00    -0.179 NA
HETATM   27  C   UNL     1      40.246 -14.565  -0.296  1.00  0.00     0.059 A 
HETATM   28  C   UNL     1      41.414 -15.480  -0.220  1.00  0.00     0.073 C 
ENDBRANCH  20  21
ENDBRANCH  19  20
ENDBRANCH   1  19
TORSDOF 7
ENDMDL
MODEL 9
REMARK VINA RESULT:      -7.3      3.271      7.315
REMARK  7 active torsions:
REMARK  status: ('A' for Active; 'I' for Inactive)
REMARK    1  A    between atoms: C_8  and  C_9 
REMARK    2  A    between atoms: C_9  and  C_10 
REMARK    3  A    between atoms: C_10  and  C_11 
REMARK       I    between atoms: C_11  and  N_12 
REMARK    4  A    between atoms: N_12  and  C_13 
REMARK    5  A    between atoms: C_13  and  C_14 
REMARK    6  A    between atoms: C_14  and  C_15 
REMARK    7  A    between atoms: C_16  and  O_17 
ROOT
HETATM    1  C   UNL     1      42.026 -17.312   2.695  1.00  0.00     0.217 C 
HETATM    2  N   UNL     1      42.142 -16.126   2.002  1.00  0.00    -0.360 N 
HETATM    3  O   UNL     1      41.512 -17.408   3.804  1.00  0.00    -0.274 OA
HETATM    4  H   UNL     1      42.721 -16.115   1.171  1.00  0.00     0.162 HD
ENDROOT
BRANCH   2   5
HETATM    5  C   UNL     1      41.802 -14.846   2.592  1.00  0.00     0.137 C 
BRANCH   5   6
HETATM    6  C   UNL     1      40.739 -14.035   1.803  1.00  0.00     0.005 C 
HETATM    7  C   UNL     1      39.500 -14.895   1.423  1.00  0.00     0.016 C 
HETATM    8  C   UNL     1      38.370 -13.890   1.208  1.00  0.00     0.001 C 
HETATM    9  C   UNL     1      38.694 -12.714   2.124  1.00  0.00     0.001 C 
HETATM   10  C   UNL     1      40.004 -13.093   2.810  1.00  0.00     0.016 C 
BRANCH   6  11
HETATM   11  C   UNL     1      41.400 -13.289   0.612  1.00  0.00    -0.015 A 
HETATM   12  C   UNL     1      41.600 -13.876  -0.664  1.00  0.00     0.075 A 
HETATM   13  C   UNL     1      42.211 -13.142  -1.696  1.00  0.00     0.037 A 
HETATM   14  C   UNL     1      42.648 -11.836  -1.487  1.00  0.00     0.003 A 
HETATM   15  C   UNL     1      42.498 -11.258  -0.238  1.00  0.00     0.001 A 
HETATM   16  C   UNL     1      41.895 -11.978   0.795  1.00  0.00     0.011 A 
BRANCH  12  17
HETATM   17  O   UNL     1      41.227 -15.187  -0.822  1.00  0.00    -0.355 OA
HETATM   18  C   UNL     1      40.933 -15.645  -2.135  1.00  0.00     0.210 C 
ENDBRANCH  12  17
ENDBRANCH   6  11
ENDBRANCH   5   6
ENDBRANCH   2   5
BRANCH   1  19
HETATM   19  C   UNL     1      42.525 -18.505   1.908  1.00  0.00     0.107 C 
BRANCH  19  20
HETATM   20  C   UNL     1      44.023 -18.720   2.104  1.00  0.00     0.052 C 
BRANCH  20  21
HETATM   21  C   UNL     1      44.305 -19.786   3.114  1.00  0.00    -0.008 A 
HETATM   22  C   UNL     1      44.548 -19.649   4.468  1.00  0.00     0.032 A 
HETATM   23  C   UNL     1      44.610 -18.463   5.353  1.00  0.00     0.070 C 
HETATM   24  N   UNL     1      44.753 -20.915   4.940  1.00  0.00    -0.282 N 
HETATM   25  H   UNL     1      44.955 -21.205   5.891  1.00  0.00     0.189 HD
HETATM   26  N   UNL     1      44.671 -21.863   4.000  1.00  0.00    -0.179 NA
HETATM   27  C   UNL     1      44.388 -21.188   2.880  1.00  0.00     0.059 A 
HETATM   28  C   UNL     1      44.211 -21.912   1.596  1.00  0.00     0.073 C 
ENDBRANCH  20  21
ENDBRANCH  19  20
ENDBRANCH   1  19
TORSDOF 7
ENDMDL
MODEL 10
REMARK VINA RESULT:      -7.3      3.489      5.343
REMARK  7 active torsions:
REMARK  status: ('A' for Active; 'I' for Inactive)
REMARK    1  A    between atoms: C_8  and  C_9 
REMARK    2  A    between atoms: C_9  and  C_10 
REMARK    3  A    between atoms: C_10  and  C_11 
REMARK       I    between atoms: C_11  and  N_12 
REMARK    4  A    between atoms: N_12  and  C_13 
REMARK    5  A    between atoms: C_13  and  C_14 
REMARK    6  A    between atoms: C_14  and  C_15 
REMARK    7  A    between atoms: C_16  and  O_17 
ROOT
HETATM    1  C   UNL     1      39.977 -14.937   1.071  1.00  0.00     0.217 C 
HETATM    2  N   UNL     1      40.808 -16.004   0.805  1.00  0.00    -0.360 N 
HETATM    3  O   UNL     1      39.214 -14.887   2.030  1.00  0.00    -0.274 OA
HETATM    4  H   UNL     1      41.280 -16.027  -0.091  1.00  0.00     0.162 HD
ENDROOT
BRANCH   2   5
HETATM    5  C   UNL     1      40.744 -17.243   1.556  1.00  0.00     0.137 C 
BRANCH   5   6
HETATM    6  C   UNL     1      42.082 -17.661   2.223  1.00  0.00     0.005 C 
HETATM    7  C   UNL     1      42.365 -19.183   2.080  1.00  0.00     0.016 C 
HETATM    8  C   UNL     1      43.879 -19.322   2.235  1.00  0.00     0.001 C 
HETATM    9  C   UNL     1      44.460 -18.009   1.720  1.00  0.00     0.001 C 
HETATM   10  C   UNL     1      43.252 -17.172   1.309  1.00  0.00     0.016 C 
BRANCH   6  11
HETATM   11  C   UNL     1      42.153 -17.122   3.678  1.00  0.00    -0.015 A 
HETATM   12  C   UNL     1      42.529 -15.793   4.003  1.00  0.00     0.075 A 
HETATM   13  C   UNL     1      42.575 -15.376   5.345  1.00  0.00     0.037 A 
HETATM   14  C   UNL     1      42.273 -16.256   6.381  1.00  0.00     0.003 A 
HETATM   15  C   UNL     1      41.942 -17.567   6.089  1.00  0.00     0.001 A 
HETATM   16  C   UNL     1      41.894 -17.994   4.761  1.00  0.00     0.011 A 
BRANCH  12  17
HETATM   17  O   UNL     1      42.891 -14.969   2.968  1.00  0.00    -0.355 OA
HETATM   18  C   UNL     1      42.993 -13.575   3.228  1.00  0.00     0.210 C 
ENDBRANCH  12  17
ENDBRANCH   6  11
ENDBRANCH   5   6
ENDBRANCH   2   5
BRANCH   1  19
HETATM   19  C   UNL     1      40.163 -13.790   0.101  1.00  0.00     0.107 C 
BRANCH  19  20
HETATM   20  C   UNL     1      41.637 -13.548  -0.206  1.00  0.00     0.052 C 
BRANCH  20  21
HETATM   21  C   UNL     1      41.859 -13.215  -1.646  1.00  0.00    -0.008 A 
HETATM   22  C   UNL     1      41.592 -13.986  -2.762  1.00  0.00     0.032 A 
HETATM   23  C   UNL     1      41.019 -15.342  -2.920  1.00  0.00     0.070 C 
HETATM   24  N   UNL     1      41.979 -13.235  -3.837  1.00  0.00    -0.282 N 
HETATM   25  H   UNL     1      41.929 -13.476  -4.821  1.00  0.00     0.189 HD
HETATM   26  N   UNL     1      42.485 -12.041  -3.508  1.00  0.00    -0.179 NA
HETATM   27  C   UNL     1      42.410 -12.011  -2.173  1.00  0.00     0.059 A 
HETATM   28  C   UNL     1      42.880 -10.818  -1.424  1.00  0.00     0.073 C 
ENDBRANCH  20  21
ENDBRANCH  19  20
ENDBRANCH   1  19
TORSDOF 7
ENDMDL
