MODEL 1
REMARK VINA RESULT:      -8.3      0.000      0.000
REMARK  9 active torsions:
REMARK  status: ('A' for Active; 'I' for Inactive)
REMARK    1  A    between atoms: C_2  and  C_3 
REMARK    2  A    between atoms: C_5  and  O_6 
REMARK    3  A    between atoms: C_8  and  O_9 
REMARK    4  A    between atoms: O_9  and  C_10 
REMARK    5  A    between atoms: C_10  and  C_11 
REMARK       I    between atoms: C_11  and  N_12 
REMARK    6  A    between atoms: N_12  and  C_13 
REMARK    7  A    between atoms: C_13  and  C_14 
REMARK    8  A    between atoms: C_17  and  N_18 
REMARK       I    between atoms: N_18  and  C_19 
REMARK    9  A    between atoms: C_19  and  C_20 
ROOT
HETATM    1  C   UNL     1      42.185 -16.128   6.305  1.00  0.00     0.242 C 
HETATM    2  N   UNL     1      41.467 -14.987   6.093  1.00  0.00    -0.355 N 
HETATM    3  O   UNL     1      41.654 -17.059   6.913  1.00  0.00    -0.271 OA
HETATM    4  H   UNL     1      40.525 -15.036   6.457  1.00  0.00     0.162 HD
ENDROOT
BRANCH   2   5
HETATM    5  C   UNL     1      41.804 -13.853   5.255  1.00  0.00     0.161 C 
BRANCH   5   6
HETATM    6  C   UNL     1      41.296 -14.076   3.853  1.00  0.00    -0.040 A 
HETATM    7  C   UNL     1      40.065 -14.712   3.642  1.00  0.00     0.011 A 
HETATM    8  C   UNL     1      39.616 -14.993   2.347  1.00  0.00     0.030 A 
HETATM    9  C   UNL     1      40.390 -14.649   1.239  1.00  0.00     0.035 A 
HETATM   10  C   UNL     1      41.609 -13.993   1.446  1.00  0.00     0.030 A 
HETATM   11  C   UNL     1      42.061 -13.711   2.740  1.00  0.00     0.011 A 
BRANCH   9  12
HETATM   12  N   UNL     1      40.035 -14.945  -0.091  1.00  0.00    -0.321 N 
HETATM   13  C   UNL     1      39.773 -14.065  -1.126  1.00  0.00     0.279 C 
HETATM   14  O   UNL     1      39.878 -12.845  -1.070  1.00  0.00    -0.265 OA
HETATM   15  H   UNL     1      39.906 -15.923  -0.327  1.00  0.00     0.169 HD
BRANCH  13  16
HETATM   16  C   UNL     1      39.333 -14.743  -2.334  1.00  0.00     0.142 A 
HETATM   17  O   UNL     1      38.025 -14.627  -2.737  1.00  0.00    -0.317 OA
HETATM   18  C   UNL     1      37.898 -15.336  -3.888  1.00  0.00     0.143 A 
HETATM   19  C   UNL     1      39.098 -15.910  -4.239  1.00  0.00     0.027 A 
HETATM   20  C   UNL     1      40.023 -15.531  -3.238  1.00  0.00     0.045 A 
ENDBRANCH  13  16
ENDBRANCH   9  12
ENDBRANCH   5   6
ENDBRANCH   2   5
BRANCH   1  21
HETATM   21  C   UNL     1      43.607 -16.232   5.767  1.00  0.00     0.278 C 
BRANCH  21  22
HETATM   22  O   UNL     1      43.553 -16.599   4.395  1.00  0.00    -0.339 OA
BRANCH  22  23
HETATM   23  C   UNL     1      43.833 -17.903   4.081  1.00  0.00     0.102 A 
HETATM   24  C   UNL     1      43.354 -18.357   2.837  1.00  0.00     0.102 A 
HETATM   25  C   UNL     1      43.557 -19.687   2.447  1.00  0.00     0.054 A 
HETATM   26  C   UNL     1      44.251 -20.566   3.286  1.00  0.00     0.012 A 
HETATM   27  C   UNL     1      44.742 -20.105   4.514  1.00  0.00     0.018 A 
HETATM   28  C   UNL     1      44.529 -18.782   4.913  1.00  0.00     0.040 A 
BRANCH  24  29
HETATM   29  O   UNL     1      42.662 -17.444   2.078  1.00  0.00    -0.353 OA
HETATM   30  C   UNL     1      43.135 -17.236   0.753  1.00  0.00     0.210 C 
ENDBRANCH  24  29
BRANCH  26  31
HETATM   31  C   UNL     1      44.484 -21.996   2.922  1.00  0.00     0.155 C 
HETATM   32  C   UNL     1      44.722 -23.002   4.018  1.00  0.00     0.096 C 
HETATM   33  O   UNL     1      44.477 -22.333   1.740  1.00  0.00    -0.293 OA
ENDBRANCH  26  31
ENDBRANCH  22  23
ENDBRANCH  21  22
ENDBRANCH   1  21
TORSDOF 9
ENDMDL
MODEL 2
REMARK VINA RESULT:      -8.3      2.477      5.231
REMARK  9 active torsions:
REMARK  status: ('A' for Active; 'I' for Inactive)
REMARK    1  A    between atoms: C_2  and  C_3 
REMARK    2  A    between atoms: C_5  and  O_6 
REMARK    3  A    between atoms: C_8  and  O_9 
REMARK    4  A    between atoms: O_9  and  C_10 
REMARK    5  A    between atoms: C_10  and  C_11 
REMARK       I    between atoms: C_11  and  N_12 
REMARK    6  A    between atoms: N_12  and  C_13 
REMARK    7  A    between atoms: C_13  and  C_14 
REMARK    8  A    between atoms: C_17  and  N_18 
REMARK       I    between atoms: N_18  and  C_19 
REMARK    9  A    between atoms: C_19  and  C_20 
ROOT
HETATM    1  C   UNL     1      44.800 -18.648   6.237  1.00  0.00     0.242 C 
HETATM    2  N   UNL     1      44.677 -19.075   4.947  1.00  0.00    -0.355 N 
HETATM    3  O   UNL     1      45.862 -18.135   6.593  1.00  0.00    -0.271 OA
HETATM    4  H   UNL     1      45.502 -18.900   4.389  1.00  0.00     0.162 HD
ENDROOT
BRANCH   2   5
HETATM    5  C   UNL     1      43.485 -19.527   4.257  1.00  0.00     0.161 C 
BRANCH   5   6
HETATM    6  C   UNL     1      43.140 -18.573   3.141  1.00  0.00    -0.040 A 
HETATM    7  C   UNL     1      41.931 -17.866   3.166  1.00  0.00     0.011 A 
HETATM    8  C   UNL     1      41.564 -17.035   2.101  1.00  0.00     0.030 A 
HETATM    9  C   UNL     1      42.396 -16.899   0.990  1.00  0.00     0.035 A 
HETATM   10  C   UNL     1      43.616 -17.586   0.974  1.00  0.00     0.030 A 
HETATM   11  C   UNL     1      43.985 -18.418   2.037  1.00  0.00     0.011 A 
BRANCH   9  12
HETATM   12  N   UNL     1      42.076 -16.127  -0.142  1.00  0.00    -0.321 N 
HETATM   13  C   UNL     1      41.754 -14.783  -0.203  1.00  0.00     0.279 C 
HETATM   14  O   UNL     1      41.764 -14.002   0.742  1.00  0.00    -0.265 OA
HETATM   15  H   UNL     1      42.025 -16.612  -1.032  1.00  0.00     0.169 HD
BRANCH  13  16
HETATM   16  C   UNL     1      41.378 -14.361  -1.543  1.00  0.00     0.142 A 
HETATM   17  O   UNL     1      40.514 -15.136  -2.278  1.00  0.00    -0.317 OA
HETATM   18  C   UNL     1      40.325 -14.504  -3.465  1.00  0.00     0.143 A 
HETATM   19  C   UNL     1      41.050 -13.336  -3.514  1.00  0.00     0.027 A 
HETATM   20  C   UNL     1      41.730 -13.244  -2.277  1.00  0.00     0.045 A 
ENDBRANCH  13  16
ENDBRANCH   9  12
ENDBRANCH   5   6
ENDBRANCH   2   5
BRANCH   1  21
HETATM   21  C   UNL     1      43.621 -18.791   7.192  1.00  0.00     0.278 C 
BRANCH  21  22
HETATM   22  O   UNL     1      43.323 -17.518   7.748  1.00  0.00    -0.339 OA
BRANCH  22  23
HETATM   23  C   UNL     1      42.567 -16.662   6.990  1.00  0.00     0.102 A 
HETATM   24  C   UNL     1      43.197 -15.467   6.590  1.00  0.00     0.102 A 
HETATM   25  C   UNL     1      42.491 -14.513   5.847  1.00  0.00     0.054 A 
HETATM   26  C   UNL     1      41.161 -14.751   5.483  1.00  0.00     0.012 A 
HETATM   27  C   UNL     1      40.545 -15.949   5.866  1.00  0.00     0.018 A 
HETATM   28  C   UNL     1      41.242 -16.897   6.621  1.00  0.00     0.040 A 
BRANCH  24  29
HETATM   29  O   UNL     1      44.496 -15.293   7.005  1.00  0.00    -0.353 OA
HETATM   30  C   UNL     1      45.002 -13.965   6.953  1.00  0.00     0.210 C 
ENDBRANCH  24  29
BRANCH  26  31
HETATM   31  C   UNL     1      40.361 -13.762   4.701  1.00  0.00     0.155 C 
HETATM   32  C   UNL     1      39.644 -14.218   3.457  1.00  0.00     0.096 C 
HETATM   33  O   UNL     1      40.296 -12.595   5.080  1.00  0.00    -0.293 OA
ENDBRANCH  26  31
ENDBRANCH  22  23
ENDBRANCH  21  22
ENDBRANCH   1  21
TORSDOF 9
ENDMDL
MODEL 3
REMARK VINA RESULT:      -8.2      2.995      6.777
REMARK  9 active torsions:
REMARK  status: ('A' for Active; 'I' for Inactive)
REMARK    1  A    between atoms: C_2  and  C_3 
REMARK    2  A    between atoms: C_5  and  O_6 
REMARK    3  A    between atoms: C_8  and  O_9 
REMARK    4  A    between atoms: O_9  and  C_10 
REMARK    5  A    between atoms: C_10  and  C_11 
REMARK       I    between atoms: C_11  and  N_12 
REMARK    6  A    between atoms: N_12  and  C_13 
REMARK    7  A    between atoms: C_13  and  C_14 
REMARK    8  A    between atoms: C_17  and  N_18 
REMARK       I    between atoms: N_18  and  C_19 
REMARK    9  A    between atoms: C_19  and  C_20 
ROOT
HETATM    1  C   UNL     1      40.820 -11.700   4.755  1.00  0.00     0.242 C 
HETATM    2  N   UNL     1      41.127 -12.554   5.773  1.00  0.00    -0.355 N 
HETATM    3  O   UNL     1      41.662 -10.871   4.401  1.00  0.00    -0.271 OA
HETATM    4  H   UNL     1      42.064 -12.424   6.134  1.00  0.00     0.162 HD
ENDROOT
BRANCH   2   5
HETATM    5  C   UNL     1      40.389 -13.715   6.229  1.00  0.00     0.161 C 
BRANCH   5   6
HETATM    6  C   UNL     1      41.068 -14.977   5.760  1.00  0.00    -0.040 A 
HETATM    7  C   UNL     1      42.277 -14.907   5.055  1.00  0.00     0.011 A 
HETATM    8  C   UNL     1      42.880 -16.064   4.549  1.00  0.00     0.030 A 
HETATM    9  C   UNL     1      42.285 -17.311   4.734  1.00  0.00     0.035 A 
HETATM   10  C   UNL     1      41.090 -17.387   5.458  1.00  0.00     0.030 A 
HETATM   11  C   UNL     1      40.483 -16.232   5.966  1.00  0.00     0.011 A 
BRANCH   9  12
HETATM   12  N   UNL     1      42.799 -18.513   4.212  1.00  0.00    -0.321 N 
HETATM   13  C   UNL     1      44.025 -19.103   4.461  1.00  0.00     0.279 C 
HETATM   14  O   UNL     1      44.865 -18.698   5.257  1.00  0.00    -0.265 OA
HETATM   15  H   UNL     1      42.229 -19.000   3.528  1.00  0.00     0.169 HD
BRANCH  13  16
HETATM   16  C   UNL     1      44.245 -20.292   3.653  1.00  0.00     0.142 A 
HETATM   17  O   UNL     1      44.658 -21.454   4.258  1.00  0.00    -0.317 OA
HETATM   18  C   UNL     1      44.764 -22.394   3.283  1.00  0.00     0.143 A 
HETATM   19  C   UNL     1      44.429 -21.864   2.060  1.00  0.00     0.027 A 
HETATM   20  C   UNL     1      44.096 -20.509   2.296  1.00  0.00     0.045 A 
ENDBRANCH  13  16
ENDBRANCH   9  12
ENDBRANCH   5   6
ENDBRANCH   2   5
BRANCH   1  21
HETATM   21  C   UNL     1      39.465 -11.805   4.067  1.00  0.00     0.278 C 
BRANCH  21  22
HETATM   22  O   UNL     1      39.669 -12.071   2.686  1.00  0.00    -0.339 OA
BRANCH  22  23
HETATM   23  C   UNL     1      40.113 -13.322   2.345  1.00  0.00     0.102 A 
HETATM   24  C   UNL     1      41.347 -13.378   1.669  1.00  0.00     0.102 A 
HETATM   25  C   UNL     1      41.863 -14.610   1.245  1.00  0.00     0.054 A 
HETATM   26  C   UNL     1      41.160 -15.792   1.507  1.00  0.00     0.012 A 
HETATM   27  C   UNL     1      39.942 -15.732   2.195  1.00  0.00     0.018 A 
HETATM   28  C   UNL     1      39.417 -14.503   2.607  1.00  0.00     0.040 A 
BRANCH  24  29
HETATM   29  O   UNL     1      41.968 -12.176   1.429  1.00  0.00    -0.353 OA
HETATM   30  C   UNL     1      42.078 -11.785   0.066  1.00  0.00     0.210 C 
ENDBRANCH  24  29
BRANCH  26  31
HETATM   31  C   UNL     1      41.659 -17.128   1.066  1.00  0.00     0.155 C 
HETATM   32  C   UNL     1      43.136 -17.320   0.837  1.00  0.00     0.096 C 
HETATM   33  O   UNL     1      40.865 -18.051   0.898  1.00  0.00    -0.293 OA
ENDBRANCH  26  31
ENDBRANCH  22  23
ENDBRANCH  21  22
ENDBRANCH   1  21
TORSDOF 9
ENDMDL
MODEL 4
REMARK VINA RESULT:      -8.0      3.401      7.402
REMARK  9 active torsions:
REMARK  status: ('A' for Active; 'I' for Inactive)
REMARK    1  A    between atoms: C_2  and  C_3 
REMARK    2  A    between atoms: C_5  and  O_6 
REMARK    3  A    between atoms: C_8  and  O_9 
REMARK    4  A    between atoms: O_9  and  C_10 
REMARK    5  A    between atoms: C_10  and  C_11 
REMARK       I    between atoms: C_11  and  N_12 
REMARK    6  A    between atoms: N_12  and  C_13 
REMARK    7  A    between atoms: C_13  and  C_14 
REMARK    8  A    between atoms: C_17  and  N_18 
REMARK       I    between atoms: N_18  and  C_19 
REMARK    9  A    between atoms: C_19  and  C_20 
ROOT
HETATM    1  C   UNL     1      40.183 -15.852   1.902  1.00  0.00     0.242 C 
HETATM    2  N   UNL     1      39.369 -14.992   2.579  1.00  0.00    -0.355 N 
HETATM    3  O   UNL     1      39.904 -17.053   1.897  1.00  0.00    -0.271 OA
HETATM    4  H   UNL     1      38.575 -15.449   3.009  1.00  0.00     0.162 HD
ENDROOT
BRANCH   2   5
HETATM    5  C   UNL     1      39.384 -13.543   2.571  1.00  0.00     0.161 C 
BRANCH   5   6
HETATM    6  C   UNL     1      40.036 -13.026   3.829  1.00  0.00    -0.040 A 
HETATM    7  C   UNL     1      41.374 -12.612   3.811  1.00  0.00     0.011 A 
HETATM    8  C   UNL     1      42.015 -12.201   4.985  1.00  0.00     0.030 A 
HETATM    9  C   UNL     1      41.331 -12.199   6.201  1.00  0.00     0.035 A 
HETATM   10  C   UNL     1      39.987 -12.591   6.218  1.00  0.00     0.030 A 
HETATM   11  C   UNL     1      39.344 -13.003   5.045  1.00  0.00     0.011 A 
BRANCH   9  12
HETATM   12  N   UNL     1      41.917 -11.853   7.432  1.00  0.00    -0.321 N 
HETATM   13  C   UNL     1      42.214 -10.592   7.918  1.00  0.00     0.279 C 
HETATM   14  O   UNL     1      41.942  -9.531   7.366  1.00  0.00    -0.265 OA
HETATM   15  H   UNL     1      42.208 -12.615   8.036  1.00  0.00     0.169 HD
BRANCH  13  16
HETATM   16  C   UNL     1      42.916 -10.637   9.190  1.00  0.00     0.142 A 
HETATM   17  O   UNL     1      44.288 -10.702   9.204  1.00  0.00    -0.317 OA
HETATM   18  C   UNL     1      44.673 -10.713  10.506  1.00  0.00     0.143 A 
HETATM   19  C   UNL     1      43.578 -10.658  11.336  1.00  0.00     0.027 A 
HETATM   20  C   UNL     1      42.445 -10.610  10.490  1.00  0.00     0.045 A 
ENDBRANCH  13  16
ENDBRANCH   9  12
ENDBRANCH   5   6
ENDBRANCH   2   5
BRANCH   1  21
HETATM   21  C   UNL     1      41.394 -15.309   1.153  1.00  0.00     0.278 C 
BRANCH  21  22
HETATM   22  O   UNL     1      42.538 -15.420   1.988  1.00  0.00    -0.339 OA
BRANCH  22  23
HETATM   23  C   UNL     1      43.018 -16.681   2.233  1.00  0.00     0.102 A 
HETATM   24  C   UNL     1      43.237 -17.007   3.586  1.00  0.00     0.102 A 
HETATM   25  C   UNL     1      43.763 -18.258   3.932  1.00  0.00     0.054 A 
HETATM   26  C   UNL     1      44.058 -19.195   2.935  1.00  0.00     0.012 A 
HETATM   27  C   UNL     1      43.821 -18.872   1.593  1.00  0.00     0.018 A 
HETATM   28  C   UNL     1      43.310 -17.619   1.243  1.00  0.00     0.040 A 
BRANCH  24  29
HETATM   29  O   UNL     1      42.945 -16.029   4.506  1.00  0.00    -0.353 OA
HETATM   30  C   UNL     1      41.744 -16.199   5.249  1.00  0.00     0.210 C 
ENDBRANCH  24  29
BRANCH  26  31
HETATM   31  C   UNL     1      44.631 -20.538   3.249  1.00  0.00     0.155 C 
HETATM   32  C   UNL     1      45.106 -20.823   4.650  1.00  0.00     0.096 C 
HETATM   33  O   UNL     1      44.708 -21.390   2.367  1.00  0.00    -0.293 OA
ENDBRANCH  26  31
ENDBRANCH  22  23
ENDBRANCH  21  22
ENDBRANCH   1  21
TORSDOF 9
ENDMDL
MODEL 5
REMARK VINA RESULT:      -7.9      2.635      6.645
REMARK  9 active torsions:
REMARK  status: ('A' for Active; 'I' for Inactive)
REMARK    1  A    between atoms: C_2  and  C_3 
REMARK    2  A    between atoms: C_5  and  O_6 
REMARK    3  A    between atoms: C_8  and  O_9 
REMARK    4  A    between atoms: O_9  and  C_10 
REMARK    5  A    between atoms: C_10  and  C_11 
REMARK       I    between atoms: C_11  and  N_12 
REMARK    6  A    between atoms: N_12  and  C_13 
REMARK    7  A    between atoms: C_13  and  C_14 
REMARK    8  A    between atoms: C_17  and  N_18 
REMARK       I    between atoms: N_18  and  C_19 
REMARK    9  A    between atoms: C_19  and  C_20 
ROOT
HETATM    1  C   UNL     1      40.333 -11.486   1.526  1.00  0.00     0.242 C 
HETATM    2  N   UNL     1      40.233 -12.330   0.459  1.00  0.00    -0.355 N 
HETATM    3  O   UNL     1      41.055 -10.491   1.431  1.00  0.00    -0.271 OA
HETATM    4  H   UNL     1      40.773 -12.026  -0.341  1.00  0.00     0.162 HD
ENDROOT
BRANCH   2   5
HETATM    5  C   UNL     1      39.318 -13.438   0.269  1.00  0.00     0.161 C 
BRANCH   5   6
HETATM    6  C   UNL     1      39.983 -14.731   0.669  1.00  0.00    -0.040 A 
HETATM    7  C   UNL     1      39.567 -15.410   1.821  1.00  0.00     0.011 A 
HETATM    8  C   UNL     1      40.223 -16.571   2.247  1.00  0.00     0.030 A 
HETATM    9  C   UNL     1      41.309 -17.072   1.531  1.00  0.00     0.035 A 
HETATM   10  C   UNL     1      41.713 -16.409   0.366  1.00  0.00     0.030 A 
HETATM   11  C   UNL     1      41.059 -15.247  -0.061  1.00  0.00     0.011 A 
BRANCH   9  12
HETATM   12  N   UNL     1      42.055 -18.200   1.920  1.00  0.00    -0.321 N 
HETATM   13  C   UNL     1      43.408 -18.282   2.198  1.00  0.00     0.279 C 
HETATM   14  O   UNL     1      44.191 -17.339   2.218  1.00  0.00    -0.265 OA
HETATM   15  H   UNL     1      41.563 -19.087   1.965  1.00  0.00     0.169 HD
BRANCH  13  16
HETATM   16  C   UNL     1      43.840 -19.644   2.466  1.00  0.00     0.142 A 
HETATM   17  O   UNL     1      44.584 -19.910   3.590  1.00  0.00    -0.317 OA
HETATM   18  C   UNL     1      44.829 -21.245   3.599  1.00  0.00     0.143 A 
HETATM   19  C   UNL     1      44.261 -21.850   2.502  1.00  0.00     0.027 A 
HETATM   20  C   UNL     1      43.625 -20.819   1.770  1.00  0.00     0.045 A 
ENDBRANCH  13  16
ENDBRANCH   9  12
ENDBRANCH   5   6
ENDBRANCH   2   5
BRANCH   1  21
HETATM   21  C   UNL     1      39.535 -11.776   2.792  1.00  0.00     0.278 C 
BRANCH  21  22
HETATM   22  O   UNL     1      40.421 -11.782   3.903  1.00  0.00    -0.339 OA
BRANCH  22  23
HETATM   23  C   UNL     1      41.018 -12.973   4.225  1.00  0.00     0.102 A 
HETATM   24  C   UNL     1      40.380 -13.734   5.225  1.00  0.00     0.102 A 
HETATM   25  C   UNL     1      40.938 -14.946   5.650  1.00  0.00     0.054 A 
HETATM   26  C   UNL     1      42.122 -15.416   5.070  1.00  0.00     0.012 A 
HETATM   27  C   UNL     1      42.741 -14.665   4.063  1.00  0.00     0.018 A 
HETATM   28  C   UNL     1      42.196 -13.446   3.647  1.00  0.00     0.040 A 
BRANCH  24  29
HETATM   29  O   UNL     1      39.235 -13.198   5.764  1.00  0.00    -0.353 OA
HETATM   30  C   UNL     1      39.399 -12.407   6.934  1.00  0.00     0.210 C 
ENDBRANCH  24  29
BRANCH  26  31
HETATM   31  C   UNL     1      42.763 -16.695   5.495  1.00  0.00     0.155 C 
HETATM   32  C   UNL     1      41.951 -17.964   5.475  1.00  0.00     0.096 C 
HETATM   33  O   UNL     1      43.939 -16.699   5.852  1.00  0.00    -0.293 OA
ENDBRANCH  26  31
ENDBRANCH  22  23
ENDBRANCH  21  22
ENDBRANCH   1  21
TORSDOF 9
ENDMDL
MODEL 6
REMARK VINA RESULT:      -7.9      6.029     10.496
REMARK  9 active torsions:
REMARK  status: ('A' for Active; 'I' for Inactive)
REMARK    1  A    between atoms: C_2  and  C_3 
REMARK    2  A    between atoms: C_5  and  O_6 
REMARK    3  A    between atoms: C_8  and  O_9 
REMARK    4  A    between atoms: O_9  and  C_10 
REMARK    5  A    between atoms: C_10  and  C_11 
REMARK       I    between atoms: C_11  and  N_12 
REMARK    6  A    between atoms: N_12  and  C_13 
REMARK    7  A    between atoms: C_13  and  C_14 
REMARK    8  A    between atoms: C_17  and  N_18 
REMARK       I    between atoms: N_18  and  C_19 
REMARK    9  A    between atoms: C_19  and  C_20 
ROOT
HETATM    1  C   UNL     1      44.686 -12.354   9.422  1.00  0.00     0.242 C 
HETATM    2  N   UNL     1      44.483 -13.276   8.438  1.00  0.00    -0.355 N 
HETATM    3  O   UNL     1      45.497 -12.609  10.315  1.00  0.00    -0.271 OA
HETATM    4  H   UNL     1      45.059 -14.101   8.539  1.00  0.00     0.162 HD
ENDROOT
BRANCH   2   5
HETATM    5  C   UNL     1      43.737 -13.127   7.204  1.00  0.00     0.161 C 
BRANCH   5   6
HETATM    6  C   UNL     1      43.638 -14.455   6.496  1.00  0.00    -0.040 A 
HETATM    7  C   UNL     1      43.940 -15.641   7.177  1.00  0.00     0.011 A 
HETATM    8  C   UNL     1      43.925 -16.873   6.513  1.00  0.00     0.030 A 
HETATM    9  C   UNL     1      43.612 -16.942   5.156  1.00  0.00     0.035 A 
HETATM   10  C   UNL     1      43.287 -15.761   4.479  1.00  0.00     0.030 A 
HETATM   11  C   UNL     1      43.301 -14.527   5.140  1.00  0.00     0.011 A 
BRANCH   9  12
HETATM   12  N   UNL     1      43.627 -18.132   4.405  1.00  0.00    -0.321 N 
HETATM   13  C   UNL     1      44.539 -19.172   4.461  1.00  0.00     0.279 C 
HETATM   14  O   UNL     1      45.474 -19.261   5.249  1.00  0.00    -0.265 OA
HETATM   15  H   UNL     1      42.911 -18.239   3.694  1.00  0.00     0.169 HD
BRANCH  13  16
HETATM   16  C   UNL     1      44.286 -20.188   3.453  1.00  0.00     0.142 A 
HETATM   17  O   UNL     1      44.682 -21.483   3.683  1.00  0.00    -0.317 OA
HETATM   18  C   UNL     1      44.309 -22.213   2.601  1.00  0.00     0.143 A 
HETATM   19  C   UNL     1      43.680 -21.416   1.673  1.00  0.00     0.027 A 
HETATM   20  C   UNL     1      43.666 -20.112   2.219  1.00  0.00     0.045 A 
ENDBRANCH  13  16
ENDBRANCH   9  12
ENDBRANCH   5   6
ENDBRANCH   2   5
BRANCH   1  21
HETATM   21  C   UNL     1      43.932 -11.031   9.382  1.00  0.00     0.278 C 
BRANCH  21  22
HETATM   22  O   UNL     1      42.631 -11.227   9.920  1.00  0.00    -0.339 OA
BRANCH  22  23
HETATM   23  C   UNL     1      42.378 -10.699  11.160  1.00  0.00     0.102 A 
HETATM   24  C   UNL     1      41.021 -10.509  11.486  1.00  0.00     0.102 A 
HETATM   25  C   UNL     1      40.666  -9.939  12.715  1.00  0.00     0.054 A 
HETATM   26  C   UNL     1      41.658  -9.571  13.631  1.00  0.00     0.012 A 
HETATM   27  C   UNL     1      43.005  -9.780  13.309  1.00  0.00     0.018 A 
HETATM   28  C   UNL     1      43.364 -10.335  12.077  1.00  0.00     0.040 A 
BRANCH  24  29
HETATM   29  O   UNL     1      40.105 -10.873  10.529  1.00  0.00    -0.353 OA
HETATM   30  C   UNL     1      39.177  -9.871  10.131  1.00  0.00     0.210 C 
ENDBRANCH  24  29
BRANCH  26  31
HETATM   31  C   UNL     1      41.333  -8.949  14.949  1.00  0.00     0.155 C 
HETATM   32  C   UNL     1      42.364  -8.976  16.047  1.00  0.00     0.096 C 
HETATM   33  O   UNL     1      40.235  -8.424  15.121  1.00  0.00    -0.293 OA
ENDBRANCH  26  31
ENDBRANCH  22  23
ENDBRANCH  21  22
ENDBRANCH   1  21
TORSDOF 9
ENDMDL
MODEL 7
REMARK VINA RESULT:      -7.8      2.720      7.135
REMARK  9 active torsions:
REMARK  status: ('A' for Active; 'I' for Inactive)
REMARK    1  A    between atoms: C_2  and  C_3 
REMARK    2  A    between atoms: C_5  and  O_6 
REMARK    3  A    between atoms: C_8  and  O_9 
REMARK    4  A    between atoms: O_9  and  C_10 
REMARK    5  A    between atoms: C_10  and  C_11 
REMARK       I    between atoms: C_11  and  N_12 
REMARK    6  A    between atoms: N_12  and  C_13 
REMARK    7  A    between atoms: C_13  and  C_14 
REMARK    8  A    between atoms: C_17  and  N_18 
REMARK       I    between atoms: N_18  and  C_19 
REMARK    9  A    between atoms: C_19  and  C_20 
ROOT
HETATM    1  C   UNL     1      39.209 -11.483   3.394  1.00  0.00     0.242 C 
HETATM    2  N   UNL     1      39.278 -11.870   4.701  1.00  0.00    -0.355 N 
HETATM    3  O   UNL     1      38.101 -11.395   2.859  1.00  0.00    -0.271 OA
HETATM    4  H   UNL     1      38.370 -12.032   5.117  1.00  0.00     0.162 HD
ENDROOT
BRANCH   2   5
HETATM    5  C   UNL     1      40.428 -11.863   5.582  1.00  0.00     0.161 C 
BRANCH   5   6
HETATM    6  C   UNL     1      41.022 -13.246   5.668  1.00  0.00    -0.040 A 
HETATM    7  C   UNL     1      42.393 -13.411   5.906  1.00  0.00     0.011 A 
HETATM    8  C   UNL     1      42.972 -14.686   5.914  1.00  0.00     0.030 A 
HETATM    9  C   UNL     1      42.192 -15.818   5.679  1.00  0.00     0.035 A 
HETATM   10  C   UNL     1      40.819 -15.658   5.464  1.00  0.00     0.030 A 
HETATM   11  C   UNL     1      40.237 -14.385   5.455  1.00  0.00     0.011 A 
BRANCH   9  12
HETATM   12  N   UNL     1      42.706 -17.127   5.617  1.00  0.00    -0.321 N 
HETATM   13  C   UNL     1      43.074 -17.956   6.661  1.00  0.00     0.279 C 
HETATM   14  O   UNL     1      42.945 -17.703   7.854  1.00  0.00    -0.265 OA
HETATM   15  H   UNL     1      42.877 -17.512   4.694  1.00  0.00     0.169 HD
BRANCH  13  16
HETATM   16  C   UNL     1      43.664 -19.202   6.201  1.00  0.00     0.142 A 
HETATM   17  O   UNL     1      44.356 -19.226   5.014  1.00  0.00    -0.317 OA
HETATM   18  C   UNL     1      44.808 -20.495   4.841  1.00  0.00     0.143 A 
HETATM   19  C   UNL     1      44.421 -21.294   5.891  1.00  0.00     0.027 A 
HETATM   20  C   UNL     1      43.683 -20.464   6.767  1.00  0.00     0.045 A 
ENDBRANCH  13  16
ENDBRANCH   9  12
ENDBRANCH   5   6
ENDBRANCH   2   5
BRANCH   1  21
HETATM   21  C   UNL     1      40.489 -11.148   2.640  1.00  0.00     0.278 C 
BRANCH  21  22
HETATM   22  O   UNL     1      40.556 -11.949   1.468  1.00  0.00    -0.339 OA
BRANCH  22  23
HETATM   23  C   UNL     1      41.118 -13.194   1.588  1.00  0.00     0.102 A 
HETATM   24  C   UNL     1      40.388 -14.259   1.025  1.00  0.00     0.102 A 
HETATM   25  C   UNL     1      40.863 -15.572   1.133  1.00  0.00     0.054 A 
HETATM   26  C   UNL     1      42.073 -15.829   1.788  1.00  0.00     0.012 A 
HETATM   27  C   UNL     1      42.804 -14.764   2.329  1.00  0.00     0.018 A 
HETATM   28  C   UNL     1      42.326 -13.454   2.236  1.00  0.00     0.040 A 
BRANCH  24  29
HETATM   29  O   UNL     1      39.199 -13.932   0.419  1.00  0.00    -0.353 OA
HETATM   30  C   UNL     1      38.015 -14.347   1.090  1.00  0.00     0.210 C 
ENDBRANCH  24  29
BRANCH  26  31
HETATM   31  C   UNL     1      42.617 -17.211   1.940  1.00  0.00     0.155 C 
HETATM   32  C   UNL     1      43.630 -17.715   0.946  1.00  0.00     0.096 C 
HETATM   33  O   UNL     1      42.234 -17.918   2.871  1.00  0.00    -0.293 OA
ENDBRANCH  26  31
ENDBRANCH  22  23
ENDBRANCH  21  22
ENDBRANCH   1  21
TORSDOF 9
ENDMDL
MODEL 8
REMARK VINA RESULT:      -7.7      3.666      7.470
REMARK  9 active torsions:
REMARK  status: ('A' for Active; 'I' for Inactive)
REMARK    1  A    between atoms: C_2  and  C_3 
REMARK    2  A    between atoms: C_5  and  O_6 
REMARK    3  A    between atoms: C_8  and  O_9 
REMARK    4  A    between atoms: O_9  and  C_10 
REMARK    5  A    between atoms: C_10  and  C_11 
REMARK       I    between atoms: C_11  and  N_12 
REMARK    6  A    between atoms: N_12  and  C_13 
REMARK    7  A    between atoms: C_13  and  C_14 
REMARK    8  A    between atoms: C_17  and  N_18 
REMARK       I    between atoms: N_18  and  C_19 
REMARK    9  A    between atoms: C_19  and  C_20 
ROOT
HETATM    1  C   UNL     1      40.142 -15.889   1.934  1.00  0.00     0.242 C 
HETATM    2  N   UNL     1      39.251 -15.004   2.468  1.00  0.00    -0.355 N 
HETATM    3  O   UNL     1      39.849 -17.086   1.910  1.00  0.00    -0.271 OA
HETATM    4  H   UNL     1      38.396 -15.443   2.785  1.00  0.00     0.162 HD
ENDROOT
BRANCH   2   5
HETATM    5  C   UNL     1      39.289 -13.556   2.435  1.00  0.00     0.161 C 
BRANCH   5   6
HETATM    6  C   UNL     1      39.577 -13.015   3.813  1.00  0.00    -0.040 A 
HETATM    7  C   UNL     1      39.522 -11.637   4.055  1.00  0.00     0.011 A 
HETATM    8  C   UNL     1      39.859 -11.114   5.309  1.00  0.00     0.030 A 
HETATM    9  C   UNL     1      40.263 -11.959   6.343  1.00  0.00     0.035 A 
HETATM   10  C   UNL     1      40.297 -13.339   6.110  1.00  0.00     0.030 A 
HETATM   11  C   UNL     1      39.960 -13.865   4.857  1.00  0.00     0.011 A 
BRANCH   9  12
HETATM   12  N   UNL     1      40.669 -11.510   7.613  1.00  0.00    -0.321 N 
HETATM   13  C   UNL     1      39.902 -10.921   8.602  1.00  0.00     0.279 C 
HETATM   14  O   UNL     1      38.688 -10.753   8.560  1.00  0.00    -0.265 OA
HETATM   15  H   UNL     1      41.658 -11.576   7.831  1.00  0.00     0.169 HD
BRANCH  13  16
HETATM   16  C   UNL     1      40.697 -10.492   9.741  1.00  0.00     0.142 A 
HETATM   17  O   UNL     1      40.074  -9.914  10.821  1.00  0.00    -0.317 OA
HETATM   18  C   UNL     1      41.040  -9.632  11.733  1.00  0.00     0.143 A 
HETATM   19  C   UNL     1      42.275 -10.015  11.266  1.00  0.00     0.027 A 
HETATM   20  C   UNL     1      42.056 -10.568   9.982  1.00  0.00     0.045 A 
ENDBRANCH  13  16
ENDBRANCH   9  12
ENDBRANCH   5   6
ENDBRANCH   2   5
BRANCH   1  21
HETATM   21  C   UNL     1      41.458 -15.377   1.361  1.00  0.00     0.278 C 
BRANCH  21  22
HETATM   22  O   UNL     1      42.487 -15.577   2.321  1.00  0.00    -0.339 OA
BRANCH  22  23
HETATM   23  C   UNL     1      42.976 -16.850   2.461  1.00  0.00     0.102 A 
HETATM   24  C   UNL     1      42.883 -17.411   3.750  1.00  0.00     0.102 A 
HETATM   25  C   UNL     1      43.392 -18.691   3.999  1.00  0.00     0.054 A 
HETATM   26  C   UNL     1      43.982 -19.426   2.964  1.00  0.00     0.012 A 
HETATM   27  C   UNL     1      44.056 -18.871   1.680  1.00  0.00     0.018 A 
HETATM   28  C   UNL     1      43.561 -17.587   1.431  1.00  0.00     0.040 A 
BRANCH  24  29
HETATM   29  O   UNL     1      42.312 -16.622   4.720  1.00  0.00    -0.353 OA
HETATM   30  C   UNL     1      41.335 -17.244   5.545  1.00  0.00     0.210 C 
ENDBRANCH  24  29
BRANCH  26  31
HETATM   31  C   UNL     1      44.551 -20.789   3.180  1.00  0.00     0.155 C 
HETATM   32  C   UNL     1      44.455 -21.807   2.074  1.00  0.00     0.096 C 
HETATM   33  O   UNL     1      45.089 -21.063   4.251  1.00  0.00    -0.293 OA
ENDBRANCH  26  31
ENDBRANCH  22  23
ENDBRANCH  21  22
ENDBRANCH   1  21
TORSDOF 9
ENDMDL
MODEL 9
REMARK VINA RESULT:      -7.7      3.186      7.476
REMARK  9 active torsions:
REMARK  status: ('A' for Active; 'I' for Inactive)
REMARK    1  A    between atoms: C_2  and  C_3 
REMARK    2  A    between atoms: C_5  and  O_6 
REMARK    3  A    between atoms: C_8  and  O_9 
REMARK    4  A    between atoms: O_9  and  C_10 
REMARK    5  A    between atoms: C_10  and  C_11 
REMARK       I    between atoms: C_11  and  N_12 
REMARK    6  A    between atoms: N_12  and  C_13 
REMARK    7  A    between atoms: C_13  and  C_14 
REMARK    8  A    between atoms: C_17  and  N_18 
REMARK       I    between atoms: N_18  and  C_19 
REMARK    9  A    between atoms: C_19  and  C_20 
ROOT
HETATM    1  C   UNL     1      41.205 -14.902   0.542  1.00  0.00     0.242 C 
HETATM    2  N   UNL     1      40.253 -14.141   1.155  1.00  0.00    -0.355 N 
HETATM    3  O   UNL     1      41.884 -14.395  -0.354  1.00  0.00    -0.271 OA
HETATM    4  H   UNL     1      40.216 -13.192   0.807  1.00  0.00     0.162 HD
ENDROOT
BRANCH   2   5
HETATM    5  C   UNL     1      39.477 -14.452   2.339  1.00  0.00     0.161 C 
BRANCH   5   6
HETATM    6  C   UNL     1      40.105 -13.810   3.551  1.00  0.00    -0.040 A 
HETATM    7  C   UNL     1      41.026 -12.766   3.399  1.00  0.00     0.011 A 
HETATM    8  C   UNL     1      41.672 -12.212   4.510  1.00  0.00     0.030 A 
HETATM    9  C   UNL     1      41.414 -12.693   5.793  1.00  0.00     0.035 A 
HETATM   10  C   UNL     1      40.476 -13.721   5.950  1.00  0.00     0.030 A 
HETATM   11  C   UNL     1      39.828 -14.278   4.841  1.00  0.00     0.011 A 
BRANCH   9  12
HETATM   12  N   UNL     1      42.060 -12.228   6.953  1.00  0.00    -0.321 N 
HETATM   13  C   UNL     1      41.884 -11.024   7.610  1.00  0.00     0.279 C 
HETATM   14  O   UNL     1      41.059 -10.165   7.319  1.00  0.00    -0.265 OA
HETATM   15  H   UNL     1      42.785 -12.820   7.347  1.00  0.00     0.169 HD
BRANCH  13  16
HETATM   16  C   UNL     1      42.811 -10.853   8.717  1.00  0.00     0.142 A 
HETATM   17  O   UNL     1      44.077 -11.378   8.627  1.00  0.00    -0.317 OA
HETATM   18  C   UNL     1      44.724 -11.058   9.777  1.00  0.00     0.143 A 
HETATM   19  C   UNL     1      43.901 -10.339  10.612  1.00  0.00     0.027 A 
HETATM   20  C   UNL     1      42.668 -10.208   9.932  1.00  0.00     0.045 A 
ENDBRANCH  13  16
ENDBRANCH   9  12
ENDBRANCH   5   6
ENDBRANCH   2   5
BRANCH   1  21
HETATM   21  C   UNL     1      41.422 -16.341   0.992  1.00  0.00     0.278 C 
BRANCH  21  22
HETATM   22  O   UNL     1      42.801 -16.530   1.281  1.00  0.00    -0.339 OA
BRANCH  22  23
HETATM   23  C   UNL     1      43.143 -16.769   2.587  1.00  0.00     0.102 A 
HETATM   24  C   UNL     1      43.700 -18.034   2.859  1.00  0.00     0.102 A 
HETATM   25  C   UNL     1      44.044 -18.384   4.171  1.00  0.00     0.054 A 
HETATM   26  C   UNL     1      43.850 -17.471   5.214  1.00  0.00     0.012 A 
HETATM   27  C   UNL     1      43.314 -16.208   4.935  1.00  0.00     0.018 A 
HETATM   28  C   UNL     1      42.955 -15.861   3.629  1.00  0.00     0.040 A 
BRANCH  24  29
HETATM   29  O   UNL     1      43.839 -18.884   1.789  1.00  0.00    -0.353 OA
HETATM   30  C   UNL     1      43.375 -20.215   1.976  1.00  0.00     0.210 C 
ENDBRANCH  24  29
BRANCH  26  31
HETATM   31  C   UNL     1      44.189 -17.799   6.631  1.00  0.00     0.155 C 
HETATM   32  C   UNL     1      43.128 -17.660   7.690  1.00  0.00     0.096 C 
HETATM   33  O   UNL     1      45.324 -18.178   6.914  1.00  0.00    -0.293 OA
ENDBRANCH  26  31
ENDBRANCH  22  23
ENDBRANCH  21  22
ENDBRANCH   1  21
TORSDOF 9
ENDMDL
MODEL 10
REMARK VINA RESULT:      -7.5      2.881      3.776
REMARK  9 active torsions:
REMARK  status: ('A' for Active; 'I' for Inactive)
REMARK    1  A    between atoms: C_2  and  C_3 
REMARK    2  A    between atoms: C_5  and  O_6 
REMARK    3  A    between atoms: C_8  and  O_9 
REMARK    4  A    between atoms: O_9  and  C_10 
REMARK    5  A    between atoms: C_10  and  C_11 
REMARK       I    between atoms: C_11  and  N_12 
REMARK    6  A    between atoms: N_12  and  C_13 
REMARK    7  A    between atoms: C_13  and  C_14 
REMARK    8  A    between atoms: C_17  and  N_18 
REMARK       I    between atoms: N_18  and  C_19 
REMARK    9  A    between atoms: C_19  and  C_20 
ROOT
HETATM    1  C   UNL     1      41.295 -15.217   4.467  1.00  0.00     0.242 C 
HETATM    2  N   UNL     1      40.196 -15.472   3.700  1.00  0.00    -0.355 N 
HETATM    3  O   UNL     1      41.135 -14.876   5.641  1.00  0.00    -0.271 OA
HETATM    4  H   UNL     1      39.325 -15.369   4.206  1.00  0.00     0.162 HD
ENDROOT
BRANCH   2   5
HETATM    5  C   UNL     1      40.137 -16.058   2.376  1.00  0.00     0.161 C 
BRANCH   5   6
HETATM    6  C   UNL     1      40.530 -15.036   1.340  1.00  0.00    -0.040 A 
HETATM    7  C   UNL     1      39.940 -13.765   1.344  1.00  0.00     0.011 A 
HETATM    8  C   UNL     1      40.240 -12.832   0.344  1.00  0.00     0.030 A 
HETATM    9  C   UNL     1      41.131 -13.152  -0.679  1.00  0.00     0.035 A 
HETATM   10  C   UNL     1      41.741 -14.413  -0.671  1.00  0.00     0.030 A 
HETATM   11  C   UNL     1      41.443 -15.348   0.326  1.00  0.00     0.011 A 
BRANCH   9  12
HETATM   12  N   UNL     1      41.444 -12.292  -1.748  1.00  0.00    -0.321 N 
HETATM   13  C   UNL     1      42.535 -11.453  -1.884  1.00  0.00     0.279 C 
HETATM   14  O   UNL     1      43.475 -11.370  -1.101  1.00  0.00    -0.265 OA
HETATM   15  H   UNL     1      40.771 -12.233  -2.505  1.00  0.00     0.169 HD
BRANCH  13  16
HETATM   16  C   UNL     1      42.461 -10.634  -3.083  1.00  0.00     0.142 A 
HETATM   17  O   UNL     1      42.422 -11.241  -4.315  1.00  0.00    -0.317 OA
HETATM   18  C   UNL     1      42.337 -10.254  -5.244  1.00  0.00     0.143 A 
HETATM   19  C   UNL     1      42.322  -9.020  -4.638  1.00  0.00     0.027 A 
HETATM   20  C   UNL     1      42.404  -9.263  -3.247  1.00  0.00     0.045 A 
ENDBRANCH  13  16
ENDBRANCH   9  12
ENDBRANCH   5   6
ENDBRANCH   2   5
BRANCH   1  21
HETATM   21  C   UNL     1      42.685 -15.381   3.866  1.00  0.00     0.278 C 
BRANCH  21  22
HETATM   22  O   UNL     1      43.432 -16.280   4.674  1.00  0.00    -0.339 OA
BRANCH  22  23
HETATM   23  C   UNL     1      43.614 -17.553   4.197  1.00  0.00     0.102 A 
HETATM   24  C   UNL     1      44.132 -18.489   5.112  1.00  0.00     0.102 A 
HETATM   25  C   UNL     1      44.389 -19.804   4.705  1.00  0.00     0.054 A 
HETATM   26  C   UNL     1      44.115 -20.198   3.390  1.00  0.00     0.012 A 
HETATM   27  C   UNL     1      43.581 -19.268   2.489  1.00  0.00     0.018 A 
HETATM   28  C   UNL     1      43.338 -17.950   2.888  1.00  0.00     0.040 A 
BRANCH  24  29
HETATM   29  O   UNL     1      44.398 -18.024   6.378  1.00  0.00    -0.353 OA
HETATM   30  C   UNL     1      43.716 -18.672   7.444  1.00  0.00     0.210 C 
ENDBRANCH  24  29
BRANCH  26  31
HETATM   31  C   UNL     1      44.380 -21.584   2.902  1.00  0.00     0.155 C 
HETATM   32  C   UNL     1      44.114 -21.917   1.458  1.00  0.00     0.096 C 
HETATM   33  O   UNL     1      44.812 -22.431   3.681  1.00  0.00    -0.293 OA
ENDBRANCH  26  31
ENDBRANCH  22  23
ENDBRANCH  21  22
ENDBRANCH   1  21
TORSDOF 9
ENDMDL
