MODEL 1
REMARK VINA RESULT:      -8.3      0.000      0.000
REMARK  10 active torsions:
REMARK  status: ('A' for Active; 'I' for Inactive)
REMARK    1  A    between atoms: N_2  and  C_4 
REMARK    2  A    between atoms: C_4  and  C_5 
REMARK    3  A    between atoms: C_5  and  C_6 
REMARK    4  A    between atoms: C_6  and  N_7 
REMARK       I    between atoms: N_7  and  C_8 
REMARK    5  A    between atoms: C_8  and  C_9 
REMARK    6  A    between atoms: C_9  and  N_10 
REMARK       I    between atoms: N_10  and  C_11 
REMARK    7  A    between atoms: C_11  and  C_12 
REMARK    8  A    between atoms: C_19  and  C_20 
REMARK    9  A    between atoms: C_21  and  C_22 
REMARK   10  A    between atoms: N_30  and  C_31 
ROOT
HETATM    1  C   UNL     1      41.468 -14.967  -1.284  1.00  0.00     0.104 C 
HETATM    2  C   UNL     1      41.287 -15.931  -0.361  1.00  0.00     0.050 C 
ENDROOT
BRANCH   1   3
HETATM    3  C   UNL     1      40.846 -15.214  -2.621  1.00  0.00     0.268 C 
HETATM    4  N   UNL     1      39.473 -15.333  -2.596  1.00  0.00    -0.356 N 
HETATM    5  H   UNL     1      39.038 -15.446  -1.683  1.00  0.00     0.162 HD
HETATM    6  O   UNL     1      41.522 -15.302  -3.637  1.00  0.00    -0.266 OA
BRANCH   4   7
HETATM    7  C   UNL     1      38.725 -15.729  -3.772  1.00  0.00     0.124 C 
BRANCH   7   8
HETATM    8  C   UNL     1      37.315 -15.140  -3.777  1.00  0.00     0.047 C 
BRANCH   8   9
HETATM    9  C   UNL     1      37.328 -13.614  -3.713  1.00  0.00     0.235 C 
BRANCH   9  10
HETATM   10  N   UNL     1      36.567 -13.027  -4.895  1.00  0.00    -0.079 N 
HETATM   11  C   UNL     1      36.098 -11.615  -4.664  1.00  0.00     0.269 C 
HETATM   12  H   UNL     1      37.207 -13.006  -5.700  1.00  0.00     0.278 HD
HETATM   13  C   UNL     1      35.415 -13.910  -5.305  1.00  0.00     0.269 C 
ENDBRANCH   9  10
ENDBRANCH   8   9
ENDBRANCH   7   8
ENDBRANCH   4   7
ENDBRANCH   1   3
BRANCH   1  14
HETATM   14  N   UNL     1      42.027 -13.725  -1.059  1.00  0.00    -0.318 N 
HETATM   15  C   UNL     1      41.302 -12.550  -1.196  1.00  0.00     0.256 C 
HETATM   16  O   UNL     1      40.093 -12.505  -1.407  1.00  0.00    -0.267 OA
HETATM   17  H   UNL     1      42.795 -13.689  -0.393  1.00  0.00     0.169 HD
BRANCH  15  18
HETATM   18  C   UNL     1      42.049 -11.293  -0.936  1.00  0.00     0.032 A 
HETATM   19  C   UNL     1      43.272 -11.032  -1.563  1.00  0.00     0.017 A 
HETATM   20  C   UNL     1      43.935  -9.829  -1.312  1.00  0.00     0.001 A 
HETATM   21  C   UNL     1      43.382  -8.890  -0.440  1.00  0.00     0.000 A 
HETATM   22  C   UNL     1      42.157  -9.146   0.178  1.00  0.00     0.001 A 
HETATM   23  C   UNL     1      41.486 -10.343  -0.075  1.00  0.00     0.017 A 
ENDBRANCH  15  18
ENDBRANCH   1  14
BRANCH   2  24
HETATM   24  C   UNL     1      41.438 -15.780   1.048  1.00  0.00     0.015 A 
HETATM   25  C   UNL     1      40.699 -14.958   1.946  1.00  0.00     0.099 A 
HETATM   26  N   UNL     1      41.155 -15.122   3.196  1.00  0.00    -0.166 NA
HETATM   27  N   UNL     1      42.191 -15.995   3.109  1.00  0.00    -0.244 N 
HETATM   28  C   UNL     1      42.352 -16.453   1.821  1.00  0.00     0.132 A 
BRANCH  25  29
HETATM   29  C   UNL     1      39.587 -14.034   1.685  1.00  0.00    -0.005 A 
HETATM   30  C   UNL     1      38.429 -14.443   1.007  1.00  0.00     0.015 A 
HETATM   31  C   UNL     1      37.385 -13.544   0.763  1.00  0.00     0.020 A 
HETATM   32  C   UNL     1      37.486 -12.230   1.210  1.00  0.00     0.011 A 
HETATM   33 BR   UNL     1      36.070 -11.021   0.886  1.00  0.00    -0.051 Br
HETATM   34  C   UNL     1      38.618 -11.806   1.900  1.00  0.00     0.020 A 
HETATM   35  C   UNL     1      39.662 -12.707   2.135  1.00  0.00     0.015 A 
ENDBRANCH  25  29
BRANCH  27  36
HETATM   36  C   UNL     1      42.939 -16.347   4.266  1.00  0.00     0.058 A 
HETATM   37  C   UNL     1      43.512 -17.627   4.353  1.00  0.00     0.031 A 
HETATM   38  C   UNL     1      44.256 -17.993   5.475  1.00  0.00     0.002 A 
HETATM   39  C   UNL     1      44.429 -17.090   6.522  1.00  0.00     0.000 A 
HETATM   40  C   UNL     1      43.857 -15.820   6.448  1.00  0.00     0.002 A 
HETATM   41  C   UNL     1      43.113 -15.445   5.324  1.00  0.00     0.031 A 
ENDBRANCH  27  36
ENDBRANCH   2  24
TORSDOF 10
ENDMDL
MODEL 2
REMARK VINA RESULT:      -7.8      3.408      7.241
REMARK  10 active torsions:
REMARK  status: ('A' for Active; 'I' for Inactive)
REMARK    1  A    between atoms: N_2  and  C_4 
REMARK    2  A    between atoms: C_4  and  C_5 
REMARK    3  A    between atoms: C_5  and  C_6 
REMARK    4  A    between atoms: C_6  and  N_7 
REMARK       I    between atoms: N_7  and  C_8 
REMARK    5  A    between atoms: C_8  and  C_9 
REMARK    6  A    between atoms: C_9  and  N_10 
REMARK       I    between atoms: N_10  and  C_11 
REMARK    7  A    between atoms: C_11  and  C_12 
REMARK    8  A    between atoms: C_19  and  C_20 
REMARK    9  A    between atoms: C_21  and  C_22 
REMARK   10  A    between atoms: N_30  and  C_31 
ROOT
HETATM    1  C   UNL     1      40.159 -12.971   4.198  1.00  0.00     0.104 C 
HETATM    2  C   UNL     1      40.054 -14.298   4.404  1.00  0.00     0.050 C 
ENDROOT
BRANCH   1   3
HETATM    3  C   UNL     1      39.808 -12.098   5.359  1.00  0.00     0.268 C 
HETATM    4  N   UNL     1      40.890 -11.671   6.098  1.00  0.00    -0.356 N 
HETATM    5  H   UNL     1      41.778 -12.137   5.922  1.00  0.00     0.162 HD
HETATM    6  O   UNL     1      38.647 -11.803   5.612  1.00  0.00    -0.266 OA
BRANCH   4   7
HETATM    7  C   UNL     1      40.721 -10.950   7.342  1.00  0.00     0.124 C 
BRANCH   7   8
HETATM    8  C   UNL     1      42.058 -10.678   8.032  1.00  0.00     0.047 C 
BRANCH   8   9
HETATM    9  C   UNL     1      41.934 -10.696   9.554  1.00  0.00     0.235 C 
BRANCH   9  10
HETATM   10  N   UNL     1      42.923 -11.687  10.155  1.00  0.00    -0.079 N 
HETATM   11  C   UNL     1      43.204 -11.443  11.614  1.00  0.00     0.269 C 
HETATM   12  H   UNL     1      42.509 -12.627  10.079  1.00  0.00     0.278 HD
HETATM   13  C   UNL     1      44.207 -11.734   9.366  1.00  0.00     0.269 C 
ENDBRANCH   9  10
ENDBRANCH   8   9
ENDBRANCH   7   8
ENDBRANCH   4   7
ENDBRANCH   1   3
BRANCH   1  14
HETATM   14  N   UNL     1      40.706 -12.366   3.084  1.00  0.00    -0.318 N 
HETATM   15  C   UNL     1      39.956 -11.572   2.228  1.00  0.00     0.256 C 
HETATM   16  O   UNL     1      38.793 -11.239   2.438  1.00  0.00    -0.267 OA
HETATM   17  H   UNL     1      41.698 -12.141   3.133  1.00  0.00     0.169 HD
BRANCH  15  18
HETATM   18  C   UNL     1      40.684 -11.006   1.065  1.00  0.00     0.032 A 
HETATM   19  C   UNL     1      42.015 -11.349   0.804  1.00  0.00     0.017 A 
HETATM   20  C   UNL     1      42.661 -10.815  -0.314  1.00  0.00     0.001 A 
HETATM   21  C   UNL     1      41.983  -9.942  -1.166  1.00  0.00     0.000 A 
HETATM   22  C   UNL     1      40.653  -9.608  -0.912  1.00  0.00     0.001 A 
HETATM   23  C   UNL     1      40.000 -10.145   0.198  1.00  0.00     0.017 A 
ENDBRANCH  15  18
ENDBRANCH   1  14
BRANCH   2  24
HETATM   24  C   UNL     1      40.671 -15.318   3.623  1.00  0.00     0.015 A 
HETATM   25  C   UNL     1      40.549 -15.578   2.228  1.00  0.00     0.099 A 
HETATM   26  N   UNL     1      41.310 -16.629   1.890  1.00  0.00    -0.166 NA
HETATM   27  N   UNL     1      41.878 -17.070   3.041  1.00  0.00    -0.244 N 
HETATM   28  C   UNL     1      41.548 -16.259   4.104  1.00  0.00     0.132 A 
BRANCH  25  29
HETATM   29  C   UNL     1      39.759 -14.883   1.203  1.00  0.00    -0.005 A 
HETATM   30  C   UNL     1      38.393 -14.611   1.378  1.00  0.00     0.015 A 
HETATM   31  C   UNL     1      37.659 -13.954   0.385  1.00  0.00     0.020 A 
HETATM   32  C   UNL     1      38.291 -13.548  -0.787  1.00  0.00     0.011 A 
HETATM   33 BR   UNL     1      37.298 -12.652  -2.122  1.00  0.00    -0.051 Br
HETATM   34  C   UNL     1      39.648 -13.790  -0.976  1.00  0.00     0.020 A 
HETATM   35  C   UNL     1      40.376 -14.455   0.017  1.00  0.00     0.015 A 
ENDBRANCH  25  29
BRANCH  27  36
HETATM   36  C   UNL     1      42.713 -18.221   3.041  1.00  0.00     0.058 A 
HETATM   37  C   UNL     1      43.492 -18.507   4.175  1.00  0.00     0.031 A 
HETATM   38  C   UNL     1      44.314 -19.635   4.200  1.00  0.00     0.002 A 
HETATM   39  C   UNL     1      44.371 -20.481   3.095  1.00  0.00     0.000 A 
HETATM   40  C   UNL     1      43.608 -20.200   1.963  1.00  0.00     0.002 A 
HETATM   41  C   UNL     1      42.778 -19.074   1.931  1.00  0.00     0.031 A 
ENDBRANCH  27  36
ENDBRANCH   2  24
TORSDOF 10
ENDMDL
MODEL 3
REMARK VINA RESULT:      -7.8      4.675      9.729
REMARK  10 active torsions:
REMARK  status: ('A' for Active; 'I' for Inactive)
REMARK    1  A    between atoms: N_2  and  C_4 
REMARK    2  A    between atoms: C_4  and  C_5 
REMARK    3  A    between atoms: C_5  and  C_6 
REMARK    4  A    between atoms: C_6  and  N_7 
REMARK       I    between atoms: N_7  and  C_8 
REMARK    5  A    between atoms: C_8  and  C_9 
REMARK    6  A    between atoms: C_9  and  N_10 
REMARK       I    between atoms: N_10  and  C_11 
REMARK    7  A    between atoms: C_11  and  C_12 
REMARK    8  A    between atoms: C_19  and  C_20 
REMARK    9  A    between atoms: C_21  and  C_22 
REMARK   10  A    between atoms: N_30  and  C_31 
ROOT
HETATM    1  C   UNL     1      43.324 -14.043   5.605  1.00  0.00     0.104 C 
HETATM    2  C   UNL     1      43.619 -15.177   4.941  1.00  0.00     0.050 C 
ENDROOT
BRANCH   1   3
HETATM    3  C   UNL     1      44.253 -13.674   6.718  1.00  0.00     0.268 C 
HETATM    4  N   UNL     1      43.671 -12.931   7.721  1.00  0.00    -0.356 N 
HETATM    5  H   UNL     1      42.754 -12.536   7.527  1.00  0.00     0.162 HD
HETATM    6  O   UNL     1      45.428 -14.016   6.712  1.00  0.00    -0.266 OA
BRANCH   4   7
HETATM    7  C   UNL     1      44.458 -12.358   8.794  1.00  0.00     0.124 C 
BRANCH   7   8
HETATM    8  C   UNL     1      43.679 -11.299   9.572  1.00  0.00     0.047 C 
BRANCH   8   9
HETATM    9  C   UNL     1      43.673 -11.577  11.074  1.00  0.00     0.235 C 
BRANCH   9  10
HETATM   10  N   UNL     1      42.247 -11.567  11.610  1.00  0.00    -0.079 N 
HETATM   11  C   UNL     1      41.265 -10.895  10.687  1.00  0.00     0.269 C 
HETATM   12  H   UNL     1      41.945 -12.545  11.713  1.00  0.00     0.278 HD
HETATM   13  C   UNL     1      42.178 -10.964  12.991  1.00  0.00     0.269 C 
ENDBRANCH   9  10
ENDBRANCH   8   9
ENDBRANCH   7   8
ENDBRANCH   4   7
ENDBRANCH   1   3
BRANCH   1  14
HETATM   14  N   UNL     1      42.355 -13.126   5.251  1.00  0.00    -0.318 N 
HETATM   15  C   UNL     1      41.006 -13.342   5.497  1.00  0.00     0.256 C 
HETATM   16  O   UNL     1      40.565 -14.286   6.145  1.00  0.00    -0.267 OA
HETATM   17  H   UNL     1      42.644 -12.151   5.222  1.00  0.00     0.169 HD
BRANCH  15  18
HETATM   18  C   UNL     1      40.085 -12.270   5.041  1.00  0.00     0.032 A 
HETATM   19  C   UNL     1      39.887 -11.111   5.801  1.00  0.00     0.017 A 
HETATM   20  C   UNL     1      39.031 -10.113   5.329  1.00  0.00     0.001 A 
HETATM   21  C   UNL     1      38.376 -10.270   4.107  1.00  0.00     0.000 A 
HETATM   22  C   UNL     1      38.581 -11.420   3.345  1.00  0.00     0.001 A 
HETATM   23  C   UNL     1      39.441 -12.417   3.806  1.00  0.00     0.017 A 
ENDBRANCH  15  18
ENDBRANCH   1  14
BRANCH   2  24
HETATM   24  C   UNL     1      43.142 -15.539   3.648  1.00  0.00     0.015 A 
HETATM   25  C   UNL     1      43.128 -16.818   3.023  1.00  0.00     0.099 A 
HETATM   26  N   UNL     1      42.579 -16.725   1.803  1.00  0.00    -0.166 NA
HETATM   27  N   UNL     1      42.283 -15.413   1.621  1.00  0.00    -0.244 N 
HETATM   28  C   UNL     1      42.567 -14.676   2.748  1.00  0.00     0.132 A 
BRANCH  25  29
HETATM   29  C   UNL     1      43.598 -18.118   3.520  1.00  0.00    -0.005 A 
HETATM   30  C   UNL     1      43.622 -18.423   4.889  1.00  0.00     0.015 A 
HETATM   31  C   UNL     1      44.081 -19.665   5.340  1.00  0.00     0.020 A 
HETATM   32  C   UNL     1      44.506 -20.621   4.421  1.00  0.00     0.011 A 
HETATM   33 BR   UNL     1      45.116 -22.301   5.033  1.00  0.00    -0.051 Br
HETATM   34  C   UNL     1      44.475 -20.347   3.057  1.00  0.00     0.020 A 
HETATM   35  C   UNL     1      44.022 -19.101   2.612  1.00  0.00     0.015 A 
ENDBRANCH  25  29
BRANCH  27  36
HETATM   36  C   UNL     1      41.731 -14.959   0.391  1.00  0.00     0.058 A 
HETATM   37  C   UNL     1      41.447 -15.891  -0.621  1.00  0.00     0.031 A 
HETATM   38  C   UNL     1      40.899 -15.470  -1.834  1.00  0.00     0.002 A 
HETATM   39  C   UNL     1      40.637 -14.119  -2.049  1.00  0.00     0.000 A 
HETATM   40  C   UNL     1      40.924 -13.187  -1.053  1.00  0.00     0.002 A 
HETATM   41  C   UNL     1      41.470 -13.601   0.167  1.00  0.00     0.031 A 
ENDBRANCH  27  36
ENDBRANCH   2  24
TORSDOF 10
ENDMDL
MODEL 4
REMARK VINA RESULT:      -7.7      4.371      7.472
REMARK  10 active torsions:
REMARK  status: ('A' for Active; 'I' for Inactive)
REMARK    1  A    between atoms: N_2  and  C_4 
REMARK    2  A    between atoms: C_4  and  C_5 
REMARK    3  A    between atoms: C_5  and  C_6 
REMARK    4  A    between atoms: C_6  and  N_7 
REMARK       I    between atoms: N_7  and  C_8 
REMARK    5  A    between atoms: C_8  and  C_9 
REMARK    6  A    between atoms: C_9  and  N_10 
REMARK       I    between atoms: N_10  and  C_11 
REMARK    7  A    between atoms: C_11  and  C_12 
REMARK    8  A    between atoms: C_19  and  C_20 
REMARK    9  A    between atoms: C_21  and  C_22 
REMARK   10  A    between atoms: N_30  and  C_31 
ROOT
HETATM    1  C   UNL     1      41.175 -14.262   4.520  1.00  0.00     0.104 C 
HETATM    2  C   UNL     1      42.386 -14.815   4.721  1.00  0.00     0.050 C 
ENDROOT
BRANCH   1   3
HETATM    3  C   UNL     1      40.319 -14.916   3.483  1.00  0.00     0.268 C 
HETATM    4  N   UNL     1      40.720 -16.187   3.134  1.00  0.00    -0.356 N 
HETATM    5  H   UNL     1      41.645 -16.478   3.445  1.00  0.00     0.162 HD
HETATM    6  O   UNL     1      39.350 -14.347   2.998  1.00  0.00    -0.266 OA
BRANCH   4   7
HETATM    7  C   UNL     1      40.102 -16.902   2.037  1.00  0.00     0.124 C 
BRANCH   7   8
HETATM    8  C   UNL     1      41.114 -17.273   0.954  1.00  0.00     0.047 C 
BRANCH   8   9
HETATM    9  C   UNL     1      41.628 -16.046   0.202  1.00  0.00     0.235 C 
BRANCH   9  10
HETATM   10  N   UNL     1      40.559 -15.522  -0.749  1.00  0.00    -0.079 N 
HETATM   11  C   UNL     1      40.937 -15.649  -2.202  1.00  0.00     0.269 C 
HETATM   12  H   UNL     1      39.710 -16.085  -0.607  1.00  0.00     0.278 HD
HETATM   13  C   UNL     1      40.175 -14.101  -0.421  1.00  0.00     0.269 C 
ENDBRANCH   9  10
ENDBRANCH   8   9
ENDBRANCH   7   8
ENDBRANCH   4   7
ENDBRANCH   1   3
BRANCH   1  14
HETATM   14  N   UNL     1      40.603 -13.265   5.285  1.00  0.00    -0.318 N 
HETATM   15  C   UNL     1      40.753 -11.919   4.981  1.00  0.00     0.256 C 
HETATM   16  O   UNL     1      41.290 -11.498   3.961  1.00  0.00    -0.267 OA
HETATM   17  H   UNL     1      39.748 -13.509   5.780  1.00  0.00     0.169 HD
BRANCH  15  18
HETATM   18  C   UNL     1      40.092 -10.967   5.909  1.00  0.00     0.032 A 
HETATM   19  C   UNL     1      40.008 -11.231   7.281  1.00  0.00     0.017 A 
HETATM   20  C   UNL     1      39.400 -10.301   8.128  1.00  0.00     0.001 A 
HETATM   21  C   UNL     1      38.878  -9.115   7.609  1.00  0.00     0.000 A 
HETATM   22  C   UNL     1      38.971  -8.848   6.243  1.00  0.00     0.001 A 
HETATM   23  C   UNL     1      39.584  -9.768   5.394  1.00  0.00     0.017 A 
ENDBRANCH  15  18
ENDBRANCH   1  14
BRANCH   2  24
HETATM   24  C   UNL     1      43.209 -14.633   5.870  1.00  0.00     0.015 A 
HETATM   25  C   UNL     1      43.924 -15.608   6.624  1.00  0.00     0.099 A 
HETATM   26  N   UNL     1      44.590 -15.013   7.625  1.00  0.00    -0.166 NA
HETATM   27  N   UNL     1      44.282 -13.693   7.552  1.00  0.00    -0.244 N 
HETATM   28  C   UNL     1      43.486 -13.426   6.461  1.00  0.00     0.132 A 
BRANCH  25  29
HETATM   29  C   UNL     1      44.015 -17.063   6.443  1.00  0.00    -0.005 A 
HETATM   30  C   UNL     1      43.753 -17.957   7.493  1.00  0.00     0.015 A 
HETATM   31  C   UNL     1      43.853 -19.339   7.299  1.00  0.00     0.020 A 
HETATM   32  C   UNL     1      44.200 -19.839   6.047  1.00  0.00     0.011 A 
HETATM   33 BR   UNL     1      44.324 -21.707   5.788  1.00  0.00    -0.051 Br
HETATM   34  C   UNL     1      44.447 -18.972   4.987  1.00  0.00     0.020 A 
HETATM   35  C   UNL     1      44.353 -17.591   5.187  1.00  0.00     0.015 A 
ENDBRANCH  25  29
BRANCH  27  36
HETATM   36  C   UNL     1      44.788 -12.778   8.516  1.00  0.00     0.058 A 
HETATM   37  C   UNL     1      46.004 -12.119   8.269  1.00  0.00     0.031 A 
HETATM   38  C   UNL     1      46.516 -11.213   9.197  1.00  0.00     0.002 A 
HETATM   39  C   UNL     1      45.826 -10.960  10.381  1.00  0.00     0.000 A 
HETATM   40  C   UNL     1      44.622 -11.616  10.638  1.00  0.00     0.002 A 
HETATM   41  C   UNL     1      44.100 -12.523   9.710  1.00  0.00     0.031 A 
ENDBRANCH  27  36
ENDBRANCH   2  24
TORSDOF 10
ENDMDL
MODEL 5
REMARK VINA RESULT:      -7.6      4.894      9.794
REMARK  10 active torsions:
REMARK  status: ('A' for Active; 'I' for Inactive)
REMARK    1  A    between atoms: N_2  and  C_4 
REMARK    2  A    between atoms: C_4  and  C_5 
REMARK    3  A    between atoms: C_5  and  C_6 
REMARK    4  A    between atoms: C_6  and  N_7 
REMARK       I    between atoms: N_7  and  C_8 
REMARK    5  A    between atoms: C_8  and  C_9 
REMARK    6  A    between atoms: C_9  and  N_10 
REMARK       I    between atoms: N_10  and  C_11 
REMARK    7  A    between atoms: C_11  and  C_12 
REMARK    8  A    between atoms: C_19  and  C_20 
REMARK    9  A    between atoms: C_21  and  C_22 
REMARK   10  A    between atoms: N_30  and  C_31 
ROOT
HETATM    1  C   UNL     1      43.196 -13.657   5.760  1.00  0.00     0.104 C 
HETATM    2  C   UNL     1      42.365 -12.601   5.851  1.00  0.00     0.050 C 
ENDROOT
BRANCH   1   3
HETATM    3  C   UNL     1      44.157 -13.833   6.891  1.00  0.00     0.268 C 
HETATM    4  N   UNL     1      44.000 -12.928   7.918  1.00  0.00    -0.356 N 
HETATM    5  H   UNL     1      43.406 -12.122   7.732  1.00  0.00     0.162 HD
HETATM    6  O   UNL     1      45.007 -14.715   6.881  1.00  0.00    -0.266 OA
BRANCH   4   7
HETATM    7  C   UNL     1      44.942 -12.855   9.016  1.00  0.00     0.124 C 
BRANCH   7   8
HETATM    8  C   UNL     1      44.722 -11.612   9.877  1.00  0.00     0.047 C 
BRANCH   8   9
HETATM    9  C   UNL     1      43.795 -11.888  11.060  1.00  0.00     0.235 C 
BRANCH   9  10
HETATM   10  N   UNL     1      42.391 -11.376  10.764  1.00  0.00    -0.079 N 
HETATM   11  C   UNL     1      42.375 -10.072  10.011  1.00  0.00     0.269 C 
HETATM   12  H   UNL     1      41.922 -12.074  10.171  1.00  0.00     0.278 HD
HETATM   13  C   UNL     1      41.563 -11.274  12.021  1.00  0.00     0.269 C 
ENDBRANCH   9  10
ENDBRANCH   8   9
ENDBRANCH   7   8
ENDBRANCH   4   7
ENDBRANCH   1   3
BRANCH   1  14
HETATM   14  N   UNL     1      43.130 -14.661   4.814  1.00  0.00    -0.318 N 
HETATM   15  C   UNL     1      42.469 -15.858   5.049  1.00  0.00     0.256 C 
HETATM   16  O   UNL     1      41.792 -16.088   6.047  1.00  0.00    -0.267 OA
HETATM   17  H   UNL     1      43.172 -14.368   3.841  1.00  0.00     0.169 HD
BRANCH  15  18
HETATM   18  C   UNL     1      42.501 -16.844   3.940  1.00  0.00     0.032 A 
HETATM   19  C   UNL     1      41.684 -16.697   2.813  1.00  0.00     0.017 A 
HETATM   20  C   UNL     1      41.759 -17.632   1.778  1.00  0.00     0.001 A 
HETATM   21  C   UNL     1      42.643 -18.708   1.866  1.00  0.00     0.000 A 
HETATM   22  C   UNL     1      43.464 -18.850   2.985  1.00  0.00     0.001 A 
HETATM   23  C   UNL     1      43.401 -17.914   4.018  1.00  0.00     0.017 A 
ENDBRANCH  15  18
ENDBRANCH   1  14
BRANCH   2  24
HETATM   24  C   UNL     1      41.146 -12.431   5.133  1.00  0.00     0.015 A 
HETATM   25  C   UNL     1      39.940 -11.799   5.550  1.00  0.00     0.099 A 
HETATM   26  N   UNL     1      39.035 -11.844   4.562  1.00  0.00    -0.166 NA
HETATM   27  N   UNL     1      39.620 -12.525   3.543  1.00  0.00    -0.244 N 
HETATM   28  C   UNL     1      40.924 -12.848   3.843  1.00  0.00     0.132 A 
BRANCH  25  29
HETATM   29  C   UNL     1      39.604 -11.153   6.826  1.00  0.00    -0.005 A 
HETATM   30  C   UNL     1      39.501  -9.759   6.946  1.00  0.00     0.015 A 
HETATM   31  C   UNL     1      39.187  -9.166   8.173  1.00  0.00     0.020 A 
HETATM   32  C   UNL     1      38.957  -9.966   9.289  1.00  0.00     0.011 A 
HETATM   33 BR   UNL     1      38.523  -9.160  10.943  1.00  0.00    -0.051 Br
HETATM   34  C   UNL     1      39.035 -11.351   9.190  1.00  0.00     0.020 A 
HETATM   35  C   UNL     1      39.357 -11.940   7.962  1.00  0.00     0.015 A 
ENDBRANCH  25  29
BRANCH  27  36
HETATM   36  C   UNL     1      38.899 -12.799   2.348  1.00  0.00     0.058 A 
HETATM   37  C   UNL     1      39.159 -13.987   1.645  1.00  0.00     0.031 A 
HETATM   38  C   UNL     1      38.460 -14.281   0.473  1.00  0.00     0.002 A 
HETATM   39  C   UNL     1      37.504 -13.391  -0.010  1.00  0.00     0.000 A 
HETATM   40  C   UNL     1      37.246 -12.205   0.677  1.00  0.00     0.002 A 
HETATM   41  C   UNL     1      37.939 -11.905   1.855  1.00  0.00     0.031 A 
ENDBRANCH  27  36
ENDBRANCH   2  24
TORSDOF 10
ENDMDL
MODEL 6
REMARK VINA RESULT:      -7.4      4.012      8.924
REMARK  10 active torsions:
REMARK  status: ('A' for Active; 'I' for Inactive)
REMARK    1  A    between atoms: N_2  and  C_4 
REMARK    2  A    between atoms: C_4  and  C_5 
REMARK    3  A    between atoms: C_5  and  C_6 
REMARK    4  A    between atoms: C_6  and  N_7 
REMARK       I    between atoms: N_7  and  C_8 
REMARK    5  A    between atoms: C_8  and  C_9 
REMARK    6  A    between atoms: C_9  and  N_10 
REMARK       I    between atoms: N_10  and  C_11 
REMARK    7  A    between atoms: C_11  and  C_12 
REMARK    8  A    between atoms: C_19  and  C_20 
REMARK    9  A    between atoms: C_21  and  C_22 
REMARK   10  A    between atoms: N_30  and  C_31 
ROOT
HETATM    1  C   UNL     1      42.276 -13.384   4.395  1.00  0.00     0.104 C 
HETATM    2  C   UNL     1      42.191 -14.661   3.975  1.00  0.00     0.050 C 
ENDROOT
BRANCH   1   3
HETATM    3  C   UNL     1      42.775 -13.185   5.790  1.00  0.00     0.268 C 
HETATM    4  N   UNL     1      43.880 -13.942   6.113  1.00  0.00    -0.356 N 
HETATM    5  H   UNL     1      44.125 -14.693   5.471  1.00  0.00     0.162 HD
HETATM    6  O   UNL     1      42.227 -12.409   6.563  1.00  0.00    -0.266 OA
BRANCH   4   7
HETATM    7  C   UNL     1      44.398 -13.990   7.465  1.00  0.00     0.124 C 
BRANCH   7   8
HETATM    8  C   UNL     1      45.661 -13.144   7.624  1.00  0.00     0.047 C 
BRANCH   8   9
HETATM    9  C   UNL     1      45.506 -12.077   8.706  1.00  0.00     0.235 C 
BRANCH   9  10
HETATM   10  N   UNL     1      44.138 -12.188   9.368  1.00  0.00    -0.079 N 
HETATM   11  C   UNL     1      43.298 -10.946   9.219  1.00  0.00     0.269 C 
HETATM   12  H   UNL     1      43.629 -12.955   8.907  1.00  0.00     0.278 HD
HETATM   13  C   UNL     1      44.255 -12.580  10.819  1.00  0.00     0.269 C 
ENDBRANCH   9  10
ENDBRANCH   8   9
ENDBRANCH   7   8
ENDBRANCH   4   7
ENDBRANCH   1   3
BRANCH   1  14
HETATM   14  N   UNL     1      42.099 -12.261   3.612  1.00  0.00    -0.318 N 
HETATM   15  C   UNL     1      40.868 -11.636   3.479  1.00  0.00     0.256 C 
HETATM   16  O   UNL     1      39.867 -11.939   4.123  1.00  0.00    -0.267 OA
HETATM   17  H   UNL     1      42.911 -11.657   3.499  1.00  0.00     0.169 HD
BRANCH  15  18
HETATM   18  C   UNL     1      40.836 -10.449   2.588  1.00  0.00     0.032 A 
HETATM   19  C   UNL     1      40.977 -10.578   1.202  1.00  0.00     0.017 A 
HETATM   20  C   UNL     1      40.918  -9.441   0.392  1.00  0.00     0.001 A 
HETATM   21  C   UNL     1      40.720  -8.182   0.962  1.00  0.00     0.000 A 
HETATM   22  C   UNL     1      40.570  -8.055   2.343  1.00  0.00     0.001 A 
HETATM   23  C   UNL     1      40.619  -9.188   3.156  1.00  0.00     0.017 A 
ENDBRANCH  15  18
ENDBRANCH   1  14
BRANCH   2  24
HETATM   24  C   UNL     1      42.117 -15.093   2.620  1.00  0.00     0.015 A 
HETATM   25  C   UNL     1      42.500 -16.343   2.055  1.00  0.00     0.099 A 
HETATM   26  N   UNL     1      42.252 -16.346   0.738  1.00  0.00    -0.166 NA
HETATM   27  N   UNL     1      41.761 -15.114   0.444  1.00  0.00    -0.244 N 
HETATM   28  C   UNL     1      41.619 -14.349   1.579  1.00  0.00     0.132 A 
BRANCH  25  29
HETATM   29  C   UNL     1      43.080 -17.532   2.696  1.00  0.00    -0.005 A 
HETATM   30  C   UNL     1      43.007 -17.736   4.082  1.00  0.00     0.015 A 
HETATM   31  C   UNL     1      43.573 -18.872   4.671  1.00  0.00     0.020 A 
HETATM   32  C   UNL     1      44.204 -19.823   3.873  1.00  0.00     0.011 A 
HETATM   33 BR   UNL     1      44.959 -21.360   4.672  1.00  0.00    -0.051 Br
HETATM   34  C   UNL     1      44.274 -19.650   2.494  1.00  0.00     0.020 A 
HETATM   35  C   UNL     1      43.713 -18.509   1.911  1.00  0.00     0.015 A 
ENDBRANCH  25  29
BRANCH  27  36
HETATM   36  C   UNL     1      41.443 -14.764  -0.898  1.00  0.00     0.058 A 
HETATM   37  C   UNL     1      41.543 -13.422  -1.301  1.00  0.00     0.031 A 
HETATM   38  C   UNL     1      41.242 -13.055  -2.613  1.00  0.00     0.002 A 
HETATM   39  C   UNL     1      40.832 -14.020  -3.530  1.00  0.00     0.000 A 
HETATM   40  C   UNL     1      40.722 -15.353  -3.136  1.00  0.00     0.002 A 
HETATM   41  C   UNL     1      41.026 -15.729  -1.824  1.00  0.00     0.031 A 
ENDBRANCH  27  36
ENDBRANCH   2  24
TORSDOF 10
ENDMDL
MODEL 7
REMARK VINA RESULT:      -7.3      4.476      8.436
REMARK  10 active torsions:
REMARK  status: ('A' for Active; 'I' for Inactive)
REMARK    1  A    between atoms: N_2  and  C_4 
REMARK    2  A    between atoms: C_4  and  C_5 
REMARK    3  A    between atoms: C_5  and  C_6 
REMARK    4  A    between atoms: C_6  and  N_7 
REMARK       I    between atoms: N_7  and  C_8 
REMARK    5  A    between atoms: C_8  and  C_9 
REMARK    6  A    between atoms: C_9  and  N_10 
REMARK       I    between atoms: N_10  and  C_11 
REMARK    7  A    between atoms: C_11  and  C_12 
REMARK    8  A    between atoms: C_19  and  C_20 
REMARK    9  A    between atoms: C_21  and  C_22 
REMARK   10  A    between atoms: N_30  and  C_31 
ROOT
HETATM    1  C   UNL     1      41.604 -15.785   6.100  1.00  0.00     0.104 C 
HETATM    2  C   UNL     1      40.471 -15.307   5.550  1.00  0.00     0.050 C 
ENDROOT
BRANCH   1   3
HETATM    3  C   UNL     1      41.912 -17.221   5.822  1.00  0.00     0.268 C 
HETATM    4  N   UNL     1      42.986 -17.719   6.528  1.00  0.00    -0.356 N 
HETATM    5  H   UNL     1      43.580 -17.041   6.999  1.00  0.00     0.162 HD
HETATM    6  O   UNL     1      41.251 -17.877   5.027  1.00  0.00    -0.266 OA
BRANCH   4   7
HETATM    7  C   UNL     1      43.517 -19.041   6.265  1.00  0.00     0.124 C 
BRANCH   7   8
HETATM    8  C   UNL     1      44.773 -18.990   5.396  1.00  0.00     0.047 C 
BRANCH   8   9
HETATM    9  C   UNL     1      44.621 -19.811   4.117  1.00  0.00     0.235 C 
BRANCH   9  10
HETATM   10  N   UNL     1      43.565 -19.191   3.211  1.00  0.00    -0.079 N 
HETATM   11  C   UNL     1      43.223 -20.043   2.018  1.00  0.00     0.269 C 
HETATM   12  H   UNL     1      42.703 -19.084   3.764  1.00  0.00     0.278 HD
HETATM   13  C   UNL     1      43.954 -17.800   2.778  1.00  0.00     0.269 C 
ENDBRANCH   9  10
ENDBRANCH   8   9
ENDBRANCH   7   8
ENDBRANCH   4   7
ENDBRANCH   1   3
BRANCH   1  14
HETATM   14  N   UNL     1      42.567 -15.038   6.748  1.00  0.00    -0.318 N 
HETATM   15  C   UNL     1      43.593 -14.399   6.066  1.00  0.00     0.256 C 
HETATM   16  O   UNL     1      43.673 -14.335   4.842  1.00  0.00    -0.267 OA
HETATM   17  H   UNL     1      42.288 -14.603   7.624  1.00  0.00     0.169 HD
BRANCH  15  18
HETATM   18  C   UNL     1      44.560 -13.648   6.905  1.00  0.00     0.032 A 
HETATM   19  C   UNL     1      44.180 -13.095   8.133  1.00  0.00     0.017 A 
HETATM   20  C   UNL     1      45.123 -12.416   8.908  1.00  0.00     0.001 A 
HETATM   21  C   UNL     1      46.438 -12.287   8.459  1.00  0.00     0.000 A 
HETATM   22  C   UNL     1      46.820 -12.847   7.240  1.00  0.00     0.001 A 
HETATM   23  C   UNL     1      45.885 -13.534   6.466  1.00  0.00     0.017 A 
ENDBRANCH  15  18
ENDBRANCH   1  14
BRANCH   2  24
HETATM   24  C   UNL     1      40.154 -13.933   5.345  1.00  0.00     0.015 A 
HETATM   25  C   UNL     1      40.065 -13.206   4.124  1.00  0.00     0.099 A 
HETATM   26  N   UNL     1      39.727 -11.933   4.373  1.00  0.00    -0.166 NA
HETATM   27  N   UNL     1      39.640 -11.822   5.724  1.00  0.00    -0.244 N 
HETATM   28  C   UNL     1      39.844 -13.037   6.338  1.00  0.00     0.132 A 
BRANCH  25  29
HETATM   29  C   UNL     1      40.277 -13.652   2.740  1.00  0.00    -0.005 A 
HETATM   30  C   UNL     1      41.539 -13.600   2.130  1.00  0.00     0.015 A 
HETATM   31  C   UNL     1      41.715 -14.024   0.808  1.00  0.00     0.020 A 
HETATM   32  C   UNL     1      40.630 -14.520   0.091  1.00  0.00     0.011 A 
HETATM   33 BR   UNL     1      40.875 -15.100  -1.691  1.00  0.00    -0.051 Br
HETATM   34  C   UNL     1      39.372 -14.597   0.681  1.00  0.00     0.020 A 
HETATM   35  C   UNL     1      39.200 -14.165   2.000  1.00  0.00     0.015 A 
ENDBRANCH  25  29
BRANCH  27  36
HETATM   36  C   UNL     1      39.348 -10.569   6.330  1.00  0.00     0.058 A 
HETATM   37  C   UNL     1      38.987  -9.480   5.520  1.00  0.00     0.031 A 
HETATM   38  C   UNL     1      38.690  -8.242   6.093  1.00  0.00     0.002 A 
HETATM   39  C   UNL     1      38.757  -8.080   7.475  1.00  0.00     0.000 A 
HETATM   40  C   UNL     1      39.122  -9.154   8.286  1.00  0.00     0.002 A 
HETATM   41  C   UNL     1      39.417 -10.398   7.719  1.00  0.00     0.031 A 
ENDBRANCH  27  36
ENDBRANCH   2  24
TORSDOF 10
ENDMDL
MODEL 8
REMARK VINA RESULT:      -7.3      4.176      8.472
REMARK  10 active torsions:
REMARK  status: ('A' for Active; 'I' for Inactive)
REMARK    1  A    between atoms: N_2  and  C_4 
REMARK    2  A    between atoms: C_4  and  C_5 
REMARK    3  A    between atoms: C_5  and  C_6 
REMARK    4  A    between atoms: C_6  and  N_7 
REMARK       I    between atoms: N_7  and  C_8 
REMARK    5  A    between atoms: C_8  and  C_9 
REMARK    6  A    between atoms: C_9  and  N_10 
REMARK       I    between atoms: N_10  and  C_11 
REMARK    7  A    between atoms: C_11  and  C_12 
REMARK    8  A    between atoms: C_19  and  C_20 
REMARK    9  A    between atoms: C_21  and  C_22 
REMARK   10  A    between atoms: N_30  and  C_31 
ROOT
HETATM    1  C   UNL     1      42.679 -16.027   4.707  1.00  0.00     0.104 C 
HETATM    2  C   UNL     1      41.837 -15.760   3.690  1.00  0.00     0.050 C 
ENDROOT
BRANCH   1   3
HETATM    3  C   UNL     1      42.825 -17.469   5.075  1.00  0.00     0.268 C 
HETATM    4  N   UNL     1      44.116 -17.852   5.369  1.00  0.00    -0.356 N 
HETATM    5  H   UNL     1      44.857 -17.201   5.119  1.00  0.00     0.162 HD
HETATM    6  O   UNL     1      41.864 -18.226   5.102  1.00  0.00    -0.266 OA
BRANCH   4   7
HETATM    7  C   UNL     1      44.462 -19.241   5.591  1.00  0.00     0.124 C 
BRANCH   7   8
HETATM    8  C   UNL     1      45.294 -19.813   4.444  1.00  0.00     0.047 C 
BRANCH   8   9
HETATM    9  C   UNL     1      44.611 -21.006   3.777  1.00  0.00     0.235 C 
BRANCH   9  10
HETATM   10  N   UNL     1      44.335 -20.706   2.309  1.00  0.00    -0.079 N 
HETATM   11  C   UNL     1      43.245 -19.687   2.101  1.00  0.00     0.269 C 
HETATM   12  H   UNL     1      45.196 -20.315   1.903  1.00  0.00     0.278 HD
HETATM   13  C   UNL     1      44.042 -21.965   1.532  1.00  0.00     0.269 C 
ENDBRANCH   9  10
ENDBRANCH   8   9
ENDBRANCH   7   8
ENDBRANCH   4   7
ENDBRANCH   1   3
BRANCH   1  14
HETATM   14  N   UNL     1      43.522 -15.122   5.320  1.00  0.00    -0.318 N 
HETATM   15  C   UNL     1      43.666 -15.059   6.698  1.00  0.00     0.256 C 
HETATM   16  O   UNL     1      43.166 -15.861   7.482  1.00  0.00    -0.267 OA
HETATM   17  H   UNL     1      44.331 -14.822   4.781  1.00  0.00     0.169 HD
BRANCH  15  18
HETATM   18  C   UNL     1      44.598 -14.020   7.205  1.00  0.00     0.032 A 
HETATM   19  C   UNL     1      44.302 -13.279   8.355  1.00  0.00     0.017 A 
HETATM   20  C   UNL     1      45.214 -12.326   8.817  1.00  0.00     0.001 A 
HETATM   21  C   UNL     1      46.413 -12.113   8.135  1.00  0.00     0.000 A 
HETATM   22  C   UNL     1      46.712 -12.859   6.995  1.00  0.00     0.001 A 
HETATM   23  C   UNL     1      45.810 -13.818   6.534  1.00  0.00     0.017 A 
ENDBRANCH  15  18
ENDBRANCH   1  14
BRANCH   2  24
HETATM   24  C   UNL     1      41.809 -14.562   2.919  1.00  0.00     0.015 A 
HETATM   25  C   UNL     1      41.408 -13.253   3.310  1.00  0.00     0.099 A 
HETATM   26  N   UNL     1      41.548 -12.405   2.280  1.00  0.00    -0.166 NA
HETATM   27  N   UNL     1      41.987 -13.151   1.234  1.00  0.00    -0.244 N 
HETATM   28  C   UNL     1      42.205 -14.457   1.608  1.00  0.00     0.132 A 
BRANCH  25  29
HETATM   29  C   UNL     1      40.908 -12.763   4.602  1.00  0.00    -0.005 A 
HETATM   30  C   UNL     1      39.621 -13.075   5.064  1.00  0.00     0.015 A 
HETATM   31  C   UNL     1      39.163 -12.592   6.294  1.00  0.00     0.020 A 
HETATM   32  C   UNL     1      39.998 -11.804   7.082  1.00  0.00     0.011 A 
HETATM   33 BR   UNL     1      39.380 -11.161   8.747  1.00  0.00    -0.051 Br
HETATM   34  C   UNL     1      41.285 -11.496   6.652  1.00  0.00     0.020 A 
HETATM   35  C   UNL     1      41.735 -11.975   5.417  1.00  0.00     0.015 A 
ENDBRANCH  25  29
BRANCH  27  36
HETATM   36  C   UNL     1      42.187 -12.558  -0.043  1.00  0.00     0.058 A 
HETATM   37  C   UNL     1      42.065 -13.350  -1.197  1.00  0.00     0.031 A 
HETATM   38  C   UNL     1      42.252 -12.789  -2.461  1.00  0.00     0.002 A 
HETATM   39  C   UNL     1      42.567 -11.438  -2.585  1.00  0.00     0.000 A 
HETATM   40  C   UNL     1      42.698 -10.646  -1.444  1.00  0.00     0.002 A 
HETATM   41  C   UNL     1      42.509 -11.200  -0.174  1.00  0.00     0.031 A 
ENDBRANCH  27  36
ENDBRANCH   2  24
TORSDOF 10
ENDMDL
MODEL 9
REMARK VINA RESULT:      -6.8      3.131      5.395
REMARK  10 active torsions:
REMARK  status: ('A' for Active; 'I' for Inactive)
REMARK    1  A    between atoms: N_2  and  C_4 
REMARK    2  A    between atoms: C_4  and  C_5 
REMARK    3  A    between atoms: C_5  and  C_6 
REMARK    4  A    between atoms: C_6  and  N_7 
REMARK       I    between atoms: N_7  and  C_8 
REMARK    5  A    between atoms: C_8  and  C_9 
REMARK    6  A    between atoms: C_9  and  N_10 
REMARK       I    between atoms: N_10  and  C_11 
REMARK    7  A    between atoms: C_11  and  C_12 
REMARK    8  A    between atoms: C_19  and  C_20 
REMARK    9  A    between atoms: C_21  and  C_22 
REMARK   10  A    between atoms: N_30  and  C_31 
ROOT
HETATM    1  C   UNL     1      40.820 -11.704   3.005  1.00  0.00     0.104 C 
HETATM    2  C   UNL     1      40.555 -12.947   3.450  1.00  0.00     0.050 C 
ENDROOT
BRANCH   1   3
HETATM    3  C   UNL     1      40.624 -10.599   3.993  1.00  0.00     0.268 C 
HETATM    4  N   UNL     1      39.406  -9.960   3.898  1.00  0.00    -0.356 N 
HETATM    5  H   UNL     1      38.853 -10.148   3.064  1.00  0.00     0.162 HD
HETATM    6  O   UNL     1      41.489 -10.304   4.807  1.00  0.00    -0.266 OA
BRANCH   4   7
HETATM    7  C   UNL     1      39.112  -8.770   4.669  1.00  0.00     0.124 C 
BRANCH   7   8
HETATM    8  C   UNL     1      37.669  -8.307   4.478  1.00  0.00     0.047 C 
BRANCH   8   9
HETATM    9  C   UNL     1      36.882  -9.240   3.559  1.00  0.00     0.235 C 
BRANCH   9  10
HETATM   10  N   UNL     1      35.388  -9.117   3.832  1.00  0.00    -0.079 N 
HETATM   11  C   UNL     1      34.589  -8.717   2.620  1.00  0.00     0.269 C 
HETATM   12  H   UNL     1      35.047 -10.041   4.129  1.00  0.00     0.278 HD
HETATM   13  C   UNL     1      35.111  -8.183   4.984  1.00  0.00     0.269 C 
ENDBRANCH   9  10
ENDBRANCH   8   9
ENDBRANCH   7   8
ENDBRANCH   4   7
ENDBRANCH   1   3
BRANCH   1  14
HETATM   14  N   UNL     1      41.399 -11.384   1.794  1.00  0.00    -0.318 N 
HETATM   15  C   UNL     1      40.711 -10.703   0.800  1.00  0.00     0.256 C 
HETATM   16  O   UNL     1      39.590 -10.223   0.942  1.00  0.00    -0.267 OA
HETATM   17  H   UNL     1      42.408 -11.251   1.796  1.00  0.00     0.169 HD
BRANCH  15  18
HETATM   18  C   UNL     1      41.465 -10.448  -0.453  1.00  0.00     0.032 A 
HETATM   19  C   UNL     1      40.804 -10.189  -1.659  1.00  0.00     0.017 A 
HETATM   20  C   UNL     1      41.547  -9.929  -2.813  1.00  0.00     0.001 A 
HETATM   21  C   UNL     1      42.942  -9.929  -2.765  1.00  0.00     0.000 A 
HETATM   22  C   UNL     1      43.601 -10.177  -1.561  1.00  0.00     0.001 A 
HETATM   23  C   UNL     1      42.864 -10.428  -0.403  1.00  0.00     0.017 A 
ENDBRANCH  15  18
ENDBRANCH   1  14
BRANCH   2  24
HETATM   24  C   UNL     1      41.009 -14.162   2.860  1.00  0.00     0.015 A 
HETATM   25  C   UNL     1      40.727 -14.692   1.569  1.00  0.00     0.099 A 
HETATM   26  N   UNL     1      41.367 -15.859   1.404  1.00  0.00    -0.166 NA
HETATM   27  N   UNL     1      42.013 -16.104   2.573  1.00  0.00    -0.244 N 
HETATM   28  C   UNL     1      41.855 -15.063   3.458  1.00  0.00     0.132 A 
BRANCH  25  29
HETATM   29  C   UNL     1      39.894 -14.152   0.486  1.00  0.00    -0.005 A 
HETATM   30  C   UNL     1      38.566 -13.754   0.702  1.00  0.00     0.015 A 
HETATM   31  C   UNL     1      37.789 -13.249  -0.346  1.00  0.00     0.020 A 
HETATM   32  C   UNL     1      38.341 -13.122  -1.618  1.00  0.00     0.011 A 
HETATM   33 BR   UNL     1      37.291 -12.431  -3.028  1.00  0.00    -0.051 Br
HETATM   34  C   UNL     1      39.662 -13.494  -1.852  1.00  0.00     0.020 A 
HETATM   35  C   UNL     1      40.432 -14.005  -0.802  1.00  0.00     0.015 A 
ENDBRANCH  25  29
BRANCH  27  36
HETATM   36  C   UNL     1      42.752 -17.306   2.753  1.00  0.00     0.058 A 
HETATM   37  C   UNL     1      43.430 -17.523   3.964  1.00  0.00     0.031 A 
HETATM   38  C   UNL     1      44.157 -18.697   4.165  1.00  0.00     0.002 A 
HETATM   39  C   UNL     1      44.218 -19.660   3.161  1.00  0.00     0.000 A 
HETATM   40  C   UNL     1      43.554 -19.450   1.953  1.00  0.00     0.002 A 
HETATM   41  C   UNL     1      42.821 -18.277   1.745  1.00  0.00     0.031 A 
ENDBRANCH  27  36
ENDBRANCH   2  24
TORSDOF 10
ENDMDL
MODEL 10
REMARK VINA RESULT:      -6.7      3.216      6.084
REMARK  10 active torsions:
REMARK  status: ('A' for Active; 'I' for Inactive)
REMARK    1  A    between atoms: N_2  and  C_4 
REMARK    2  A    between atoms: C_4  and  C_5 
REMARK    3  A    between atoms: C_5  and  C_6 
REMARK    4  A    between atoms: C_6  and  N_7 
REMARK       I    between atoms: N_7  and  C_8 
REMARK    5  A    between atoms: C_8  and  C_9 
REMARK    6  A    between atoms: C_9  and  N_10 
REMARK       I    between atoms: N_10  and  C_11 
REMARK    7  A    between atoms: C_11  and  C_12 
REMARK    8  A    between atoms: C_19  and  C_20 
REMARK    9  A    between atoms: C_21  and  C_22 
REMARK   10  A    between atoms: N_30  and  C_31 
ROOT
HETATM    1  C   UNL     1      41.204 -15.390   1.996  1.00  0.00     0.104 C 
HETATM    2  C   UNL     1      40.408 -14.306   2.074  1.00  0.00     0.050 C 
ENDROOT
BRANCH   1   3
HETATM    3  C   UNL     1      41.160 -16.144   0.706  1.00  0.00     0.268 C 
HETATM    4  N   UNL     1      41.185 -15.348  -0.419  1.00  0.00    -0.356 N 
HETATM    5  H   UNL     1      41.028 -14.352  -0.281  1.00  0.00     0.162 HD
HETATM    6  O   UNL     1      41.103 -17.366   0.678  1.00  0.00    -0.266 OA
BRANCH   4   7
HETATM    7  C   UNL     1      40.992 -15.902  -1.744  1.00  0.00     0.124 C 
BRANCH   7   8
HETATM    8  C   UNL     1      40.986 -14.818  -2.821  1.00  0.00     0.047 C 
BRANCH   8   9
HETATM    9  C   UNL     1      39.705 -14.841  -3.653  1.00  0.00     0.235 C 
BRANCH   9  10
HETATM   10  N   UNL     1      39.146 -13.432  -3.806  1.00  0.00    -0.079 N 
HETATM   11  C   UNL     1      40.096 -12.358  -3.344  1.00  0.00     0.269 C 
HETATM   12  H   UNL     1      38.971 -13.271  -4.807  1.00  0.00     0.278 HD
HETATM   13  C   UNL     1      37.809 -13.289  -3.123  1.00  0.00     0.269 C 
ENDBRANCH   9  10
ENDBRANCH   8   9
ENDBRANCH   7   8
ENDBRANCH   4   7
ENDBRANCH   1   3
BRANCH   1  14
HETATM   14  N   UNL     1      42.157 -15.763   2.922  1.00  0.00    -0.318 N 
HETATM   15  C   UNL     1      41.891 -16.679   3.930  1.00  0.00     0.256 C 
HETATM   16  O   UNL     1      40.850 -17.322   4.021  1.00  0.00    -0.267 OA
HETATM   17  H   UNL     1      43.126 -15.717   2.618  1.00  0.00     0.169 HD
BRANCH  15  18
HETATM   18  C   UNL     1      43.014 -16.964   4.859  1.00  0.00     0.032 A 
HETATM   19  C   UNL     1      43.354 -16.072   5.882  1.00  0.00     0.017 A 
HETATM   20  C   UNL     1      44.401 -16.384   6.752  1.00  0.00     0.001 A 
HETATM   21  C   UNL     1      45.106 -17.580   6.603  1.00  0.00     0.000 A 
HETATM   22  C   UNL     1      44.760 -18.474   5.589  1.00  0.00     0.001 A 
HETATM   23  C   UNL     1      43.710 -18.171   4.722  1.00  0.00     0.017 A 
ENDBRANCH  15  18
ENDBRANCH   1  14
BRANCH   2  24
HETATM   24  C   UNL     1      40.539 -13.236   3.005  1.00  0.00     0.015 A 
HETATM   25  C   UNL     1      40.951 -11.892   2.775  1.00  0.00     0.099 A 
HETATM   26  N   UNL     1      40.925 -11.202   3.924  1.00  0.00    -0.166 NA
HETATM   27  N   UNL     1      40.549 -12.083   4.885  1.00  0.00    -0.244 N 
HETATM   28  C   UNL     1      40.257 -13.316   4.347  1.00  0.00     0.132 A 
BRANCH  25  29
HETATM   29  C   UNL     1      41.359 -11.229   1.529  1.00  0.00    -0.005 A 
HETATM   30  C   UNL     1      41.002  -9.903   1.243  1.00  0.00     0.015 A 
HETATM   31  C   UNL     1      41.395  -9.295   0.047  1.00  0.00     0.020 A 
HETATM   32  C   UNL     1      42.166 -10.006  -0.869  1.00  0.00     0.011 A 
HETATM   33 BR   UNL     1      42.704  -9.177  -2.480  1.00  0.00    -0.051 Br
HETATM   34  C   UNL     1      42.548 -11.316  -0.600  1.00  0.00     0.020 A 
HETATM   35  C   UNL     1      42.145 -11.923   0.594  1.00  0.00     0.015 A 
ENDBRANCH  25  29
BRANCH  27  36
HETATM   36  C   UNL     1      40.474 -11.680   6.247  1.00  0.00     0.058 A 
HETATM   37  C   UNL     1      41.510 -10.903   6.793  1.00  0.00     0.031 A 
HETATM   38  C   UNL     1      41.455 -10.491   8.125  1.00  0.00     0.002 A 
HETATM   39  C   UNL     1      40.374 -10.855   8.924  1.00  0.00     0.000 A 
HETATM   40  C   UNL     1      39.345 -11.632   8.393  1.00  0.00     0.002 A 
HETATM   41  C   UNL     1      39.391 -12.046   7.057  1.00  0.00     0.031 A 
ENDBRANCH  27  36
ENDBRANCH   2  24
TORSDOF 10
ENDMDL
