MODEL 1
REMARK VINA RESULT:      -9.1      0.000      0.000
REMARK  3 active torsions:
REMARK  status: ('A' for Active; 'I' for Inactive)
REMARK    1  A    between atoms: C_5  and  C_6 
REMARK       I    between atoms: C_6  and  N_7 
REMARK    2  A    between atoms: N_7  and  C_8 
REMARK    3  A    between atoms: C_15  and  C_16 
REMARK       I    between atoms: C_16  and  N_17 
ROOT
HETATM    1  C   UNL     1      41.194 -16.293   1.721  1.00  0.00     0.036 A 
HETATM    2  C   UNL     1      41.437 -15.973   0.378  1.00  0.00     0.046 A 
HETATM    3  C   UNL     1      40.600 -15.044  -0.280  1.00  0.00     0.030 A 
HETATM    4  C   UNL     1      39.550 -14.470   0.424  1.00  0.00     0.063 A 
HETATM    5  N   UNL     1      38.933 -13.631  -0.463  1.00  0.00    -0.277 N 
HETATM    6  H   UNL     1      38.124 -13.045  -0.292  1.00  0.00     0.189 HD
HETATM    7  N   UNL     1      39.488 -13.607  -1.684  1.00  0.00    -0.168 NA
HETATM    8  C   UNL     1      40.521 -14.476  -1.589  1.00  0.00     0.156 A 
HETATM    9  C   UNL     1      39.276 -14.764   1.759  1.00  0.00     0.034 A 
HETATM   10  C   UNL     1      40.121 -15.687   2.391  1.00  0.00     0.032 A 
ENDROOT
BRANCH   1  11
HETATM   11  N   UNL     1      41.969 -17.204   2.473  1.00  0.00    -0.322 N 
HETATM   12  C   UNL     1      43.312 -17.129   2.799  1.00  0.00     0.276 C 
HETATM   13  O   UNL     1      44.039 -16.203   2.456  1.00  0.00    -0.266 OA
HETATM   14  H   UNL     1      41.467 -18.015   2.812  1.00  0.00     0.169 HD
BRANCH  12  15
HETATM   15  C   UNL     1      43.815 -18.232   3.599  1.00  0.00     0.150 A 
HETATM   16  N   UNL     1      43.944 -19.544   3.149  1.00  0.00    -0.299 N 
HETATM   17  C   UNL     1      44.453 -20.290   4.212  1.00  0.00     0.136 A 
HETATM   18  C   UNL     1      43.668 -20.124   1.904  1.00  0.00     0.099 A 
HETATM   19  C   UNL     1      44.682 -21.680   4.002  1.00  0.00     0.051 A 
HETATM   20  N   UNL     1      44.647 -19.550   5.275  1.00  0.00    -0.216 NA
HETATM   21  C   UNL     1      44.411 -22.232   2.806  1.00  0.00     0.005 A 
HETATM   22  C   UNL     1      43.888 -21.436   1.711  1.00  0.00     0.018 A 
HETATM   23  C   UNL     1      44.254 -18.290   4.915  1.00  0.00     0.161 A 
HETATM   24 CL   UNL     1      44.342 -17.023   6.059  1.00  0.00    -0.060 Cl
ENDBRANCH  12  15
ENDBRANCH   1  11
BRANCH   8  25
HETATM   25  C   UNL     1      41.400 -14.741  -2.736  1.00  0.00     0.270 C 
HETATM   26  N   UNL     1      42.464 -13.886  -2.831  1.00  0.00    -0.365 N 
HETATM   27  H   UNL     1      42.567 -13.159  -2.134  1.00  0.00     0.159 HD
HETATM   28  H   UNL     1      43.122 -13.989  -3.588  1.00  0.00     0.159 HD
HETATM   29  O   UNL     1      41.230 -15.637  -3.555  1.00  0.00    -0.266 OA
ENDBRANCH   8  25
TORSDOF 3
ENDMDL
MODEL 2
REMARK VINA RESULT:      -8.6      1.430      1.583
REMARK  3 active torsions:
REMARK  status: ('A' for Active; 'I' for Inactive)
REMARK    1  A    between atoms: C_5  and  C_6 
REMARK       I    between atoms: C_6  and  N_7 
REMARK    2  A    between atoms: N_7  and  C_8 
REMARK    3  A    between atoms: C_15  and  C_16 
REMARK       I    between atoms: C_16  and  N_17 
ROOT
HETATM    1  C   UNL     1      42.499 -15.351   1.627  1.00  0.00     0.036 A 
HETATM    2  C   UNL     1      41.964 -15.490   0.339  1.00  0.00     0.046 A 
HETATM    3  C   UNL     1      41.411 -14.365  -0.312  1.00  0.00     0.030 A 
HETATM    4  C   UNL     1      41.409 -13.142   0.346  1.00  0.00     0.063 A 
HETATM    5  N   UNL     1      40.819 -12.264  -0.520  1.00  0.00    -0.277 N 
HETATM    6  H   UNL     1      40.649 -11.276  -0.371  1.00  0.00     0.189 HD
HETATM    7  N   UNL     1      40.436 -12.805  -1.687  1.00  0.00    -0.168 NA
HETATM    8  C   UNL     1      40.794 -14.105  -1.574  1.00  0.00     0.156 A 
HETATM    9  C   UNL     1      41.930 -12.965   1.627  1.00  0.00     0.034 A 
HETATM   10  C   UNL     1      42.474 -14.096   2.252  1.00  0.00     0.032 A 
ENDROOT
BRANCH   1  11
HETATM   11  N   UNL     1      43.077 -16.408   2.366  1.00  0.00    -0.322 N 
HETATM   12  C   UNL     1      42.497 -17.190   3.349  1.00  0.00     0.276 C 
HETATM   13  O   UNL     1      41.337 -17.057   3.721  1.00  0.00    -0.266 OA
HETATM   14  H   UNL     1      44.043 -16.610   2.140  1.00  0.00     0.169 HD
BRANCH  12  15
HETATM   15  C   UNL     1      43.364 -18.209   3.917  1.00  0.00     0.150 A 
HETATM   16  N   UNL     1      43.621 -19.447   3.333  1.00  0.00    -0.299 N 
HETATM   17  C   UNL     1      44.489 -20.127   4.187  1.00  0.00     0.136 A 
HETATM   18  C   UNL     1      43.177 -20.011   2.130  1.00  0.00     0.099 A 
HETATM   19  C   UNL     1      44.912 -21.433   3.808  1.00  0.00     0.051 A 
HETATM   20  N   UNL     1      44.785 -19.414   5.246  1.00  0.00    -0.216 NA
HETATM   21  C   UNL     1      44.478 -21.971   2.654  1.00  0.00     0.005 A 
HETATM   22  C   UNL     1      43.581 -21.243   1.776  1.00  0.00     0.018 A 
HETATM   23  C   UNL     1      44.097 -18.241   5.096  1.00  0.00     0.161 A 
HETATM   24 CL   UNL     1      44.214 -17.037   6.303  1.00  0.00    -0.060 Cl
ENDBRANCH  12  15
ENDBRANCH   1  11
BRANCH   8  25
HETATM   25  C   UNL     1      40.543 -15.060  -2.663  1.00  0.00     0.270 C 
HETATM   26  N   UNL     1      39.235 -15.445  -2.776  1.00  0.00    -0.365 N 
HETATM   27  H   UNL     1      38.558 -15.062  -2.127  1.00  0.00     0.159 HD
HETATM   28  H   UNL     1      38.967 -16.099  -3.494  1.00  0.00     0.159 HD
HETATM   29  O   UNL     1      41.401 -15.495  -3.424  1.00  0.00    -0.266 OA
ENDBRANCH   8  25
TORSDOF 3
ENDMDL
MODEL 3
REMARK VINA RESULT:      -8.5      2.376      8.058
REMARK  3 active torsions:
REMARK  status: ('A' for Active; 'I' for Inactive)
REMARK    1  A    between atoms: C_5  and  C_6 
REMARK       I    between atoms: C_6  and  N_7 
REMARK    2  A    between atoms: N_7  and  C_8 
REMARK    3  A    between atoms: C_15  and  C_16 
REMARK       I    between atoms: C_16  and  N_17 
ROOT
HETATM    1  C   UNL     1      43.341 -17.418   2.626  1.00  0.00     0.036 A 
HETATM    2  C   UNL     1      43.216 -17.451   4.022  1.00  0.00     0.046 A 
HETATM    3  C   UNL     1      43.634 -18.598   4.733  1.00  0.00     0.030 A 
HETATM    4  C   UNL     1      44.159 -19.672   4.025  1.00  0.00     0.063 A 
HETATM    5  N   UNL     1      44.465 -20.614   4.968  1.00  0.00    -0.277 N 
HETATM    6  H   UNL     1      44.869 -21.530   4.812  1.00  0.00     0.189 HD
HETATM    7  N   UNL     1      44.186 -20.249   6.230  1.00  0.00    -0.168 NA
HETATM    8  C   UNL     1      43.671 -19.005   6.102  1.00  0.00     0.156 A 
HETATM    9  C   UNL     1      44.297 -19.676   2.638  1.00  0.00     0.034 A 
HETATM   10  C   UNL     1      43.878 -18.526   1.956  1.00  0.00     0.032 A 
ENDROOT
BRANCH   1  11
HETATM   11  N   UNL     1      42.958 -16.322   1.820  1.00  0.00    -0.322 N 
HETATM   12  C   UNL     1      41.716 -16.044   1.278  1.00  0.00     0.276 C 
HETATM   13  O   UNL     1      40.732 -16.757   1.442  1.00  0.00    -0.266 OA
HETATM   14  H   UNL     1      43.697 -15.661   1.617  1.00  0.00     0.169 HD
BRANCH  12  15
HETATM   15  C   UNL     1      41.645 -14.823   0.493  1.00  0.00     0.150 A 
HETATM   16  N   UNL     1      41.346 -14.769  -0.866  1.00  0.00    -0.299 N 
HETATM   17  C   UNL     1      41.382 -13.425  -1.238  1.00  0.00     0.136 A 
HETATM   18  C   UNL     1      41.036 -15.782  -1.784  1.00  0.00     0.099 A 
HETATM   19  C   UNL     1      41.104 -13.101  -2.596  1.00  0.00     0.051 A 
HETATM   20  N   UNL     1      41.680 -12.650  -0.225  1.00  0.00    -0.216 NA
HETATM   21  C   UNL     1      40.812 -14.078  -3.474  1.00  0.00     0.005 A 
HETATM   22  C   UNL     1      40.772 -15.469  -3.064  1.00  0.00     0.018 A 
HETATM   23  C   UNL     1      41.849 -13.493   0.839  1.00  0.00     0.161 A 
HETATM   24 CL   UNL     1      42.270 -12.849   2.365  1.00  0.00    -0.060 Cl
ENDBRANCH  12  15
ENDBRANCH   1  11
BRANCH   8  25
HETATM   25  C   UNL     1      43.231 -18.240   7.277  1.00  0.00     0.270 C 
HETATM   26  N   UNL     1      43.904 -18.549   8.427  1.00  0.00    -0.365 N 
HETATM   27  H   UNL     1      44.628 -19.256   8.391  1.00  0.00     0.159 HD
HETATM   28  H   UNL     1      43.670 -18.076   9.285  1.00  0.00     0.159 HD
HETATM   29  O   UNL     1      42.344 -17.392   7.268  1.00  0.00    -0.266 OA
ENDBRANCH   8  25
TORSDOF 3
ENDMDL
MODEL 4
REMARK VINA RESULT:      -8.4      2.553      3.653
REMARK  3 active torsions:
REMARK  status: ('A' for Active; 'I' for Inactive)
REMARK    1  A    between atoms: C_5  and  C_6 
REMARK       I    between atoms: C_6  and  N_7 
REMARK    2  A    between atoms: N_7  and  C_8 
REMARK    3  A    between atoms: C_15  and  C_16 
REMARK       I    between atoms: C_16  and  N_17 
ROOT
HETATM    1  C   UNL     1      41.028 -15.822   3.243  1.00  0.00     0.036 A 
HETATM    2  C   UNL     1      41.039 -14.528   3.782  1.00  0.00     0.046 A 
HETATM    3  C   UNL     1      40.132 -13.561   3.293  1.00  0.00     0.030 A 
HETATM    4  C   UNL     1      39.249 -13.919   2.282  1.00  0.00     0.063 A 
HETATM    5  N   UNL     1      38.515 -12.795   2.025  1.00  0.00    -0.277 N 
HETATM    6  H   UNL     1      37.773 -12.689   1.343  1.00  0.00     0.189 HD
HETATM    7  N   UNL     1      38.840 -11.733   2.780  1.00  0.00    -0.168 NA
HETATM    8  C   UNL     1      39.840 -12.190   3.569  1.00  0.00     0.156 A 
HETATM    9  C   UNL     1      39.210 -15.195   1.721  1.00  0.00     0.034 A 
HETATM   10  C   UNL     1      40.117 -16.137   2.224  1.00  0.00     0.032 A 
ENDROOT
BRANCH   1  11
HETATM   11  N   UNL     1      41.887 -16.863   3.660  1.00  0.00    -0.322 N 
HETATM   12  C   UNL     1      43.201 -17.096   3.291  1.00  0.00     0.276 C 
HETATM   13  O   UNL     1      43.820 -16.381   2.512  1.00  0.00    -0.266 OA
HETATM   14  H   UNL     1      41.479 -17.521   4.312  1.00  0.00     0.169 HD
BRANCH  12  15
HETATM   15  C   UNL     1      43.817 -18.258   3.907  1.00  0.00     0.150 A 
HETATM   16  N   UNL     1      43.909 -19.515   3.315  1.00  0.00    -0.299 N 
HETATM   17  C   UNL     1      44.560 -20.348   4.226  1.00  0.00     0.136 A 
HETATM   18  C   UNL     1      43.489 -19.978   2.061  1.00  0.00     0.099 A 
HETATM   19  C   UNL     1      44.782 -21.703   3.851  1.00  0.00     0.051 A 
HETATM   20  N   UNL     1      44.874 -19.711   5.327  1.00  0.00    -0.216 NA
HETATM   21  C   UNL     1      44.372 -22.143   2.647  1.00  0.00     0.005 A 
HETATM   22  C   UNL     1      43.704 -21.258   1.711  1.00  0.00     0.018 A 
HETATM   23  C   UNL     1      44.419 -18.433   5.147  1.00  0.00     0.161 A 
HETATM   24 CL   UNL     1      44.629 -17.282   6.393  1.00  0.00    -0.060 Cl
ENDBRANCH  12  15
ENDBRANCH   1  11
BRANCH   8  25
HETATM   25  C   UNL     1      40.486 -11.318   4.559  1.00  0.00     0.270 C 
HETATM   26  N   UNL     1      41.454 -10.504   4.037  1.00  0.00    -0.365 N 
HETATM   27  H   UNL     1      41.652 -10.559   3.045  1.00  0.00     0.159 HD
HETATM   28  H   UNL     1      41.954  -9.872   4.641  1.00  0.00     0.159 HD
HETATM   29  O   UNL     1      40.210 -11.291   5.753  1.00  0.00    -0.266 OA
ENDBRANCH   8  25
TORSDOF 3
ENDMDL
MODEL 5
REMARK VINA RESULT:      -8.4      1.698      2.827
REMARK  3 active torsions:
REMARK  status: ('A' for Active; 'I' for Inactive)
REMARK    1  A    between atoms: C_5  and  C_6 
REMARK       I    between atoms: C_6  and  N_7 
REMARK    2  A    between atoms: N_7  and  C_8 
REMARK    3  A    between atoms: C_15  and  C_16 
REMARK       I    between atoms: C_16  and  N_17 
ROOT
HETATM    1  C   UNL     1      40.969 -15.792   1.671  1.00  0.00     0.036 A 
HETATM    2  C   UNL     1      41.318 -15.540   0.337  1.00  0.00     0.046 A 
HETATM    3  C   UNL     1      40.527 -14.661  -0.436  1.00  0.00     0.030 A 
HETATM    4  C   UNL     1      39.415 -14.068   0.148  1.00  0.00     0.063 A 
HETATM    5  N   UNL     1      38.863 -13.288  -0.831  1.00  0.00    -0.277 N 
HETATM    6  H   UNL     1      38.036 -12.707  -0.759  1.00  0.00     0.189 HD
HETATM    7  N   UNL     1      39.517 -13.319  -2.002  1.00  0.00    -0.168 NA
HETATM    8  C   UNL     1      40.548 -14.164  -1.776  1.00  0.00     0.156 A 
HETATM    9  C   UNL     1      39.036 -14.296   1.470  1.00  0.00     0.034 A 
HETATM   10  C   UNL     1      39.837 -15.169   2.218  1.00  0.00     0.032 A 
ENDROOT
BRANCH   1  11
HETATM   11  N   UNL     1      41.690 -16.649   2.533  1.00  0.00    -0.322 N 
HETATM   12  C   UNL     1      42.908 -16.423   3.151  1.00  0.00     0.276 C 
HETATM   13  O   UNL     1      43.549 -15.386   3.022  1.00  0.00    -0.266 OA
HETATM   14  H   UNL     1      41.252 -17.543   2.713  1.00  0.00     0.169 HD
BRANCH  12  15
HETATM   15  C   UNL     1      43.384 -17.510   3.989  1.00  0.00     0.150 A 
HETATM   16  N   UNL     1      43.446 -17.471   5.380  1.00  0.00    -0.299 N 
HETATM   17  C   UNL     1      43.961 -18.698   5.799  1.00  0.00     0.136 A 
HETATM   18  C   UNL     1      43.082 -16.472   6.292  1.00  0.00     0.099 A 
HETATM   19  C   UNL     1      44.120 -18.912   7.197  1.00  0.00     0.051 A 
HETATM   20  N   UNL     1      44.222 -19.486   4.785  1.00  0.00    -0.216 NA
HETATM   21  C   UNL     1      43.773 -17.948   8.069  1.00  0.00     0.005 A 
HETATM   22  C   UNL     1      43.232 -16.681   7.611  1.00  0.00     0.018 A 
HETATM   23  C   UNL     1      43.880 -18.768   3.672  1.00  0.00     0.161 A 
HETATM   24 CL   UNL     1      44.096 -19.462   2.125  1.00  0.00    -0.060 Cl
ENDBRANCH  12  15
ENDBRANCH   1  11
BRANCH   8  25
HETATM   25  C   UNL     1      41.522 -14.475  -2.831  1.00  0.00     0.270 C 
HETATM   26  N   UNL     1      42.596 -13.628  -2.866  1.00  0.00    -0.365 N 
HETATM   27  H   UNL     1      42.643 -12.875  -2.190  1.00  0.00     0.159 HD
HETATM   28  H   UNL     1      43.316 -13.762  -3.558  1.00  0.00     0.159 HD
HETATM   29  O   UNL     1      41.418 -15.402  -3.628  1.00  0.00    -0.266 OA
ENDBRANCH   8  25
TORSDOF 3
ENDMDL
MODEL 6
REMARK VINA RESULT:      -8.3      4.067      5.571
REMARK  3 active torsions:
REMARK  status: ('A' for Active; 'I' for Inactive)
REMARK    1  A    between atoms: C_5  and  C_6 
REMARK       I    between atoms: C_6  and  N_7 
REMARK    2  A    between atoms: N_7  and  C_8 
REMARK    3  A    between atoms: C_15  and  C_16 
REMARK       I    between atoms: C_16  and  N_17 
ROOT
HETATM    1  C   UNL     1      41.249 -14.791   4.778  1.00  0.00     0.036 A 
HETATM    2  C   UNL     1      40.863 -13.966   5.844  1.00  0.00     0.046 A 
HETATM    3  C   UNL     1      40.016 -12.861   5.600  1.00  0.00     0.030 A 
HETATM    4  C   UNL     1      39.586 -12.619   4.302  1.00  0.00     0.063 A 
HETATM    5  N   UNL     1      38.797 -11.505   4.382  1.00  0.00    -0.277 N 
HETATM    6  H   UNL     1      38.313 -11.040   3.623  1.00  0.00     0.189 HD
HETATM    7  N   UNL     1      38.673 -10.999   5.619  1.00  0.00    -0.168 NA
HETATM    8  C   UNL     1      39.422 -11.826   6.385  1.00  0.00     0.156 A 
HETATM    9  C   UNL     1      39.950 -13.416   3.217  1.00  0.00     0.034 A 
HETATM   10  C   UNL     1      40.789 -14.506   3.484  1.00  0.00     0.032 A 
ENDROOT
BRANCH   1  11
HETATM   11  N   UNL     1      42.088 -15.920   4.911  1.00  0.00    -0.322 N 
HETATM   12  C   UNL     1      41.759 -17.191   5.350  1.00  0.00     0.276 C 
HETATM   13  O   UNL     1      40.629 -17.514   5.696  1.00  0.00    -0.266 OA
HETATM   14  H   UNL     1      43.054 -15.768   4.651  1.00  0.00     0.169 HD
BRANCH  12  15
HETATM   15  C   UNL     1      42.858 -18.141   5.365  1.00  0.00     0.150 A 
HETATM   16  N   UNL     1      43.287 -18.876   4.263  1.00  0.00    -0.299 N 
HETATM   17  C   UNL     1      44.352 -19.669   4.692  1.00  0.00     0.136 A 
HETATM   18  C   UNL     1      42.838 -18.896   2.936  1.00  0.00     0.099 A 
HETATM   19  C   UNL     1      44.977 -20.521   3.737  1.00  0.00     0.051 A 
HETATM   20  N   UNL     1      44.613 -19.485   5.963  1.00  0.00    -0.216 NA
HETATM   21  C   UNL     1      44.538 -20.540   2.465  1.00  0.00     0.005 A 
HETATM   22  C   UNL     1      43.433 -19.701   2.039  1.00  0.00     0.018 A 
HETATM   23  C   UNL     1      43.701 -18.557   6.388  1.00  0.00     0.161 A 
HETATM   24 CL   UNL     1      43.708 -18.060   8.023  1.00  0.00    -0.060 Cl
ENDBRANCH  12  15
ENDBRANCH   1  11
BRANCH   8  25
HETATM   25  C   UNL     1      39.551 -11.612   7.833  1.00  0.00     0.270 C 
HETATM   26  N   UNL     1      38.899 -12.544   8.594  1.00  0.00    -0.365 N 
HETATM   27  H   UNL     1      38.392 -13.285   8.125  1.00  0.00     0.159 HD
HETATM   28  H   UNL     1      38.929 -12.478   9.598  1.00  0.00     0.159 HD
HETATM   29  O   UNL     1      40.178 -10.695   8.352  1.00  0.00    -0.266 OA
ENDBRANCH   8  25
TORSDOF 3
ENDMDL
MODEL 7
REMARK VINA RESULT:      -8.2      1.140      1.209
REMARK  3 active torsions:
REMARK  status: ('A' for Active; 'I' for Inactive)
REMARK    1  A    between atoms: C_5  and  C_6 
REMARK       I    between atoms: C_6  and  N_7 
REMARK    2  A    between atoms: N_7  and  C_8 
REMARK    3  A    between atoms: C_15  and  C_16 
REMARK       I    between atoms: C_16  and  N_17 
ROOT
HETATM    1  C   UNL     1      40.974 -15.587   1.833  1.00  0.00     0.036 A 
HETATM    2  C   UNL     1      41.011 -15.665   0.434  1.00  0.00     0.046 A 
HETATM    3  C   UNL     1      40.215 -14.787  -0.335  1.00  0.00     0.030 A 
HETATM    4  C   UNL     1      39.408 -13.865   0.320  1.00  0.00     0.063 A 
HETATM    5  N   UNL     1      38.770 -13.172  -0.671  1.00  0.00    -0.277 N 
HETATM    6  H   UNL     1      38.101 -12.419  -0.560  1.00  0.00     0.189 HD
HETATM    7  N   UNL     1      39.089 -13.560  -1.916  1.00  0.00    -0.168 NA
HETATM    8  C   UNL     1      39.981 -14.559  -1.726  1.00  0.00     0.156 A 
HETATM    9  C   UNL     1      39.344 -13.760   1.709  1.00  0.00     0.034 A 
HETATM   10  C   UNL     1      40.144 -14.640   2.449  1.00  0.00     0.032 A 
ENDROOT
BRANCH   1  11
HETATM   11  N   UNL     1      41.731 -16.413   2.694  1.00  0.00    -0.322 N 
HETATM   12  C   UNL     1      43.024 -16.225   3.152  1.00  0.00     0.276 C 
HETATM   13  O   UNL     1      43.713 -15.258   2.851  1.00  0.00    -0.266 OA
HETATM   14  H   UNL     1      41.258 -17.249   3.011  1.00  0.00     0.169 HD
BRANCH  12  15
HETATM   15  C   UNL     1      43.520 -17.262   4.041  1.00  0.00     0.150 A 
HETATM   16  N   UNL     1      43.850 -18.556   3.644  1.00  0.00    -0.299 N 
HETATM   17  C   UNL     1      44.276 -19.235   4.785  1.00  0.00     0.136 A 
HETATM   18  C   UNL     1      43.820 -19.171   2.386  1.00  0.00     0.099 A 
HETATM   19  C   UNL     1      44.678 -20.594   4.643  1.00  0.00     0.051 A 
HETATM   20  N   UNL     1      44.236 -18.470   5.849  1.00  0.00    -0.216 NA
HETATM   21  C   UNL     1      44.643 -21.181   3.432  1.00  0.00     0.005 A 
HETATM   22  C   UNL     1      44.202 -20.454   2.257  1.00  0.00     0.018 A 
HETATM   23  C   UNL     1      43.768 -17.263   5.407  1.00  0.00     0.161 A 
HETATM   24 CL   UNL     1      43.555 -15.985   6.522  1.00  0.00    -0.060 Cl
ENDBRANCH  12  15
ENDBRANCH   1  11
BRANCH   8  25
HETATM   25  C   UNL     1      40.586 -15.265  -2.864  1.00  0.00     0.270 C 
HETATM   26  N   UNL     1      39.959 -16.437  -3.190  1.00  0.00    -0.365 N 
HETATM   27  H   UNL     1      39.156 -16.725  -2.644  1.00  0.00     0.159 HD
HETATM   28  H   UNL     1      40.304 -16.992  -3.956  1.00  0.00     0.159 HD
HETATM   29  O   UNL     1      41.563 -14.872  -3.492  1.00  0.00    -0.266 OA
ENDBRANCH   8  25
TORSDOF 3
ENDMDL
MODEL 8
REMARK VINA RESULT:      -8.0      2.393      7.624
REMARK  3 active torsions:
REMARK  status: ('A' for Active; 'I' for Inactive)
REMARK    1  A    between atoms: C_5  and  C_6 
REMARK       I    between atoms: C_6  and  N_7 
REMARK    2  A    between atoms: N_7  and  C_8 
REMARK    3  A    between atoms: C_15  and  C_16 
REMARK       I    between atoms: C_16  and  N_17 
ROOT
HETATM    1  C   UNL     1      43.384 -17.150   2.757  1.00  0.00     0.036 A 
HETATM    2  C   UNL     1      43.576 -18.482   2.362  1.00  0.00     0.046 A 
HETATM    3  C   UNL     1      43.989 -19.439   3.315  1.00  0.00     0.030 A 
HETATM    4  C   UNL     1      44.199 -19.034   4.627  1.00  0.00     0.063 A 
HETATM    5  N   UNL     1      44.585 -20.161   5.298  1.00  0.00    -0.277 N 
HETATM    6  H   UNL     1      44.822 -20.239   6.280  1.00  0.00     0.189 HD
HETATM    7  N   UNL     1      44.646 -21.267   4.540  1.00  0.00    -0.168 NA
HETATM    8  C   UNL     1      44.281 -20.838   3.310  1.00  0.00     0.156 A 
HETATM    9  C   UNL     1      44.020 -17.719   5.056  1.00  0.00     0.034 A 
HETATM   10  C   UNL     1      43.608 -16.788   4.093  1.00  0.00     0.032 A 
ENDROOT
BRANCH   1  11
HETATM   11  N   UNL     1      42.970 -16.116   1.887  1.00  0.00    -0.322 N 
HETATM   12  C   UNL     1      41.702 -15.860   1.395  1.00  0.00     0.276 C 
HETATM   13  O   UNL     1      40.720 -16.540   1.672  1.00  0.00    -0.266 OA
HETATM   14  H   UNL     1      43.705 -15.487   1.590  1.00  0.00     0.169 HD
BRANCH  12  15
HETATM   15  C   UNL     1      41.602 -14.705   0.520  1.00  0.00     0.150 A 
HETATM   16  N   UNL     1      41.315 -14.763  -0.842  1.00  0.00    -0.299 N 
HETATM   17  C   UNL     1      41.315 -13.451  -1.315  1.00  0.00     0.136 A 
HETATM   18  C   UNL     1      41.045 -15.851  -1.682  1.00  0.00     0.099 A 
HETATM   19  C   UNL     1      41.040 -13.239  -2.695  1.00  0.00     0.051 A 
HETATM   20  N   UNL     1      41.580 -12.592  -0.361  1.00  0.00    -0.216 NA
HETATM   21  C   UNL     1      40.786 -14.288  -3.499  1.00  0.00     0.005 A 
HETATM   22  C   UNL     1      40.783 -15.645  -2.985  1.00  0.00     0.018 A 
HETATM   23  C   UNL     1      41.764 -13.347   0.765  1.00  0.00     0.161 A 
HETATM   24 CL   UNL     1      42.151 -12.576   2.240  1.00  0.00    -0.060 Cl
ENDBRANCH  12  15
ENDBRANCH   1  11
BRANCH   8  25
HETATM   25  C   UNL     1      44.218 -21.763   2.170  1.00  0.00     0.270 C 
HETATM   26  N   UNL     1      43.004 -21.790   1.540  1.00  0.00    -0.365 N 
HETATM   27  H   UNL     1      42.262 -21.196   1.891  1.00  0.00     0.159 HD
HETATM   28  H   UNL     1      42.865 -22.396   0.748  1.00  0.00     0.159 HD
HETATM   29  O   UNL     1      45.148 -22.464   1.786  1.00  0.00    -0.266 OA
ENDBRANCH   8  25
TORSDOF 3
ENDMDL
MODEL 9
REMARK VINA RESULT:      -7.9      3.109      8.333
REMARK  3 active torsions:
REMARK  status: ('A' for Active; 'I' for Inactive)
REMARK    1  A    between atoms: C_5  and  C_6 
REMARK       I    between atoms: C_6  and  N_7 
REMARK    2  A    between atoms: N_7  and  C_8 
REMARK    3  A    between atoms: C_15  and  C_16 
REMARK       I    between atoms: C_16  and  N_17 
ROOT
HETATM    1  C   UNL     1      42.606 -17.249   2.798  1.00  0.00     0.036 A 
HETATM    2  C   UNL     1      42.957 -17.778   4.048  1.00  0.00     0.046 A 
HETATM    3  C   UNL     1      43.738 -18.954   4.114  1.00  0.00     0.030 A 
HETATM    4  C   UNL     1      44.139 -19.560   2.931  1.00  0.00     0.063 A 
HETATM    5  N   UNL     1      44.865 -20.655   3.311  1.00  0.00    -0.277 N 
HETATM    6  H   UNL     1      45.315 -21.333   2.708  1.00  0.00     0.189 HD
HETATM    7  N   UNL     1      44.975 -20.816   4.639  1.00  0.00    -0.168 NA
HETATM    8  C   UNL     1      44.282 -19.772   5.151  1.00  0.00     0.156 A 
HETATM    9  C   UNL     1      43.808 -19.065   1.670  1.00  0.00     0.034 A 
HETATM   10  C   UNL     1      43.035 -17.897   1.631  1.00  0.00     0.032 A 
ENDROOT
BRANCH   1  11
HETATM   11  N   UNL     1      41.833 -16.080   2.619  1.00  0.00    -0.322 N 
HETATM   12  C   UNL     1      40.491 -15.975   2.299  1.00  0.00     0.276 C 
HETATM   13  O   UNL     1      39.761 -16.944   2.123  1.00  0.00    -0.266 OA
HETATM   14  H   UNL     1      42.337 -15.211   2.741  1.00  0.00     0.169 HD
BRANCH  12  15
HETATM   15  C   UNL     1      39.986 -14.617   2.192  1.00  0.00     0.150 A 
HETATM   16  N   UNL     1      39.692 -13.793   3.275  1.00  0.00    -0.299 N 
HETATM   17  C   UNL     1      39.233 -12.583   2.753  1.00  0.00     0.136 A 
HETATM   18  C   UNL     1      39.805 -14.006   4.655  1.00  0.00     0.099 A 
HETATM   19  C   UNL     1      38.865 -11.557   3.669  1.00  0.00     0.051 A 
HETATM   20  N   UNL     1      39.218 -12.595   1.443  1.00  0.00    -0.216 NA
HETATM   21  C   UNL     1      38.971 -11.770   4.994  1.00  0.00     0.005 A 
HETATM   22  C   UNL     1      39.458 -13.033   5.516  1.00  0.00     0.018 A 
HETATM   23  C   UNL     1      39.671 -13.836   1.088  1.00  0.00     0.161 A 
HETATM   24 CL   UNL     1      39.781 -14.249  -0.567  1.00  0.00    -0.060 Cl
ENDBRANCH  12  15
ENDBRANCH   1  11
BRANCH   8  25
HETATM   25  C   UNL     1      44.158 -19.581   6.602  1.00  0.00     0.270 C 
HETATM   26  N   UNL     1      44.727 -18.425   7.063  1.00  0.00    -0.365 N 
HETATM   27  H   UNL     1      45.178 -17.807   6.399  1.00  0.00     0.159 HD
HETATM   28  H   UNL     1      44.693 -18.208   8.046  1.00  0.00     0.159 HD
HETATM   29  O   UNL     1      43.601 -20.362   7.366  1.00  0.00    -0.266 OA
ENDBRANCH   8  25
TORSDOF 3
ENDMDL
MODEL 10
REMARK VINA RESULT:      -7.8      3.347      8.170
REMARK  3 active torsions:
REMARK  status: ('A' for Active; 'I' for Inactive)
REMARK    1  A    between atoms: C_5  and  C_6 
REMARK       I    between atoms: C_6  and  N_7 
REMARK    2  A    between atoms: N_7  and  C_8 
REMARK    3  A    between atoms: C_15  and  C_16 
REMARK       I    between atoms: C_16  and  N_17 
ROOT
HETATM    1  C   UNL     1      42.659 -17.104   3.064  1.00  0.00     0.036 A 
HETATM    2  C   UNL     1      42.967 -17.768   4.260  1.00  0.00     0.046 A 
HETATM    3  C   UNL     1      43.693 -18.979   4.218  1.00  0.00     0.030 A 
HETATM    4  C   UNL     1      44.084 -19.485   2.985  1.00  0.00     0.063 A 
HETATM    5  N   UNL     1      44.755 -20.644   3.264  1.00  0.00    -0.277 N 
HETATM    6  H   UNL     1      45.183 -21.280   2.601  1.00  0.00     0.189 HD
HETATM    7  N   UNL     1      44.837 -20.939   4.571  1.00  0.00    -0.168 NA
HETATM    8  C   UNL     1      44.184 -19.920   5.175  1.00  0.00     0.156 A 
HETATM    9  C   UNL     1      43.796 -18.854   1.776  1.00  0.00     0.034 A 
HETATM   10  C   UNL     1      43.076 -17.654   1.843  1.00  0.00     0.032 A 
ENDROOT
BRANCH   1  11
HETATM   11  N   UNL     1      41.942 -15.889   2.993  1.00  0.00    -0.322 N 
HETATM   12  C   UNL     1      41.001 -15.390   3.876  1.00  0.00     0.276 C 
HETATM   13  O   UNL     1      40.654 -15.977   4.895  1.00  0.00    -0.266 OA
HETATM   14  H   UNL     1      42.149 -15.316   2.185  1.00  0.00     0.169 HD
BRANCH  12  15
HETATM   15  C   UNL     1      40.445 -14.096   3.521  1.00  0.00     0.150 A 
HETATM   16  N   UNL     1      39.445 -13.895   2.572  1.00  0.00    -0.299 N 
HETATM   17  C   UNL     1      39.200 -12.523   2.524  1.00  0.00     0.136 A 
HETATM   18  C   UNL     1      38.736 -14.801   1.773  1.00  0.00     0.099 A 
HETATM   19  C   UNL     1      38.204 -12.054   1.621  1.00  0.00     0.051 A 
HETATM   20  N   UNL     1      39.964 -11.864   3.360  1.00  0.00    -0.216 NA
HETATM   21  C   UNL     1      37.529 -12.928   0.852  1.00  0.00     0.005 A 
HETATM   22  C   UNL     1      37.795 -14.353   0.924  1.00  0.00     0.018 A 
HETATM   23  C   UNL     1      40.735 -12.814   3.971  1.00  0.00     0.161 A 
HETATM   24 CL   UNL     1      41.891 -12.338   5.136  1.00  0.00    -0.060 Cl
ENDBRANCH  12  15
ENDBRANCH   1  11
BRANCH   8  25
HETATM   25  C   UNL     1      44.047 -19.866   6.637  1.00  0.00     0.270 C 
HETATM   26  N   UNL     1      43.593 -21.028   7.198  1.00  0.00    -0.365 N 
HETATM   27  H   UNL     1      43.390 -21.813   6.590  1.00  0.00     0.159 HD
HETATM   28  H   UNL     1      43.465 -21.086   8.195  1.00  0.00     0.159 HD
HETATM   29  O   UNL     1      44.306 -18.886   7.329  1.00  0.00    -0.266 OA
ENDBRANCH   8  25
TORSDOF 3
ENDMDL
