MODEL 1
REMARK VINA RESULT:      -8.4      0.000      0.000
REMARK  5 active torsions:
REMARK  status: ('A' for Active; 'I' for Inactive)
REMARK    1  A    between atoms: C_8  and  C_9 
REMARK    2  A    between atoms: N_10  and  N_11 
REMARK       I    between atoms: N_11  and  C_12 
REMARK    3  A    between atoms: C_12  and  C_13 
REMARK    4  A    between atoms: C_13  and  O_14 
REMARK    5  A    between atoms: O_14  and  C_15 
ROOT
HETATM    1  N   UNL     1      43.685 -14.431   7.012  1.00  0.00    -0.246 N 
HETATM    2  C   UNL     1      44.786 -13.623   7.269  1.00  0.00     0.261 C 
HETATM    3  O   UNL     1      45.728 -13.413   6.507  1.00  0.00    -0.269 OA
HETATM    4  H   UNL     1      42.879 -14.312   7.625  1.00  0.00     0.192 HD
ENDROOT
BRANCH   1   5
HETATM    5  N   UNL     1      43.408 -15.089   5.837  1.00  0.00    -0.184 NA
HETATM    6  C   UNL     1      43.479 -16.382   5.813  1.00  0.00     0.152 C 
BRANCH   6   7
HETATM    7  C   UNL     1      43.216 -17.093   4.578  1.00  0.00     0.011 A 
HETATM    8  C   UNL     1      43.747 -18.368   4.194  1.00  0.00     0.004 A 
HETATM    9  C   UNL     1      44.633 -19.287   4.797  1.00  0.00     0.014 A 
HETATM   10  C   UNL     1      43.223 -18.680   2.938  1.00  0.00     0.043 A 
HETATM   11  C   UNL     1      44.956 -20.474   4.132  1.00  0.00     0.001 A 
HETATM   12  C   UNL     1      44.411 -20.757   2.883  1.00  0.00     0.002 A 
HETATM   13  C   UNL     1      43.533 -19.865   2.260  1.00  0.00     0.030 A 
HETATM   14  N   UNL     1      42.408 -17.634   2.571  1.00  0.00    -0.364 N 
HETATM   15  H   UNL     1      41.894 -17.586   1.701  1.00  0.00     0.165 HD
HETATM   16  C   UNL     1      42.400 -16.673   3.545  1.00  0.00     0.102 A 
ENDBRANCH   6   7
ENDBRANCH   1   5
BRANCH   2  17
HETATM   17  C   UNL     1      44.786 -13.044   8.683  1.00  0.00     0.280 C 
BRANCH  17  18
HETATM   18  O   UNL     1      44.802 -11.621   8.677  1.00  0.00    -0.340 OA
BRANCH  18  19
HETATM   19  C   UNL     1      44.107 -10.996   9.682  1.00  0.00     0.091 A 
HETATM   20  C   UNL     1      42.812 -10.544   9.378  1.00  0.00     0.068 A 
HETATM   21 CL   UNL     1      42.142 -10.751   7.797  1.00  0.00    -0.081 Cl
HETATM   22  C   UNL     1      42.030  -9.902  10.343  1.00  0.00     0.046 A 
HETATM   23  C   UNL     1      42.540  -9.719  11.624  1.00  0.00     0.012 A 
HETATM   24 BR   UNL     1      41.492  -8.854  12.938  1.00  0.00    -0.051 Br
HETATM   25  C   UNL     1      43.817 -10.173  11.948  1.00  0.00     0.022 A 
HETATM   26  C   UNL     1      44.598 -10.811  10.980  1.00  0.00     0.040 A 
ENDBRANCH  18  19
ENDBRANCH  17  18
ENDBRANCH   2  17
TORSDOF 5
ENDMDL
MODEL 2
REMARK VINA RESULT:      -8.3      6.283      8.034
REMARK  5 active torsions:
REMARK  status: ('A' for Active; 'I' for Inactive)
REMARK    1  A    between atoms: C_8  and  C_9 
REMARK    2  A    between atoms: N_10  and  N_11 
REMARK       I    between atoms: N_11  and  C_12 
REMARK    3  A    between atoms: C_12  and  C_13 
REMARK    4  A    between atoms: C_13  and  O_14 
REMARK    5  A    between atoms: O_14  and  C_15 
ROOT
HETATM    1  N   UNL     1      42.244 -15.008   3.509  1.00  0.00    -0.246 N 
HETATM    2  C   UNL     1      42.929 -13.838   3.206  1.00  0.00     0.261 C 
HETATM    3  O   UNL     1      44.107 -13.597   3.464  1.00  0.00    -0.269 OA
HETATM    4  H   UNL     1      41.363 -15.161   3.020  1.00  0.00     0.192 HD
ENDROOT
BRANCH   1   5
HETATM    5  N   UNL     1      42.770 -16.139   4.089  1.00  0.00    -0.184 NA
HETATM    6  C   UNL     1      43.373 -17.004   3.338  1.00  0.00     0.152 C 
BRANCH   6   7
HETATM    7  C   UNL     1      43.911 -18.215   3.926  1.00  0.00     0.011 A 
HETATM    8  C   UNL     1      43.974 -19.509   3.315  1.00  0.00     0.004 A 
HETATM    9  C   UNL     1      43.566 -20.029   2.067  1.00  0.00     0.014 A 
HETATM   10  C   UNL     1      44.578 -20.376   4.228  1.00  0.00     0.043 A 
HETATM   11  C   UNL     1      43.779 -21.381   1.779  1.00  0.00     0.001 A 
HETATM   12  C   UNL     1      44.390 -22.217   2.710  1.00  0.00     0.002 A 
HETATM   13  C   UNL     1      44.801 -21.730   3.954  1.00  0.00     0.030 A 
HETATM   14  N   UNL     1      44.867 -19.638   5.353  1.00  0.00    -0.364 N 
HETATM   15  H   UNL     1      45.310 -20.009   6.183  1.00  0.00     0.165 HD
HETATM   16  C   UNL     1      44.467 -18.340   5.185  1.00  0.00     0.102 A 
ENDBRANCH   6   7
ENDBRANCH   1   5
BRANCH   2  17
HETATM   17  C   UNL     1      42.041 -12.774   2.564  1.00  0.00     0.280 C 
BRANCH  17  18
HETATM   18  O   UNL     1      42.492 -12.415   1.263  1.00  0.00    -0.340 OA
BRANCH  18  19
HETATM   19  C   UNL     1      41.858 -13.020   0.206  1.00  0.00     0.091 A 
HETATM   20  C   UNL     1      42.158 -12.537  -1.079  1.00  0.00     0.068 A 
HETATM   21 CL   UNL     1      43.260 -11.224  -1.306  1.00  0.00    -0.081 Cl
HETATM   22  C   UNL     1      41.563 -13.098  -2.213  1.00  0.00     0.046 A 
HETATM   23  C   UNL     1      40.671 -14.155  -2.066  1.00  0.00     0.012 A 
HETATM   24 BR   UNL     1      39.863 -14.923  -3.592  1.00  0.00    -0.051 Br
HETATM   25  C   UNL     1      40.373 -14.656  -0.800  1.00  0.00     0.022 A 
HETATM   26  C   UNL     1      40.966 -14.091   0.333  1.00  0.00     0.040 A 
ENDBRANCH  18  19
ENDBRANCH  17  18
ENDBRANCH   2  17
TORSDOF 5
ENDMDL
MODEL 3
REMARK VINA RESULT:      -8.2      1.864      2.581
REMARK  5 active torsions:
REMARK  status: ('A' for Active; 'I' for Inactive)
REMARK    1  A    between atoms: C_8  and  C_9 
REMARK    2  A    between atoms: N_10  and  N_11 
REMARK       I    between atoms: N_11  and  C_12 
REMARK    3  A    between atoms: C_12  and  C_13 
REMARK    4  A    between atoms: C_13  and  O_14 
REMARK    5  A    between atoms: O_14  and  C_15 
ROOT
HETATM    1  N   UNL     1      44.143 -13.309   7.866  1.00  0.00    -0.246 N 
HETATM    2  C   UNL     1      44.712 -12.552   8.882  1.00  0.00     0.261 C 
HETATM    3  O   UNL     1      45.599 -12.917   9.652  1.00  0.00    -0.269 OA
HETATM    4  H   UNL     1      43.609 -12.801   7.162  1.00  0.00     0.192 HD
ENDROOT
BRANCH   1   5
HETATM    5  N   UNL     1      44.509 -14.579   7.487  1.00  0.00    -0.184 NA
HETATM    6  C   UNL     1      43.644 -15.321   6.872  1.00  0.00     0.152 C 
BRANCH   6   7
HETATM    7  C   UNL     1      44.001 -16.673   6.487  1.00  0.00     0.011 A 
HETATM    8  C   UNL     1      43.867 -17.256   5.184  1.00  0.00     0.004 A 
HETATM    9  C   UNL     1      43.377 -16.792   3.944  1.00  0.00     0.014 A 
HETATM   10  C   UNL     1      44.342 -18.566   5.261  1.00  0.00     0.043 A 
HETATM   11  C   UNL     1      43.385 -17.644   2.836  1.00  0.00     0.001 A 
HETATM   12  C   UNL     1      43.872 -18.944   2.944  1.00  0.00     0.002 A 
HETATM   13  C   UNL     1      44.360 -19.432   4.160  1.00  0.00     0.030 A 
HETATM   14  N   UNL     1      44.746 -18.774   6.559  1.00  0.00    -0.364 N 
HETATM   15  H   UNL     1      45.135 -19.640   6.907  1.00  0.00     0.165 HD
HETATM   16  C   UNL     1      44.542 -17.645   7.306  1.00  0.00     0.102 A 
ENDBRANCH   6   7
ENDBRANCH   1   5
BRANCH   2  17
HETATM   17  C   UNL     1      44.065 -11.177   9.038  1.00  0.00     0.280 C 
BRANCH  17  18
HETATM   18  O   UNL     1      42.783 -11.257   9.651  1.00  0.00    -0.340 OA
BRANCH  18  19
HETATM   19  C   UNL     1      42.694 -10.808  10.945  1.00  0.00     0.091 A 
HETATM   20  C   UNL     1      41.420 -10.820  11.539  1.00  0.00     0.068 A 
HETATM   21 CL   UNL     1      40.031 -11.358  10.662  1.00  0.00    -0.081 Cl
HETATM   22  C   UNL     1      41.238 -10.387  12.855  1.00  0.00     0.046 A 
HETATM   23  C   UNL     1      42.335  -9.948  13.589  1.00  0.00     0.012 A 
HETATM   24 BR   UNL     1      42.102  -9.362  15.371  1.00  0.00    -0.051 Br
HETATM   25  C   UNL     1      43.608  -9.942  13.021  1.00  0.00     0.022 A 
HETATM   26  C   UNL     1      43.787 -10.372  11.703  1.00  0.00     0.040 A 
ENDBRANCH  18  19
ENDBRANCH  17  18
ENDBRANCH   2  17
TORSDOF 5
ENDMDL
MODEL 4
REMARK VINA RESULT:      -8.1      1.653      2.280
REMARK  5 active torsions:
REMARK  status: ('A' for Active; 'I' for Inactive)
REMARK    1  A    between atoms: C_8  and  C_9 
REMARK    2  A    between atoms: N_10  and  N_11 
REMARK       I    between atoms: N_11  and  C_12 
REMARK    3  A    between atoms: C_12  and  C_13 
REMARK    4  A    between atoms: C_13  and  O_14 
REMARK    5  A    between atoms: O_14  and  C_15 
ROOT
HETATM    1  N   UNL     1      43.507 -14.192   6.728  1.00  0.00    -0.246 N 
HETATM    2  C   UNL     1      44.061 -13.268   7.605  1.00  0.00     0.261 C 
HETATM    3  O   UNL     1      45.111 -13.399   8.232  1.00  0.00    -0.269 OA
HETATM    4  H   UNL     1      42.780 -13.848   6.101  1.00  0.00     0.192 HD
ENDROOT
BRANCH   1   5
HETATM    5  N   UNL     1      44.059 -15.391   6.345  1.00  0.00    -0.184 NA
HETATM    6  C   UNL     1      43.308 -16.264   5.753  1.00  0.00     0.152 C 
BRANCH   6   7
HETATM    7  C   UNL     1      43.864 -17.545   5.364  1.00  0.00     0.011 A 
HETATM    8  C   UNL     1      43.620 -18.248   4.139  1.00  0.00     0.004 A 
HETATM    9  C   UNL     1      42.827 -17.993   2.999  1.00  0.00     0.014 A 
HETATM   10  C   UNL     1      44.365 -19.428   4.177  1.00  0.00     0.043 A 
HETATM   11  C   UNL     1      42.812 -18.915   1.948  1.00  0.00     0.001 A 
HETATM   12  C   UNL     1      43.571 -20.080   2.015  1.00  0.00     0.002 A 
HETATM   13  C   UNL     1      44.363 -20.360   3.132  1.00  0.00     0.030 A 
HETATM   14  N   UNL     1      45.032 -19.445   5.380  1.00  0.00    -0.364 N 
HETATM   15  H   UNL     1      45.651 -20.186   5.683  1.00  0.00     0.165 HD
HETATM   16  C   UNL     1      44.736 -18.322   6.103  1.00  0.00     0.102 A 
ENDBRANCH   6   7
ENDBRANCH   1   5
BRANCH   2  17
HETATM   17  C   UNL     1      43.181 -12.036   7.811  1.00  0.00     0.280 C 
BRANCH  17  18
HETATM   18  O   UNL     1      43.816 -11.055   8.622  1.00  0.00    -0.340 OA
BRANCH  18  19
HETATM   19  C   UNL     1      43.272 -10.840   9.864  1.00  0.00     0.091 A 
HETATM   20  C   UNL     1      44.157 -10.830  10.955  1.00  0.00     0.068 A 
HETATM   21 CL   UNL     1      45.851 -11.098  10.735  1.00  0.00    -0.081 Cl
HETATM   22  C   UNL     1      43.691 -10.611  12.255  1.00  0.00     0.046 A 
HETATM   23  C   UNL     1      42.333 -10.392  12.467  1.00  0.00     0.012 A 
HETATM   24 BR   UNL     1      41.691 -10.094  14.220  1.00  0.00    -0.051 Br
HETATM   25  C   UNL     1      41.443 -10.386  11.395  1.00  0.00     0.022 A 
HETATM   26  C   UNL     1      41.911 -10.608  10.096  1.00  0.00     0.040 A 
ENDBRANCH  18  19
ENDBRANCH  17  18
ENDBRANCH   2  17
TORSDOF 5
ENDMDL
MODEL 5
REMARK VINA RESULT:      -8.1      7.444      9.181
REMARK  5 active torsions:
REMARK  status: ('A' for Active; 'I' for Inactive)
REMARK    1  A    between atoms: C_8  and  C_9 
REMARK    2  A    between atoms: N_10  and  N_11 
REMARK       I    between atoms: N_11  and  C_12 
REMARK    3  A    between atoms: C_12  and  C_13 
REMARK    4  A    between atoms: C_13  and  O_14 
REMARK    5  A    between atoms: O_14  and  C_15 
ROOT
HETATM    1  N   UNL     1      41.822 -16.287   1.444  1.00  0.00    -0.246 N 
HETATM    2  C   UNL     1      40.581 -15.665   1.408  1.00  0.00     0.261 C 
HETATM    3  O   UNL     1      39.615 -15.929   2.123  1.00  0.00    -0.269 OA
HETATM    4  H   UNL     1      42.589 -15.803   0.976  1.00  0.00     0.192 HD
ENDROOT
BRANCH   1   5
HETATM    5  N   UNL     1      42.226 -17.262   2.325  1.00  0.00    -0.184 NA
HETATM    6  C   UNL     1      43.477 -17.328   2.654  1.00  0.00     0.152 C 
BRANCH   6   7
HETATM    7  C   UNL     1      43.927 -18.364   3.562  1.00  0.00     0.011 A 
HETATM    8  C   UNL     1      44.087 -19.756   3.261  1.00  0.00     0.004 A 
HETATM    9  C   UNL     1      43.871 -20.545   2.110  1.00  0.00     0.014 A 
HETATM   10  C   UNL     1      44.552 -20.385   4.418  1.00  0.00     0.043 A 
HETATM   11  C   UNL     1      44.131 -21.919   2.155  1.00  0.00     0.001 A 
HETATM   12  C   UNL     1      44.600 -22.514   3.323  1.00  0.00     0.002 A 
HETATM   13  C   UNL     1      44.819 -21.758   4.479  1.00  0.00     0.030 A 
HETATM   14  N   UNL     1      44.667 -19.415   5.385  1.00  0.00    -0.364 N 
HETATM   15  H   UNL     1      44.983 -19.583   6.331  1.00  0.00     0.165 HD
HETATM   16  C   UNL     1      44.290 -18.198   4.885  1.00  0.00     0.102 A 
ENDBRANCH   6   7
ENDBRANCH   1   5
BRANCH   2  17
HETATM   17  C   UNL     1      40.465 -14.623   0.298  1.00  0.00     0.280 C 
BRANCH  17  18
HETATM   18  O   UNL     1      41.383 -14.866  -0.761  1.00  0.00    -0.340 OA
BRANCH  18  19
HETATM   19  C   UNL     1      41.653 -13.808  -1.594  1.00  0.00     0.091 A 
HETATM   20  C   UNL     1      41.174 -13.894  -2.912  1.00  0.00     0.068 A 
HETATM   21 CL   UNL     1      40.303 -15.284  -3.457  1.00  0.00    -0.081 Cl
HETATM   22  C   UNL     1      41.398 -12.859  -3.825  1.00  0.00     0.046 A 
HETATM   23  C   UNL     1      42.095 -11.727  -3.419  1.00  0.00     0.012 A 
HETATM   24 BR   UNL     1      42.402 -10.320  -4.644  1.00  0.00    -0.051 Br
HETATM   25  C   UNL     1      42.566 -11.619  -2.112  1.00  0.00     0.022 A 
HETATM   26  C   UNL     1      42.344 -12.656  -1.201  1.00  0.00     0.040 A 
ENDBRANCH  18  19
ENDBRANCH  17  18
ENDBRANCH   2  17
TORSDOF 5
ENDMDL
MODEL 6
REMARK VINA RESULT:      -8.0      7.572      9.518
REMARK  5 active torsions:
REMARK  status: ('A' for Active; 'I' for Inactive)
REMARK    1  A    between atoms: C_8  and  C_9 
REMARK    2  A    between atoms: N_10  and  N_11 
REMARK       I    between atoms: N_11  and  C_12 
REMARK    3  A    between atoms: C_12  and  C_13 
REMARK    4  A    between atoms: C_13  and  O_14 
REMARK    5  A    between atoms: O_14  and  C_15 
ROOT
HETATM    1  N   UNL     1      41.595 -15.759   2.446  1.00  0.00    -0.246 N 
HETATM    2  C   UNL     1      41.149 -15.711   1.132  1.00  0.00     0.261 C 
HETATM    3  O   UNL     1      41.172 -16.636   0.321  1.00  0.00    -0.269 OA
HETATM    4  H   UNL     1      41.287 -15.006   3.061  1.00  0.00     0.192 HD
ENDROOT
BRANCH   1   5
HETATM    5  N   UNL     1      42.080 -16.863   3.107  1.00  0.00    -0.184 NA
HETATM    6  C   UNL     1      43.360 -17.059   3.143  1.00  0.00     0.152 C 
BRANCH   6   7
HETATM    7  C   UNL     1      43.890 -18.230   3.812  1.00  0.00     0.011 A 
HETATM    8  C   UNL     1      43.988 -19.554   3.272  1.00  0.00     0.004 A 
HETATM    9  C   UNL     1      43.631 -20.143   2.041  1.00  0.00     0.014 A 
HETATM   10  C   UNL     1      44.568 -20.364   4.251  1.00  0.00     0.043 A 
HETATM   11  C   UNL     1      43.869 -21.506   1.832  1.00  0.00     0.001 A 
HETATM   12  C   UNL     1      44.454 -22.284   2.826  1.00  0.00     0.002 A 
HETATM   13  C   UNL     1      44.816 -21.728   4.057  1.00  0.00     0.030 A 
HETATM   14  N   UNL     1      44.809 -19.565   5.344  1.00  0.00    -0.364 N 
HETATM   15  H   UNL     1      45.225 -19.886   6.208  1.00  0.00     0.165 HD
HETATM   16  C   UNL     1      44.401 -18.283   5.095  1.00  0.00     0.102 A 
ENDBRANCH   6   7
ENDBRANCH   1   5
BRANCH   2  17
HETATM   17  C   UNL     1      40.674 -14.321   0.712  1.00  0.00     0.280 C 
BRANCH  17  18
HETATM   18  O   UNL     1      40.951 -14.053  -0.658  1.00  0.00    -0.340 OA
BRANCH  18  19
HETATM   19  C   UNL     1      39.867 -13.962  -1.496  1.00  0.00     0.091 A 
HETATM   20  C   UNL     1      39.887 -14.759  -2.653  1.00  0.00     0.068 A 
HETATM   21 CL   UNL     1      41.230 -15.788  -3.008  1.00  0.00    -0.081 Cl
HETATM   22  C   UNL     1      38.822 -14.734  -3.559  1.00  0.00     0.046 A 
HETATM   23  C   UNL     1      37.726 -13.917  -3.304  1.00  0.00     0.012 A 
HETATM   24 BR   UNL     1      36.279 -13.876  -4.520  1.00  0.00    -0.051 Br
HETATM   25  C   UNL     1      37.684 -13.131  -2.154  1.00  0.00     0.022 A 
HETATM   26  C   UNL     1      38.751 -13.154  -1.252  1.00  0.00     0.040 A 
ENDBRANCH  18  19
ENDBRANCH  17  18
ENDBRANCH   2  17
TORSDOF 5
ENDMDL
MODEL 7
REMARK VINA RESULT:      -7.7      1.883      2.417
REMARK  5 active torsions:
REMARK  status: ('A' for Active; 'I' for Inactive)
REMARK    1  A    between atoms: C_8  and  C_9 
REMARK    2  A    between atoms: N_10  and  N_11 
REMARK       I    between atoms: N_11  and  C_12 
REMARK    3  A    between atoms: C_12  and  C_13 
REMARK    4  A    between atoms: C_13  and  O_14 
REMARK    5  A    between atoms: O_14  and  C_15 
ROOT
HETATM    1  N   UNL     1      42.365 -13.024   6.625  1.00  0.00    -0.246 N 
HETATM    2  C   UNL     1      41.752 -11.816   6.319  1.00  0.00     0.261 C 
HETATM    3  O   UNL     1      41.363 -11.458   5.208  1.00  0.00    -0.269 OA
HETATM    4  H   UNL     1      42.402 -13.280   7.612  1.00  0.00     0.192 HD
ENDROOT
BRANCH   1   5
HETATM    5  N   UNL     1      42.590 -14.071   5.763  1.00  0.00    -0.184 NA
HETATM    6  C   UNL     1      41.786 -15.086   5.788  1.00  0.00     0.152 C 
BRANCH   6   7
HETATM    7  C   UNL     1      42.020 -16.211   4.905  1.00  0.00     0.011 A 
HETATM    8  C   UNL     1      43.027 -17.220   5.053  1.00  0.00     0.004 A 
HETATM    9  C   UNL     1      44.055 -17.455   5.991  1.00  0.00     0.014 A 
HETATM   10  C   UNL     1      42.885 -18.113   3.989  1.00  0.00     0.043 A 
HETATM   11  C   UNL     1      44.891 -18.565   5.837  1.00  0.00     0.001 A 
HETATM   12  C   UNL     1      44.718 -19.440   4.768  1.00  0.00     0.002 A 
HETATM   13  C   UNL     1      43.711 -19.231   3.821  1.00  0.00     0.030 A 
HETATM   14  N   UNL     1      41.835 -17.663   3.222  1.00  0.00    -0.364 N 
HETATM   15  H   UNL     1      41.505 -18.115   2.380  1.00  0.00     0.165 HD
HETATM   16  C   UNL     1      41.311 -16.519   3.759  1.00  0.00     0.102 A 
ENDBRANCH   6   7
ENDBRANCH   1   5
BRANCH   2  17
HETATM   17  C   UNL     1      41.662 -10.870   7.516  1.00  0.00     0.280 C 
BRANCH  17  18
HETATM   18  O   UNL     1      42.903 -10.756   8.201  1.00  0.00    -0.340 OA
BRANCH  18  19
HETATM   19  C   UNL     1      42.841 -10.423   9.532  1.00  0.00     0.091 A 
HETATM   20  C   UNL     1      44.014 -10.588  10.287  1.00  0.00     0.068 A 
HETATM   21 CL   UNL     1      45.461 -11.205   9.568  1.00  0.00    -0.081 Cl
HETATM   22  C   UNL     1      44.043 -10.267  11.647  1.00  0.00     0.046 A 
HETATM   23  C   UNL     1      42.897  -9.768  12.257  1.00  0.00     0.012 A 
HETATM   24 BR   UNL     1      42.923  -9.329  14.095  1.00  0.00    -0.051 Br
HETATM   25  C   UNL     1      41.728  -9.585  11.520  1.00  0.00     0.022 A 
HETATM   26  C   UNL     1      41.700  -9.910  10.160  1.00  0.00     0.040 A 
ENDBRANCH  18  19
ENDBRANCH  17  18
ENDBRANCH   2  17
TORSDOF 5
ENDMDL
MODEL 8
REMARK VINA RESULT:      -7.7      6.719      8.503
REMARK  5 active torsions:
REMARK  status: ('A' for Active; 'I' for Inactive)
REMARK    1  A    between atoms: C_8  and  C_9 
REMARK    2  A    between atoms: N_10  and  N_11 
REMARK       I    between atoms: N_11  and  C_12 
REMARK    3  A    between atoms: C_12  and  C_13 
REMARK    4  A    between atoms: C_13  and  O_14 
REMARK    5  A    between atoms: O_14  and  C_15 
ROOT
HETATM    1  N   UNL     1      40.486 -16.098   2.959  1.00  0.00    -0.246 N 
HETATM    2  C   UNL     1      40.172 -14.832   3.436  1.00  0.00     0.261 C 
HETATM    3  O   UNL     1      40.516 -14.355   4.517  1.00  0.00    -0.269 OA
HETATM    4  H   UNL     1      40.348 -16.258   1.962  1.00  0.00     0.192 HD
ENDROOT
BRANCH   1   5
HETATM    5  N   UNL     1      41.292 -17.028   3.572  1.00  0.00    -0.184 NA
HETATM    6  C   UNL     1      42.439 -17.308   3.041  1.00  0.00     0.152 C 
BRANCH   6   7
HETATM    7  C   UNL     1      43.293 -18.304   3.658  1.00  0.00     0.011 A 
HETATM    8  C   UNL     1      43.615 -19.598   3.133  1.00  0.00     0.004 A 
HETATM    9  C   UNL     1      43.249 -20.307   1.969  1.00  0.00     0.014 A 
HETATM   10  C   UNL     1      44.475 -20.217   4.043  1.00  0.00     0.043 A 
HETATM   11  C   UNL     1      43.754 -21.594   1.755  1.00  0.00     0.001 A 
HETATM   12  C   UNL     1      44.615 -22.180   2.680  1.00  0.00     0.002 A 
HETATM   13  C   UNL     1      44.992 -21.503   3.843  1.00  0.00     0.030 A 
HETATM   14  N   UNL     1      44.665 -19.336   5.081  1.00  0.00    -0.364 N 
HETATM   15  H   UNL     1      45.245 -19.518   5.890  1.00  0.00     0.165 HD
HETATM   16  C   UNL     1      43.957 -18.185   4.864  1.00  0.00     0.102 A 
ENDBRANCH   6   7
ENDBRANCH   1   5
BRANCH   2  17
HETATM   17  C   UNL     1      39.247 -14.054   2.502  1.00  0.00     0.280 C 
BRANCH  17  18
HETATM   18  O   UNL     1      39.032 -14.735   1.272  1.00  0.00    -0.340 OA
BRANCH  18  19
HETATM   19  C   UNL     1      39.225 -14.006   0.125  1.00  0.00     0.091 A 
HETATM   20  C   UNL     1      40.291 -14.392  -0.706  1.00  0.00     0.068 A 
HETATM   21 CL   UNL     1      41.321 -15.715  -0.281  1.00  0.00    -0.081 Cl
HETATM   22  C   UNL     1      40.556 -13.710  -1.897  1.00  0.00     0.046 A 
HETATM   23  C   UNL     1      39.747 -12.641  -2.267  1.00  0.00     0.012 A 
HETATM   24 BR   UNL     1      40.094 -11.712  -3.876  1.00  0.00    -0.051 Br
HETATM   25  C   UNL     1      38.677 -12.253  -1.463  1.00  0.00     0.022 A 
HETATM   26  C   UNL     1      38.416 -12.934  -0.270  1.00  0.00     0.040 A 
ENDBRANCH  18  19
ENDBRANCH  17  18
ENDBRANCH   2  17
TORSDOF 5
ENDMDL
MODEL 9
REMARK VINA RESULT:      -7.5      2.217      2.843
REMARK  5 active torsions:
REMARK  status: ('A' for Active; 'I' for Inactive)
REMARK    1  A    between atoms: C_8  and  C_9 
REMARK    2  A    between atoms: N_10  and  N_11 
REMARK       I    between atoms: N_11  and  C_12 
REMARK    3  A    between atoms: C_12  and  C_13 
REMARK    4  A    between atoms: C_13  and  O_14 
REMARK    5  A    between atoms: O_14  and  C_15 
ROOT
HETATM    1  N   UNL     1      41.953 -13.413   6.208  1.00  0.00    -0.246 N 
HETATM    2  C   UNL     1      40.817 -12.625   6.336  1.00  0.00     0.261 C 
HETATM    3  O   UNL     1      39.675 -12.935   5.999  1.00  0.00    -0.269 OA
HETATM    4  H   UNL     1      42.769 -13.130   6.750  1.00  0.00     0.192 HD
ENDROOT
BRANCH   1   5
HETATM    5  N   UNL     1      42.005 -14.708   5.748  1.00  0.00    -0.184 NA
HETATM    6  C   UNL     1      43.135 -15.340   5.787  1.00  0.00     0.152 C 
BRANCH   6   7
HETATM    7  C   UNL     1      43.217 -16.697   5.282  1.00  0.00     0.011 A 
HETATM    8  C   UNL     1      43.416 -17.093   3.919  1.00  0.00     0.004 A 
HETATM    9  C   UNL     1      43.568 -16.393   2.703  1.00  0.00     0.014 A 
HETATM   10  C   UNL     1      43.443 -18.489   3.888  1.00  0.00     0.043 A 
HETATM   11  C   UNL     1      43.747 -17.106   1.513  1.00  0.00     0.001 A 
HETATM   12  C   UNL     1      43.776 -18.497   1.518  1.00  0.00     0.002 A 
HETATM   13  C   UNL     1      43.624 -19.217   2.706  1.00  0.00     0.030 A 
HETATM   14  N   UNL     1      43.264 -18.924   5.180  1.00  0.00    -0.364 N 
HETATM   15  H   UNL     1      43.239 -19.896   5.460  1.00  0.00     0.165 HD
HETATM   16  C   UNL     1      43.122 -17.858   6.026  1.00  0.00     0.102 A 
ENDBRANCH   6   7
ENDBRANCH   1   5
BRANCH   2  17
HETATM   17  C   UNL     1      41.115 -11.230   6.882  1.00  0.00     0.280 C 
BRANCH  17  18
HETATM   18  O   UNL     1      42.444 -11.122   7.376  1.00  0.00    -0.340 OA
BRANCH  18  19
HETATM   19  C   UNL     1      42.581 -10.748   8.690  1.00  0.00     0.091 A 
HETATM   20  C   UNL     1      43.655 -11.305   9.404  1.00  0.00     0.068 A 
HETATM   21 CL   UNL     1      44.737 -12.429   8.658  1.00  0.00    -0.081 Cl
HETATM   22  C   UNL     1      43.875 -10.974  10.744  1.00  0.00     0.046 A 
HETATM   23  C   UNL     1      43.023 -10.074  11.375  1.00  0.00     0.012 A 
HETATM   24 BR   UNL     1      43.309  -9.617  13.187  1.00  0.00    -0.051 Br
HETATM   25  C   UNL     1      41.960  -9.501  10.678  1.00  0.00     0.022 A 
HETATM   26  C   UNL     1      41.741  -9.836   9.339  1.00  0.00     0.040 A 
ENDBRANCH  18  19
ENDBRANCH  17  18
ENDBRANCH   2  17
TORSDOF 5
ENDMDL
MODEL 10
REMARK VINA RESULT:      -7.2      4.400     10.110
REMARK  5 active torsions:
REMARK  status: ('A' for Active; 'I' for Inactive)
REMARK    1  A    between atoms: C_8  and  C_9 
REMARK    2  A    between atoms: N_10  and  N_11 
REMARK       I    between atoms: N_11  and  C_12 
REMARK    3  A    between atoms: C_12  and  C_13 
REMARK    4  A    between atoms: C_13  and  O_14 
REMARK    5  A    between atoms: O_14  and  C_15 
ROOT
HETATM    1  N   UNL     1      42.586 -12.903   6.129  1.00  0.00    -0.246 N 
HETATM    2  C   UNL     1      41.943 -14.026   5.624  1.00  0.00     0.261 C 
HETATM    3  O   UNL     1      40.790 -14.376   5.870  1.00  0.00    -0.269 OA
HETATM    4  H   UNL     1      43.437 -12.610   5.649  1.00  0.00     0.192 HD
ENDROOT
BRANCH   1   5
HETATM    5  N   UNL     1      42.036 -11.939   6.940  1.00  0.00    -0.184 NA
HETATM    6  C   UNL     1      42.739 -11.473   7.922  1.00  0.00     0.152 C 
BRANCH   6   7
HETATM    7  C   UNL     1      42.168 -10.474   8.804  1.00  0.00     0.011 A 
HETATM    8  C   UNL     1      42.608 -10.149  10.129  1.00  0.00     0.004 A 
HETATM    9  C   UNL     1      43.629 -10.637  10.974  1.00  0.00     0.014 A 
HETATM   10  C   UNL     1      41.786  -9.126  10.605  1.00  0.00     0.043 A 
HETATM   11  C   UNL     1      43.792 -10.086  12.249  1.00  0.00     0.001 A 
HETATM   12  C   UNL     1      42.959  -9.062  12.691  1.00  0.00     0.002 A 
HETATM   13  C   UNL     1      41.939  -8.561  11.877  1.00  0.00     0.030 A 
HETATM   14  N   UNL     1      40.880  -8.842   9.611  1.00  0.00    -0.364 N 
HETATM   15  H   UNL     1      40.156  -8.138   9.678  1.00  0.00     0.165 HD
HETATM   16  C   UNL     1      41.095  -9.648   8.526  1.00  0.00     0.102 A 
ENDBRANCH   6   7
ENDBRANCH   1   5
BRANCH   2  17
HETATM   17  C   UNL     1      42.850 -14.894   4.753  1.00  0.00     0.280 C 
BRANCH  17  18
HETATM   18  O   UNL     1      43.244 -16.089   5.416  1.00  0.00    -0.340 OA
BRANCH  18  19
HETATM   19  C   UNL     1      43.393 -17.206   4.631  1.00  0.00     0.091 A 
HETATM   20  C   UNL     1      44.301 -18.182   5.075  1.00  0.00     0.068 A 
HETATM   21 CL   UNL     1      45.200 -17.967   6.536  1.00  0.00    -0.081 Cl
HETATM   22  C   UNL     1      44.511 -19.353   4.342  1.00  0.00     0.046 A 
HETATM   23  C   UNL     1      43.804 -19.557   3.162  1.00  0.00     0.012 A 
HETATM   24 BR   UNL     1      44.077 -21.138   2.162  1.00  0.00    -0.051 Br
HETATM   25  C   UNL     1      42.889 -18.606   2.713  1.00  0.00     0.022 A 
HETATM   26  C   UNL     1      42.684 -17.434   3.446  1.00  0.00     0.040 A 
ENDBRANCH  18  19
ENDBRANCH  17  18
ENDBRANCH   2  17
TORSDOF 5
ENDMDL
