MODEL 1
REMARK VINA RESULT:      -8.4      0.000      0.000
REMARK  5 active torsions:
REMARK  status: ('A' for Active; 'I' for Inactive)
REMARK       I    between atoms: C_2  and  N_3 
REMARK    1  A    between atoms: C_2  and  O_16 
REMARK    2  A    between atoms: N_3  and  C_4 
REMARK    3  A    between atoms: C_7  and  C_10 
REMARK    4  A    between atoms: O_16  and  C_17 
REMARK    5  A    between atoms: C_17  and  C_18 
ROOT
HETATM    1  C   UNL     1      43.934 -16.237   6.473  1.00  0.00     0.036 A 
HETATM    2  C   UNL     1      43.165 -16.149   5.313  1.00  0.00     0.030 A 
HETATM    3  C   UNL     1      43.178 -17.186   4.370  1.00  0.00     0.014 A 
HETATM    4  C   UNL     1      43.961 -18.329   4.568  1.00  0.00    -0.023 A 
HETATM    5  C   UNL     1      44.720 -18.420   5.740  1.00  0.00     0.014 A 
HETATM    6  C   UNL     1      44.703 -17.386   6.685  1.00  0.00     0.030 A 
ENDROOT
BRANCH   1   7
HETATM    7  N   UNL     1      44.004 -15.226   7.446  1.00  0.00    -0.303 N 
HETATM    8  C   UNL     1      44.793 -14.109   7.456  1.00  0.00     0.365 C 
HETATM    9  O   UNL     1      45.562 -13.729   6.587  1.00  0.00    -0.238 OA
HETATM   10  H   UNL     1      43.448 -15.329   8.282  1.00  0.00     0.171 HD
BRANCH   8  11
HETATM   11  O   UNL     1      44.604 -13.479   8.643  1.00  0.00    -0.299 OA
BRANCH  11  12
HETATM   12  C   UNL     1      45.186 -12.174   8.765  1.00  0.00     0.219 C 
BRANCH  12  13
HETATM   13  C   UNL     1      44.330 -11.323   9.666  1.00  0.00    -0.034 A 
HETATM   14  C   UNL     1      43.094 -10.832   9.224  1.00  0.00     0.009 A 
HETATM   15  C   UNL     1      42.302 -10.050  10.067  1.00  0.00     0.001 A 
HETATM   16  C   UNL     1      42.742  -9.746  11.354  1.00  0.00     0.000 A 
HETATM   17  C   UNL     1      43.977 -10.216  11.797  1.00  0.00     0.001 A 
HETATM   18  C   UNL     1      44.769 -10.998  10.956  1.00  0.00     0.009 A 
ENDBRANCH  12  13
ENDBRANCH  11  12
ENDBRANCH   8  11
ENDBRANCH   1   7
BRANCH   4  19
HETATM   19  C   UNL     1      44.008 -19.392   3.580  1.00  0.00     0.010 A 
HETATM   20  C   UNL     1      44.765 -20.588   3.544  1.00  0.00     0.152 A 
HETATM   21  N   UNL     1      44.524 -21.322   2.454  1.00  0.00    -0.187 NA
HETATM   22  N   UNL     1      43.613 -20.599   1.786  1.00  0.00    -0.289 N 
HETATM   23  H   UNL     1      43.266 -20.960   0.903  1.00  0.00     0.188 HD
HETATM   24  C   UNL     1      43.269 -19.438   2.417  1.00  0.00     0.123 A 
ENDBRANCH   4  19
TORSDOF 5
ENDMDL
MODEL 2
REMARK VINA RESULT:      -7.8      6.318      8.780
REMARK  5 active torsions:
REMARK  status: ('A' for Active; 'I' for Inactive)
REMARK       I    between atoms: C_2  and  N_3 
REMARK    1  A    between atoms: C_2  and  O_16 
REMARK    2  A    between atoms: N_3  and  C_4 
REMARK    3  A    between atoms: C_7  and  C_10 
REMARK    4  A    between atoms: O_16  and  C_17 
REMARK    5  A    between atoms: C_17  and  C_18 
ROOT
HETATM    1  C   UNL     1      42.919 -17.109   2.219  1.00  0.00     0.036 A 
HETATM    2  C   UNL     1      43.024 -17.327   3.592  1.00  0.00     0.030 A 
HETATM    3  C   UNL     1      43.512 -18.545   4.084  1.00  0.00     0.014 A 
HETATM    4  C   UNL     1      43.904 -19.568   3.212  1.00  0.00    -0.023 A 
HETATM    5  C   UNL     1      43.810 -19.341   1.835  1.00  0.00     0.014 A 
HETATM    6  C   UNL     1      43.327 -18.122   1.344  1.00  0.00     0.030 A 
ENDROOT
BRANCH   1   7
HETATM    7  N   UNL     1      42.404 -15.933   1.649  1.00  0.00    -0.303 N 
HETATM    8  C   UNL     1      41.099 -15.607   1.403  1.00  0.00     0.365 C 
HETATM    9  O   UNL     1      40.102 -16.253   1.684  1.00  0.00    -0.238 OA
HETATM   10  H   UNL     1      43.058 -15.234   1.324  1.00  0.00     0.171 HD
BRANCH   8  11
HETATM   11  O   UNL     1      41.085 -14.420   0.745  1.00  0.00    -0.299 OA
BRANCH  11  12
HETATM   12  C   UNL     1      41.670 -14.416  -0.564  1.00  0.00     0.219 C 
BRANCH  12  13
HETATM   13  C   UNL     1      40.601 -14.672  -1.594  1.00  0.00    -0.034 A 
HETATM   14  C   UNL     1      39.383 -13.979  -1.548  1.00  0.00     0.009 A 
HETATM   15  C   UNL     1      38.399 -14.215  -2.510  1.00  0.00     0.001 A 
HETATM   16  C   UNL     1      38.620 -15.151  -3.519  1.00  0.00     0.000 A 
HETATM   17  C   UNL     1      39.822 -15.857  -3.564  1.00  0.00     0.001 A 
HETATM   18  C   UNL     1      40.806 -15.621  -2.603  1.00  0.00     0.009 A 
ENDBRANCH  12  13
ENDBRANCH  11  12
ENDBRANCH   8  11
ENDBRANCH   1   7
BRANCH   4  19
HETATM   19  C   UNL     1      44.377 -20.847   3.713  1.00  0.00     0.010 A 
HETATM   20  C   UNL     1      44.900 -21.208   4.978  1.00  0.00     0.152 A 
HETATM   21  N   UNL     1      45.225 -22.502   5.056  1.00  0.00    -0.187 NA
HETATM   22  N   UNL     1      44.912 -22.975   3.839  1.00  0.00    -0.289 N 
HETATM   23  H   UNL     1      45.074 -23.959   3.651  1.00  0.00     0.188 HD
HETATM   24  C   UNL     1      44.400 -22.028   3.001  1.00  0.00     0.123 A 
ENDBRANCH   4  19
TORSDOF 5
ENDMDL
MODEL 3
REMARK VINA RESULT:      -7.6      5.168      7.189
REMARK  5 active torsions:
REMARK  status: ('A' for Active; 'I' for Inactive)
REMARK       I    between atoms: C_2  and  N_3 
REMARK    1  A    between atoms: C_2  and  O_16 
REMARK    2  A    between atoms: N_3  and  C_4 
REMARK    3  A    between atoms: C_7  and  C_10 
REMARK    4  A    between atoms: O_16  and  C_17 
REMARK    5  A    between atoms: C_17  and  C_18 
ROOT
HETATM    1  C   UNL     1      43.235 -16.350   2.568  1.00  0.00     0.036 A 
HETATM    2  C   UNL     1      43.009 -16.962   3.800  1.00  0.00     0.030 A 
HETATM    3  C   UNL     1      43.351 -18.306   4.001  1.00  0.00     0.014 A 
HETATM    4  C   UNL     1      43.924 -19.064   2.973  1.00  0.00    -0.023 A 
HETATM    5  C   UNL     1      44.163 -18.443   1.743  1.00  0.00     0.014 A 
HETATM    6  C   UNL     1      43.826 -17.099   1.544  1.00  0.00     0.030 A 
ENDROOT
BRANCH   1   7
HETATM    7  N   UNL     1      42.886 -15.021   2.276  1.00  0.00    -0.303 N 
HETATM    8  C   UNL     1      43.271 -13.879   2.921  1.00  0.00     0.365 C 
HETATM    9  O   UNL     1      44.050 -13.775   3.856  1.00  0.00    -0.238 OA
HETATM   10  H   UNL     1      42.230 -14.854   1.526  1.00  0.00     0.171 HD
BRANCH   8  11
HETATM   11  O   UNL     1      42.604 -12.840   2.359  1.00  0.00    -0.299 OA
BRANCH  11  12
HETATM   12  C   UNL     1      41.637 -13.178   1.356  1.00  0.00     0.219 C 
BRANCH  12  13
HETATM   13  C   UNL     1      42.022 -12.537   0.049  1.00  0.00    -0.034 A 
HETATM   14  C   UNL     1      42.423 -11.194   0.001  1.00  0.00     0.009 A 
HETATM   15  C   UNL     1      42.785 -10.608  -1.213  1.00  0.00     0.001 A 
HETATM   16  C   UNL     1      42.742 -11.355  -2.389  1.00  0.00     0.000 A 
HETATM   17  C   UNL     1      42.330 -12.686  -2.354  1.00  0.00     0.001 A 
HETATM   18  C   UNL     1      41.967 -13.273  -1.142  1.00  0.00     0.009 A 
ENDBRANCH  12  13
ENDBRANCH  11  12
ENDBRANCH   8  11
ENDBRANCH   1   7
BRANCH   4  19
HETATM   19  C   UNL     1      44.249 -20.467   3.161  1.00  0.00     0.010 A 
HETATM   20  C   UNL     1      44.206 -21.556   2.257  1.00  0.00     0.152 A 
HETATM   21  N   UNL     1      44.591 -22.708   2.812  1.00  0.00    -0.187 NA
HETATM   22  N   UNL     1      44.880 -22.363   4.077  1.00  0.00    -0.289 N 
HETATM   23  H   UNL     1      45.202 -23.088   4.710  1.00  0.00     0.188 HD
HETATM   24  C   UNL     1      44.695 -21.036   4.336  1.00  0.00     0.123 A 
ENDBRANCH   4  19
TORSDOF 5
ENDMDL
MODEL 4
REMARK VINA RESULT:      -7.5      3.311      9.982
REMARK  5 active torsions:
REMARK  status: ('A' for Active; 'I' for Inactive)
REMARK       I    between atoms: C_2  and  N_3 
REMARK    1  A    between atoms: C_2  and  O_16 
REMARK    2  A    between atoms: N_3  and  C_4 
REMARK    3  A    between atoms: C_7  and  C_10 
REMARK    4  A    between atoms: O_16  and  C_17 
REMARK    5  A    between atoms: C_17  and  C_18 
ROOT
HETATM    1  C   UNL     1      44.005 -12.038   9.396  1.00  0.00     0.036 A 
HETATM    2  C   UNL     1      43.100 -11.009   9.140  1.00  0.00     0.030 A 
HETATM    3  C   UNL     1      42.803 -10.061  10.128  1.00  0.00     0.014 A 
HETATM    4  C   UNL     1      43.402 -10.125  11.392  1.00  0.00    -0.023 A 
HETATM    5  C   UNL     1      44.319 -11.152  11.641  1.00  0.00     0.014 A 
HETATM    6  C   UNL     1      44.621 -12.096  10.651  1.00  0.00     0.030 A 
ENDROOT
BRANCH   1   7
HETATM    7  N   UNL     1      44.327 -13.048   8.473  1.00  0.00    -0.303 N 
HETATM    8  C   UNL     1      45.474 -13.200   7.746  1.00  0.00     0.365 C 
HETATM    9  O   UNL     1      46.486 -12.518   7.793  1.00  0.00    -0.238 OA
HETATM   10  H   UNL     1      43.624 -13.741   8.260  1.00  0.00     0.171 HD
BRANCH   8  11
HETATM   11  O   UNL     1      45.297 -14.253   6.908  1.00  0.00    -0.299 OA
BRANCH  11  12
HETATM   12  C   UNL     1      43.942 -14.671   6.696  1.00  0.00     0.219 C 
BRANCH  12  13
HETATM   13  C   UNL     1      43.929 -16.056   6.105  1.00  0.00    -0.034 A 
HETATM   14  C   UNL     1      44.718 -17.077   6.655  1.00  0.00     0.009 A 
HETATM   15  C   UNL     1      44.696 -18.360   6.107  1.00  0.00     0.001 A 
HETATM   16  C   UNL     1      43.894 -18.633   5.000  1.00  0.00     0.000 A 
HETATM   17  C   UNL     1      43.119 -17.621   4.435  1.00  0.00     0.001 A 
HETATM   18  C   UNL     1      43.140 -16.338   4.982  1.00  0.00     0.009 A 
ENDBRANCH  12  13
ENDBRANCH  11  12
ENDBRANCH   8  11
ENDBRANCH   1   7
BRANCH   4  19
HETATM   19  C   UNL     1      43.073  -9.169  12.433  1.00  0.00     0.010 A 
HETATM   20  C   UNL     1      42.470  -7.890  12.358  1.00  0.00     0.152 A 
HETATM   21  N   UNL     1      42.328  -7.311  13.553  1.00  0.00    -0.187 NA
HETATM   22  N   UNL     1      42.839  -8.217  14.401  1.00  0.00    -0.289 N 
HETATM   23  H   UNL     1      42.843  -7.998  15.393  1.00  0.00     0.188 HD
HETATM   24  C   UNL     1      43.296  -9.345  13.783  1.00  0.00     0.123 A 
ENDBRANCH   4  19
TORSDOF 5
ENDMDL
MODEL 5
REMARK VINA RESULT:      -7.4      6.268      8.099
REMARK  5 active torsions:
REMARK  status: ('A' for Active; 'I' for Inactive)
REMARK       I    between atoms: C_2  and  N_3 
REMARK    1  A    between atoms: C_2  and  O_16 
REMARK    2  A    between atoms: N_3  and  C_4 
REMARK    3  A    between atoms: C_7  and  C_10 
REMARK    4  A    between atoms: O_16  and  C_17 
REMARK    5  A    between atoms: C_17  and  C_18 
ROOT
HETATM    1  C   UNL     1      43.095 -16.986   1.991  1.00  0.00     0.036 A 
HETATM    2  C   UNL     1      43.415 -17.087   3.345  1.00  0.00     0.030 A 
HETATM    3  C   UNL     1      43.859 -18.302   3.883  1.00  0.00     0.014 A 
HETATM    4  C   UNL     1      43.990 -19.440   3.079  1.00  0.00    -0.023 A 
HETATM    5  C   UNL     1      43.682 -19.333   1.718  1.00  0.00     0.014 A 
HETATM    6  C   UNL     1      43.243 -18.116   1.179  1.00  0.00     0.030 A 
ENDROOT
BRANCH   1   7
HETATM    7  N   UNL     1      42.608 -15.816   1.385  1.00  0.00    -0.303 N 
HETATM    8  C   UNL     1      41.352 -15.281   1.457  1.00  0.00     0.365 C 
HETATM    9  O   UNL     1      40.404 -15.682   2.114  1.00  0.00    -0.238 OA
HETATM   10  H   UNL     1      43.226 -15.304   0.772  1.00  0.00     0.171 HD
BRANCH   8  11
HETATM   11  O   UNL     1      41.310 -14.208   0.626  1.00  0.00    -0.299 OA
BRANCH  11  12
HETATM   12  C   UNL     1      41.557 -14.473  -0.761  1.00  0.00     0.219 C 
BRANCH  12  13
HETATM   13  C   UNL     1      41.990 -13.203  -1.446  1.00  0.00    -0.034 A 
HETATM   14  C   UNL     1      42.513 -12.133  -0.706  1.00  0.00     0.009 A 
HETATM   15  C   UNL     1      42.918 -10.961  -1.348  1.00  0.00     0.001 A 
HETATM   16  C   UNL     1      42.796 -10.846  -2.732  1.00  0.00     0.000 A 
HETATM   17  C   UNL     1      42.262 -11.898  -3.474  1.00  0.00     0.001 A 
HETATM   18  C   UNL     1      41.857 -13.069  -2.834  1.00  0.00     0.009 A 
ENDBRANCH  12  13
ENDBRANCH  11  12
ENDBRANCH   8  11
ENDBRANCH   1   7
BRANCH   4  19
HETATM   19  C   UNL     1      44.415 -20.713   3.635  1.00  0.00     0.010 A 
HETATM   20  C   UNL     1      44.944 -21.035   4.908  1.00  0.00     0.152 A 
HETATM   21  N   UNL     1      45.212 -22.337   5.044  1.00  0.00    -0.187 NA
HETATM   22  N   UNL     1      44.857 -22.855   3.858  1.00  0.00    -0.289 N 
HETATM   23  H   UNL     1      44.971 -23.853   3.716  1.00  0.00     0.188 HD
HETATM   24  C   UNL     1      44.373 -21.927   2.982  1.00  0.00     0.123 A 
ENDBRANCH   4  19
TORSDOF 5
ENDMDL
MODEL 6
REMARK VINA RESULT:      -7.3      5.423      8.780
REMARK  5 active torsions:
REMARK  status: ('A' for Active; 'I' for Inactive)
REMARK       I    between atoms: C_2  and  N_3 
REMARK    1  A    between atoms: C_2  and  O_16 
REMARK    2  A    between atoms: N_3  and  C_4 
REMARK    3  A    between atoms: C_7  and  C_10 
REMARK    4  A    between atoms: O_16  and  C_17 
REMARK    5  A    between atoms: C_17  and  C_18 
ROOT
HETATM    1  C   UNL     1      41.621 -16.905   2.932  1.00  0.00     0.036 A 
HETATM    2  C   UNL     1      40.785 -15.815   3.169  1.00  0.00     0.030 A 
HETATM    3  C   UNL     1      40.290 -15.053   2.102  1.00  0.00     0.014 A 
HETATM    4  C   UNL     1      40.623 -15.365   0.779  1.00  0.00    -0.023 A 
HETATM    5  C   UNL     1      41.451 -16.468   0.544  1.00  0.00     0.014 A 
HETATM    6  C   UNL     1      41.942 -17.233   1.610  1.00  0.00     0.030 A 
ENDROOT
BRANCH   1   7
HETATM    7  N   UNL     1      42.189 -17.694   3.948  1.00  0.00    -0.303 N 
HETATM    8  C   UNL     1      43.038 -17.310   4.947  1.00  0.00     0.365 C 
HETATM    9  O   UNL     1      43.436 -16.184   5.200  1.00  0.00    -0.238 OA
HETATM   10  H   UNL     1      42.003 -18.687   3.940  1.00  0.00     0.171 HD
BRANCH   8  11
HETATM   11  O   UNL     1      43.410 -18.426   5.626  1.00  0.00    -0.299 OA
BRANCH  11  12
HETATM   12  C   UNL     1      44.741 -18.899   5.381  1.00  0.00     0.219 C 
BRANCH  12  13
HETATM   13  C   UNL     1      44.683 -20.175   4.584  1.00  0.00    -0.034 A 
HETATM   14  C   UNL     1      44.539 -20.142   3.190  1.00  0.00     0.009 A 
HETATM   15  C   UNL     1      44.492 -21.329   2.455  1.00  0.00     0.001 A 
HETATM   16  C   UNL     1      44.580 -22.557   3.108  1.00  0.00     0.000 A 
HETATM   17  C   UNL     1      44.707 -22.601   4.496  1.00  0.00     0.001 A 
HETATM   18  C   UNL     1      44.754 -21.416   5.231  1.00  0.00     0.009 A 
ENDBRANCH  12  13
ENDBRANCH  11  12
ENDBRANCH   8  11
ENDBRANCH   1   7
BRANCH   4  19
HETATM   19  C   UNL     1      40.144 -14.560  -0.330  1.00  0.00     0.010 A 
HETATM   20  C   UNL     1      38.930 -13.852  -0.503  1.00  0.00     0.152 A 
HETATM   21  N   UNL     1      38.861 -13.218  -1.676  1.00  0.00    -0.187 NA
HETATM   22  N   UNL     1      40.031 -13.517  -2.262  1.00  0.00    -0.289 N 
HETATM   23  H   UNL     1      40.216 -13.140  -3.186  1.00  0.00     0.188 HD
HETATM   24  C   UNL     1      40.834 -14.314  -1.499  1.00  0.00     0.123 A 
ENDBRANCH   4  19
TORSDOF 5
ENDMDL
MODEL 7
REMARK VINA RESULT:      -7.3      5.857      7.767
REMARK  5 active torsions:
REMARK  status: ('A' for Active; 'I' for Inactive)
REMARK       I    between atoms: C_2  and  N_3 
REMARK    1  A    between atoms: C_2  and  O_16 
REMARK    2  A    between atoms: N_3  and  C_4 
REMARK    3  A    between atoms: C_7  and  C_10 
REMARK    4  A    between atoms: O_16  and  C_17 
REMARK    5  A    between atoms: C_17  and  C_18 
ROOT
HETATM    1  C   UNL     1      43.419 -16.753   2.460  1.00  0.00     0.036 A 
HETATM    2  C   UNL     1      43.567 -17.710   1.456  1.00  0.00     0.030 A 
HETATM    3  C   UNL     1      43.870 -19.039   1.779  1.00  0.00     0.014 A 
HETATM    4  C   UNL     1      44.032 -19.438   3.111  1.00  0.00    -0.023 A 
HETATM    5  C   UNL     1      43.869 -18.479   4.116  1.00  0.00     0.014 A 
HETATM    6  C   UNL     1      43.561 -17.151   3.794  1.00  0.00     0.030 A 
ENDROOT
BRANCH   1   7
HETATM    7  N   UNL     1      43.154 -15.395   2.218  1.00  0.00    -0.303 N 
HETATM    8  C   UNL     1      41.963 -14.731   2.315  1.00  0.00     0.365 C 
HETATM    9  O   UNL     1      40.888 -15.172   2.691  1.00  0.00    -0.238 OA
HETATM   10  H   UNL     1      43.909 -14.815   1.881  1.00  0.00     0.171 HD
BRANCH   8  11
HETATM   11  O   UNL     1      42.161 -13.459   1.882  1.00  0.00    -0.299 OA
BRANCH  11  12
HETATM   12  C   UNL     1      41.119 -12.898   1.073  1.00  0.00     0.219 C 
BRANCH  12  13
HETATM   13  C   UNL     1      41.376 -13.223  -0.375  1.00  0.00    -0.034 A 
HETATM   14  C   UNL     1      40.673 -14.256  -1.012  1.00  0.00     0.009 A 
HETATM   15  C   UNL     1      40.911 -14.548  -2.357  1.00  0.00     0.001 A 
HETATM   16  C   UNL     1      41.857 -13.818  -3.072  1.00  0.00     0.000 A 
HETATM   17  C   UNL     1      42.573 -12.800  -2.444  1.00  0.00     0.001 A 
HETATM   18  C   UNL     1      42.337 -12.506  -1.100  1.00  0.00     0.009 A 
ENDBRANCH  12  13
ENDBRANCH  11  12
ENDBRANCH   8  11
ENDBRANCH   1   7
BRANCH   4  19
HETATM   19  C   UNL     1      44.381 -20.805   3.452  1.00  0.00     0.010 A 
HETATM   20  C   UNL     1      44.347 -21.990   2.677  1.00  0.00     0.152 A 
HETATM   21  N   UNL     1      44.756 -23.066   3.355  1.00  0.00    -0.187 NA
HETATM   22  N   UNL     1      45.053 -22.576   4.568  1.00  0.00    -0.289 N 
HETATM   23  H   UNL     1      45.393 -23.219   5.276  1.00  0.00     0.188 HD
HETATM   24  C   UNL     1      44.849 -21.231   4.678  1.00  0.00     0.123 A 
ENDBRANCH   4  19
TORSDOF 5
ENDMDL
MODEL 8
REMARK VINA RESULT:      -7.3      6.431      9.316
REMARK  5 active torsions:
REMARK  status: ('A' for Active; 'I' for Inactive)
REMARK       I    between atoms: C_2  and  N_3 
REMARK    1  A    between atoms: C_2  and  O_16 
REMARK    2  A    between atoms: N_3  and  C_4 
REMARK    3  A    between atoms: C_7  and  C_10 
REMARK    4  A    between atoms: O_16  and  C_17 
REMARK    5  A    between atoms: C_17  and  C_18 
ROOT
HETATM    1  C   UNL     1      42.193 -16.582   1.256  1.00  0.00     0.036 A 
HETATM    2  C   UNL     1      43.384 -17.227   0.925  1.00  0.00     0.030 A 
HETATM    3  C   UNL     1      43.948 -18.170   1.795  1.00  0.00     0.014 A 
HETATM    4  C   UNL     1      43.333 -18.485   3.013  1.00  0.00    -0.023 A 
HETATM    5  C   UNL     1      42.131 -17.845   3.335  1.00  0.00     0.014 A 
HETATM    6  C   UNL     1      41.565 -16.907   2.463  1.00  0.00     0.030 A 
ENDROOT
BRANCH   1   7
HETATM    7  N   UNL     1      41.586 -15.599   0.457  1.00  0.00    -0.303 N 
HETATM    8  C   UNL     1      41.615 -14.241   0.612  1.00  0.00     0.365 C 
HETATM    9  O   UNL     1      42.227 -13.596   1.448  1.00  0.00    -0.238 OA
HETATM   10  H   UNL     1      41.006 -15.901  -0.313  1.00  0.00     0.171 HD
BRANCH   8  11
HETATM   11  O   UNL     1      40.800 -13.699  -0.329  1.00  0.00    -0.299 OA
BRANCH  11  12
HETATM   12  C   UNL     1      41.243 -13.810  -1.688  1.00  0.00     0.219 C 
BRANCH  12  13
HETATM   13  C   UNL     1      40.145 -14.407  -2.529  1.00  0.00    -0.034 A 
HETATM   14  C   UNL     1      38.920 -13.741  -2.684  1.00  0.00     0.009 A 
HETATM   15  C   UNL     1      37.909 -14.297  -3.469  1.00  0.00     0.001 A 
HETATM   16  C   UNL     1      38.109 -15.524  -4.099  1.00  0.00     0.000 A 
HETATM   17  C   UNL     1      39.317 -16.201  -3.938  1.00  0.00     0.001 A 
HETATM   18  C   UNL     1      40.329 -15.647  -3.153  1.00  0.00     0.009 A 
ENDBRANCH  12  13
ENDBRANCH  11  12
ENDBRANCH   8  11
ENDBRANCH   1   7
BRANCH   4  19
HETATM   19  C   UNL     1      43.929 -19.434   3.936  1.00  0.00     0.010 A 
HETATM   20  C   UNL     1      44.729 -20.577   3.700  1.00  0.00     0.152 A 
HETATM   21  N   UNL     1      45.093 -21.199   4.824  1.00  0.00    -0.187 NA
HETATM   22  N   UNL     1      44.527 -20.456   5.788  1.00  0.00    -0.289 N 
HETATM   23  H   UNL     1      44.665 -20.736   6.754  1.00  0.00     0.188 HD
HETATM   24  C   UNL     1      43.822 -19.389   5.311  1.00  0.00     0.123 A 
ENDBRANCH   4  19
TORSDOF 5
ENDMDL
MODEL 9
REMARK VINA RESULT:      -7.3      5.244      6.537
REMARK  5 active torsions:
REMARK  status: ('A' for Active; 'I' for Inactive)
REMARK       I    between atoms: C_2  and  N_3 
REMARK    1  A    between atoms: C_2  and  O_16 
REMARK    2  A    between atoms: N_3  and  C_4 
REMARK    3  A    between atoms: C_7  and  C_10 
REMARK    4  A    between atoms: O_16  and  C_17 
REMARK    5  A    between atoms: C_17  and  C_18 
ROOT
HETATM    1  C   UNL     1      42.694 -16.461   2.253  1.00  0.00     0.036 A 
HETATM    2  C   UNL     1      43.484 -17.071   1.279  1.00  0.00     0.030 A 
HETATM    3  C   UNL     1      43.929 -18.389   1.447  1.00  0.00     0.014 A 
HETATM    4  C   UNL     1      43.594 -19.122   2.591  1.00  0.00    -0.023 A 
HETATM    5  C   UNL     1      42.790 -18.511   3.560  1.00  0.00     0.014 A 
HETATM    6  C   UNL     1      42.341 -17.196   3.390  1.00  0.00     0.030 A 
ENDROOT
BRANCH   1   7
HETATM    7  N   UNL     1      42.241 -15.133   2.177  1.00  0.00    -0.303 N 
HETATM    8  C   UNL     1      42.842 -14.002   2.655  1.00  0.00     0.365 C 
HETATM    9  O   UNL     1      43.931 -13.905   3.198  1.00  0.00    -0.238 OA
HETATM   10  H   UNL     1      41.336 -14.960   1.764  1.00  0.00     0.171 HD
BRANCH   8  11
HETATM   11  O   UNL     1      41.992 -12.963   2.450  1.00  0.00    -0.299 OA
BRANCH  11  12
HETATM   12  C   UNL     1      40.839 -12.912   3.301  1.00  0.00     0.219 C 
BRANCH  12  13
HETATM   13  C   UNL     1      39.595 -12.805   2.458  1.00  0.00    -0.034 A 
HETATM   14  C   UNL     1      39.125 -13.908   1.732  1.00  0.00     0.009 A 
HETATM   15  C   UNL     1      37.968 -13.804   0.958  1.00  0.00     0.001 A 
HETATM   16  C   UNL     1      37.277 -12.595   0.896  1.00  0.00     0.000 A 
HETATM   17  C   UNL     1      37.746 -11.487   1.601  1.00  0.00     0.001 A 
HETATM   18  C   UNL     1      38.902 -11.590   2.375  1.00  0.00     0.009 A 
ENDBRANCH  12  13
ENDBRANCH  11  12
ENDBRANCH   8  11
ENDBRANCH   1   7
BRANCH   4  19
HETATM   19  C   UNL     1      44.080 -20.476   2.790  1.00  0.00     0.010 A 
HETATM   20  C   UNL     1      44.114 -21.585   1.911  1.00  0.00     0.152 A 
HETATM   21  N   UNL     1      44.650 -22.674   2.468  1.00  0.00    -0.187 NA
HETATM   22  N   UNL     1      44.961 -22.268   3.709  1.00  0.00    -0.289 N 
HETATM   23  H   UNL     1      45.391 -22.937   4.340  1.00  0.00     0.188 HD
HETATM   24  C   UNL     1      44.643 -20.963   3.951  1.00  0.00     0.123 A 
ENDBRANCH   4  19
TORSDOF 5
ENDMDL
MODEL 10
REMARK VINA RESULT:      -7.1      1.693      2.818
REMARK  5 active torsions:
REMARK  status: ('A' for Active; 'I' for Inactive)
REMARK       I    between atoms: C_2  and  N_3 
REMARK    1  A    between atoms: C_2  and  O_16 
REMARK    2  A    between atoms: N_3  and  C_4 
REMARK    3  A    between atoms: C_7  and  C_10 
REMARK    4  A    between atoms: O_16  and  C_17 
REMARK    5  A    between atoms: C_17  and  C_18 
ROOT
HETATM    1  C   UNL     1      43.722 -13.601   6.972  1.00  0.00     0.036 A 
HETATM    2  C   UNL     1      44.449 -14.739   7.317  1.00  0.00     0.030 A 
HETATM    3  C   UNL     1      44.361 -15.903   6.542  1.00  0.00     0.014 A 
HETATM    4  C   UNL     1      43.542 -15.951   5.407  1.00  0.00    -0.023 A 
HETATM    5  C   UNL     1      42.825 -14.803   5.056  1.00  0.00     0.014 A 
HETATM    6  C   UNL     1      42.917 -13.638   5.828  1.00  0.00     0.030 A 
ENDROOT
BRANCH   1   7
HETATM    7  N   UNL     1      43.727 -12.410   7.718  1.00  0.00    -0.303 N 
HETATM    8  C   UNL     1      44.489 -12.093   8.807  1.00  0.00     0.365 C 
HETATM    9  O   UNL     1      45.369 -12.762   9.325  1.00  0.00    -0.238 OA
HETATM   10  H   UNL     1      43.061 -11.691   7.473  1.00  0.00     0.171 HD
BRANCH   8  11
HETATM   11  O   UNL     1      44.078 -10.881   9.262  1.00  0.00    -0.299 OA
BRANCH  11  12
HETATM   12  C   UNL     1      42.698 -10.783   9.638  1.00  0.00     0.219 C 
BRANCH  12  13
HETATM   13  C   UNL     1      42.595 -10.608  11.131  1.00  0.00    -0.034 A 
HETATM   14  C   UNL     1      41.486 -11.099  11.834  1.00  0.00     0.009 A 
HETATM   15  C   UNL     1      41.400 -10.940  13.218  1.00  0.00     0.001 A 
HETATM   16  C   UNL     1      42.415 -10.281  13.909  1.00  0.00     0.000 A 
HETATM   17  C   UNL     1      43.514  -9.775  13.217  1.00  0.00     0.001 A 
HETATM   18  C   UNL     1      43.602  -9.933  11.833  1.00  0.00     0.009 A 
ENDBRANCH  12  13
ENDBRANCH  11  12
ENDBRANCH   8  11
ENDBRANCH   1   7
BRANCH   4  19
HETATM   19  C   UNL     1      43.417 -17.164   4.618  1.00  0.00     0.010 A 
HETATM   20  C   UNL     1      44.000 -18.443   4.789  1.00  0.00     0.152 A 
HETATM   21  N   UNL     1      43.632 -19.312   3.843  1.00  0.00    -0.187 NA
HETATM   22  N   UNL     1      42.811 -18.593   3.061  1.00  0.00    -0.289 N 
HETATM   23  H   UNL     1      42.395 -19.048   2.255  1.00  0.00     0.188 HD
HETATM   24  C   UNL     1      42.648 -17.305   3.482  1.00  0.00     0.123 A 
ENDBRANCH   4  19
TORSDOF 5
ENDMDL
