MODEL 1
REMARK VINA RESULT:     -10.3      0.000      0.000
REMARK  5 active torsions:
REMARK  status: ('A' for Active; 'I' for Inactive)
REMARK    1  A    between atoms: C_5  and  N_6 
REMARK       I    between atoms: N_6  and  C_7 
REMARK       I    between atoms: C_7  and  N_8 
REMARK    2  A    between atoms: N_8  and  C_9 
REMARK    3  A    between atoms: C_11  and  C_12 
REMARK       I    between atoms: C_12  and  N_13 
REMARK    4  A    between atoms: N_13  and  C_14 
REMARK    5  A    between atoms: C_14  and  C_15 
ROOT
HETATM    1  C   UNL     1      44.611 -14.284   7.146  1.00  0.00     0.175 A 
HETATM    2  S   UNL     1      43.754 -14.033   5.708  1.00  0.00    -0.044 SA
HETATM    3  C   UNL     1      42.837 -15.454   6.000  1.00  0.00     0.100 A 
HETATM    4  C   UNL     1      43.344 -16.078   7.139  1.00  0.00     0.056 A 
HETATM    5  C   UNL     1      42.901 -17.382   7.712  1.00  0.00     0.072 C 
HETATM    6  N   UNL     1      44.354 -15.385   7.802  1.00  0.00    -0.228 NA
ENDROOT
BRANCH   1   7
HETATM    7  N   UNL     1      45.484 -13.290   7.461  1.00  0.00    -0.287 N 
HETATM    8  C   UNL     1      45.361 -12.383   8.471  1.00  0.00     0.326 C 
HETATM    9  N   UNL     1      44.296 -12.530   9.318  1.00  0.00    -0.309 N 
HETATM   10  O   UNL     1      46.230 -11.514   8.546  1.00  0.00    -0.247 OA
HETATM   11  H   UNL     1      43.724 -13.355   9.151  1.00  0.00     0.170 HD
HETATM   12  H   UNL     1      46.291 -13.163   6.872  1.00  0.00     0.172 HD
BRANCH   9  13
HETATM   13  C   UNL     1      43.946 -11.723  10.417  1.00  0.00     0.036 A 
HETATM   14  C   UNL     1      43.881 -10.329  10.367  1.00  0.00     0.030 A 
HETATM   15  C   UNL     1      43.528  -9.593  11.503  1.00  0.00     0.009 A 
HETATM   16  C   UNL     1      43.237 -10.236  12.709  1.00  0.00    -0.062 A 
HETATM   17  C   UNL     1      42.894  -9.428  13.925  1.00  0.00     0.048 C 
HETATM   18  C   UNL     1      43.303 -11.632  12.761  1.00  0.00     0.009 A 
HETATM   19  C   UNL     1      43.644 -12.368  11.620  1.00  0.00     0.030 A 
ENDBRANCH   9  13
ENDBRANCH   1   7
BRANCH   3  20
HETATM   20  C   UNL     1      41.800 -15.958   5.113  1.00  0.00     0.260 C 
HETATM   21  N   UNL     1      42.082 -16.640   3.951  1.00  0.00    -0.352 N 
HETATM   22  H   UNL     1      41.237 -16.963   3.491  1.00  0.00     0.163 HD
HETATM   23  O   UNL     1      40.604 -15.769   5.344  1.00  0.00    -0.267 OA
BRANCH  21  24
HETATM   24  C   UNL     1      43.349 -16.954   3.324  1.00  0.00     0.167 C 
BRANCH  24  25
HETATM   25  C   UNL     1      43.697 -18.414   3.253  1.00  0.00     0.037 A 
HETATM   26  C   UNL     1      43.288 -19.144   2.131  1.00  0.00     0.127 A 
HETATM   27  F   UNL     1      42.555 -18.543   1.182  1.00  0.00    -0.205 F 
HETATM   28  C   UNL     1      43.632 -20.484   1.955  1.00  0.00     0.043 A 
HETATM   29  C   UNL     1      44.415 -21.125   2.911  1.00  0.00     0.006 A 
HETATM   30  C   UNL     1      44.847 -20.417   4.030  1.00  0.00     0.043 A 
HETATM   31  C   UNL     1      44.494 -19.076   4.186  1.00  0.00     0.127 A 
HETATM   32  F   UNL     1      44.948 -18.424   5.267  1.00  0.00    -0.205 F 
ENDBRANCH  24  25
ENDBRANCH  21  24
ENDBRANCH   3  20
TORSDOF 5
ENDMDL
MODEL 2
REMARK VINA RESULT:     -10.2      0.083      1.530
REMARK  5 active torsions:
REMARK  status: ('A' for Active; 'I' for Inactive)
REMARK    1  A    between atoms: C_5  and  N_6 
REMARK       I    between atoms: N_6  and  C_7 
REMARK       I    between atoms: C_7  and  N_8 
REMARK    2  A    between atoms: N_8  and  C_9 
REMARK    3  A    between atoms: C_11  and  C_12 
REMARK       I    between atoms: C_12  and  N_13 
REMARK    4  A    between atoms: N_13  and  C_14 
REMARK    5  A    between atoms: C_14  and  C_15 
ROOT
HETATM    1  C   UNL     1      44.618 -14.291   7.147  1.00  0.00     0.175 A 
HETATM    2  S   UNL     1      43.788 -14.076   5.687  1.00  0.00    -0.044 SA
HETATM    3  C   UNL     1      42.873 -15.495   5.993  1.00  0.00     0.100 A 
HETATM    4  C   UNL     1      43.360 -16.091   7.156  1.00  0.00     0.056 A 
HETATM    5  C   UNL     1      42.912 -17.384   7.749  1.00  0.00     0.072 C 
HETATM    6  N   UNL     1      44.353 -15.378   7.823  1.00  0.00    -0.228 NA
ENDROOT
BRANCH   1   7
HETATM    7  N   UNL     1      45.479 -13.285   7.458  1.00  0.00    -0.287 N 
HETATM    8  C   UNL     1      45.350 -12.379   8.468  1.00  0.00     0.326 C 
HETATM    9  N   UNL     1      44.293 -12.540   9.321  1.00  0.00    -0.309 N 
HETATM   10  O   UNL     1      46.209 -11.500   8.538  1.00  0.00    -0.247 OA
HETATM   11  H   UNL     1      43.730 -13.372   9.158  1.00  0.00     0.170 HD
HETATM   12  H   UNL     1      46.282 -13.148   6.864  1.00  0.00     0.172 HD
BRANCH   9  13
HETATM   13  C   UNL     1      43.938 -11.737  10.422  1.00  0.00     0.036 A 
HETATM   14  C   UNL     1      43.834 -10.346  10.366  1.00  0.00     0.030 A 
HETATM   15  C   UNL     1      43.479  -9.614  11.504  1.00  0.00     0.009 A 
HETATM   16  C   UNL     1      43.226 -10.259  12.718  1.00  0.00    -0.062 A 
HETATM   17  C   UNL     1      42.880  -9.454  13.935  1.00  0.00     0.048 C 
HETATM   18  C   UNL     1      43.331 -11.651  12.776  1.00  0.00     0.009 A 
HETATM   19  C   UNL     1      43.674 -12.384  11.633  1.00  0.00     0.030 A 
ENDBRANCH   9  13
ENDBRANCH   1   7
BRANCH   3  20
HETATM   20  C   UNL     1      41.856 -16.024   5.097  1.00  0.00     0.260 C 
HETATM   21  N   UNL     1      42.165 -16.690   3.934  1.00  0.00    -0.352 N 
HETATM   22  H   UNL     1      41.332 -17.035   3.466  1.00  0.00     0.163 HD
HETATM   23  O   UNL     1      40.653 -15.872   5.322  1.00  0.00    -0.267 OA
BRANCH  21  24
HETATM   24  C   UNL     1      43.444 -16.963   3.312  1.00  0.00     0.167 C 
BRANCH  24  25
HETATM   25  C   UNL     1      43.776 -18.415   3.112  1.00  0.00     0.037 A 
HETATM   26  C   UNL     1      44.455 -19.091   4.133  1.00  0.00     0.127 A 
HETATM   27  F   UNL     1      44.838 -18.421   5.229  1.00  0.00    -0.205 F 
HETATM   28  C   UNL     1      44.736 -20.455   4.056  1.00  0.00     0.043 A 
HETATM   29  C   UNL     1      44.326 -21.181   2.942  1.00  0.00     0.006 A 
HETATM   30  C   UNL     1      43.635 -20.535   1.919  1.00  0.00     0.043 A 
HETATM   31  C   UNL     1      43.361 -19.170   2.016  1.00  0.00     0.127 A 
HETATM   32  F   UNL     1      42.677 -18.590   1.019  1.00  0.00    -0.205 F 
ENDBRANCH  24  25
ENDBRANCH  21  24
ENDBRANCH   3  20
TORSDOF 5
ENDMDL
MODEL 3
REMARK VINA RESULT:      -9.2      4.348      7.497
REMARK  5 active torsions:
REMARK  status: ('A' for Active; 'I' for Inactive)
REMARK    1  A    between atoms: C_5  and  N_6 
REMARK       I    between atoms: N_6  and  C_7 
REMARK       I    between atoms: C_7  and  N_8 
REMARK    2  A    between atoms: N_8  and  C_9 
REMARK    3  A    between atoms: C_11  and  C_12 
REMARK       I    between atoms: C_12  and  N_13 
REMARK    4  A    between atoms: N_13  and  C_14 
REMARK    5  A    between atoms: C_14  and  C_15 
ROOT
HETATM    1  C   UNL     1      41.284 -15.897   4.850  1.00  0.00     0.175 A 
HETATM    2  S   UNL     1      41.411 -17.553   5.179  1.00  0.00    -0.044 SA
HETATM    3  C   UNL     1      42.800 -17.260   6.143  1.00  0.00     0.100 A 
HETATM    4  C   UNL     1      43.127 -15.907   6.046  1.00  0.00     0.056 A 
HETATM    5  C   UNL     1      44.306 -15.230   6.656  1.00  0.00     0.072 C 
HETATM    6  N   UNL     1      42.234 -15.128   5.313  1.00  0.00    -0.228 NA
ENDROOT
BRANCH   1   7
HETATM    7  N   UNL     1      40.183 -15.549   4.131  1.00  0.00    -0.287 N 
HETATM    8  C   UNL     1      40.160 -14.941   2.912  1.00  0.00     0.326 C 
HETATM    9  N   UNL     1      41.363 -14.731   2.295  1.00  0.00    -0.309 N 
HETATM   10  O   UNL     1      39.053 -14.646   2.460  1.00  0.00    -0.247 OA
HETATM   11  H   UNL     1      42.170 -15.114   2.782  1.00  0.00     0.170 HD
HETATM   12  H   UNL     1      39.277 -15.707   4.545  1.00  0.00     0.172 HD
BRANCH   9  13
HETATM   13  C   UNL     1      41.602 -14.116   1.051  1.00  0.00     0.036 A 
HETATM   14  C   UNL     1      41.997 -12.785   0.907  1.00  0.00     0.030 A 
HETATM   15  C   UNL     1      42.213 -12.241  -0.365  1.00  0.00     0.009 A 
HETATM   16  C   UNL     1      42.035 -13.018  -1.513  1.00  0.00    -0.062 A 
HETATM   17  C   UNL     1      42.238 -12.408  -2.867  1.00  0.00     0.048 C 
HETATM   18  C   UNL     1      41.637 -14.350  -1.370  1.00  0.00     0.009 A 
HETATM   19  C   UNL     1      41.433 -14.896  -0.097  1.00  0.00     0.030 A 
ENDBRANCH   9  13
ENDBRANCH   1   7
BRANCH   3  20
HETATM   20  C   UNL     1      43.558 -18.297   6.825  1.00  0.00     0.260 C 
HETATM   21  N   UNL     1      44.594 -18.977   6.227  1.00  0.00    -0.352 N 
HETATM   22  H   UNL     1      45.041 -19.622   6.870  1.00  0.00     0.163 HD
HETATM   23  O   UNL     1      43.287 -18.645   7.977  1.00  0.00    -0.267 OA
BRANCH  21  24
HETATM   24  C   UNL     1      45.117 -18.905   4.878  1.00  0.00     0.167 C 
BRANCH  24  25
HETATM   25  C   UNL     1      44.588 -19.932   3.918  1.00  0.00     0.037 A 
HETATM   26  C   UNL     1      43.884 -19.491   2.790  1.00  0.00     0.127 A 
HETATM   27  F   UNL     1      43.654 -18.181   2.625  1.00  0.00    -0.205 F 
HETATM   28  C   UNL     1      43.423 -20.375   1.815  1.00  0.00     0.043 A 
HETATM   29  C   UNL     1      43.673 -21.738   1.947  1.00  0.00     0.006 A 
HETATM   30  C   UNL     1      44.384 -22.201   3.052  1.00  0.00     0.043 A 
HETATM   31  C   UNL     1      44.839 -21.299   4.016  1.00  0.00     0.127 A 
HETATM   32  F   UNL     1      45.537 -21.783   5.054  1.00  0.00    -0.205 F 
ENDBRANCH  24  25
ENDBRANCH  21  24
ENDBRANCH   3  20
TORSDOF 5
ENDMDL
MODEL 4
REMARK VINA RESULT:      -9.1      1.843      2.504
REMARK  5 active torsions:
REMARK  status: ('A' for Active; 'I' for Inactive)
REMARK    1  A    between atoms: C_5  and  N_6 
REMARK       I    between atoms: N_6  and  C_7 
REMARK       I    between atoms: C_7  and  N_8 
REMARK    2  A    between atoms: N_8  and  C_9 
REMARK    3  A    between atoms: C_11  and  C_12 
REMARK       I    between atoms: C_12  and  N_13 
REMARK    4  A    between atoms: N_13  and  C_14 
REMARK    5  A    between atoms: C_14  and  C_15 
ROOT
HETATM    1  C   UNL     1      42.319 -13.062   6.222  1.00  0.00     0.175 A 
HETATM    2  S   UNL     1      40.958 -13.950   5.744  1.00  0.00    -0.044 SA
HETATM    3  C   UNL     1      41.804 -15.413   6.039  1.00  0.00     0.100 A 
HETATM    4  C   UNL     1      43.120 -15.101   6.381  1.00  0.00     0.056 A 
HETATM    5  C   UNL     1      44.225 -16.067   6.643  1.00  0.00     0.072 C 
HETATM    6  N   UNL     1      43.399 -13.742   6.503  1.00  0.00    -0.228 NA
ENDROOT
BRANCH   1   7
HETATM    7  N   UNL     1      42.125 -11.716   6.265  1.00  0.00    -0.287 N 
HETATM    8  C   UNL     1      42.174 -10.917   7.368  1.00  0.00     0.326 C 
HETATM    9  N   UNL     1      42.540 -11.503   8.549  1.00  0.00    -0.309 N 
HETATM   10  O   UNL     1      41.899  -9.728   7.204  1.00  0.00    -0.247 OA
HETATM   11  H   UNL     1      42.809 -12.481   8.480  1.00  0.00     0.170 HD
HETATM   12  H   UNL     1      41.874 -11.246   5.410  1.00  0.00     0.172 HD
BRANCH   9  13
HETATM   13  C   UNL     1      42.649 -10.900   9.817  1.00  0.00     0.036 A 
HETATM   14  C   UNL     1      41.562 -10.400  10.535  1.00  0.00     0.030 A 
HETATM   15  C   UNL     1      41.749  -9.810  11.790  1.00  0.00     0.009 A 
HETATM   16  C   UNL     1      43.027  -9.707  12.347  1.00  0.00    -0.062 A 
HETATM   17  C   UNL     1      43.212  -9.041  13.677  1.00  0.00     0.048 C 
HETATM   18  C   UNL     1      44.117 -10.205  11.628  1.00  0.00     0.009 A 
HETATM   19  C   UNL     1      43.927 -10.806  10.378  1.00  0.00     0.030 A 
ENDBRANCH   9  13
ENDBRANCH   1   7
BRANCH   3  20
HETATM   20  C   UNL     1      41.245 -16.740   5.829  1.00  0.00     0.260 C 
HETATM   21  N   UNL     1      41.730 -17.609   4.879  1.00  0.00    -0.352 N 
HETATM   22  H   UNL     1      41.256 -18.506   4.914  1.00  0.00     0.163 HD
HETATM   23  O   UNL     1      40.277 -17.144   6.478  1.00  0.00    -0.267 OA
BRANCH  21  24
HETATM   24  C   UNL     1      42.773 -17.440   3.889  1.00  0.00     0.167 C 
BRANCH  24  25
HETATM   25  C   UNL     1      43.377 -18.709   3.354  1.00  0.00     0.037 A 
HETATM   26  C   UNL     1      44.349 -19.360   4.122  1.00  0.00     0.127 A 
HETATM   27  F   UNL     1      44.754 -18.814   5.278  1.00  0.00    -0.205 F 
HETATM   28  C   UNL     1      44.906 -20.578   3.732  1.00  0.00     0.043 A 
HETATM   29  C   UNL     1      44.483 -21.181   2.550  1.00  0.00     0.006 A 
HETATM   30  C   UNL     1      43.506 -20.560   1.775  1.00  0.00     0.043 A 
HETATM   31  C   UNL     1      42.960 -19.342   2.185  1.00  0.00     0.127 A 
HETATM   32  F   UNL     1      42.007 -18.788   1.421  1.00  0.00    -0.205 F 
ENDBRANCH  24  25
ENDBRANCH  21  24
ENDBRANCH   3  20
TORSDOF 5
ENDMDL
MODEL 5
REMARK VINA RESULT:      -9.0      4.624      8.534
REMARK  5 active torsions:
REMARK  status: ('A' for Active; 'I' for Inactive)
REMARK    1  A    between atoms: C_5  and  N_6 
REMARK       I    between atoms: N_6  and  C_7 
REMARK       I    between atoms: C_7  and  N_8 
REMARK    2  A    between atoms: N_8  and  C_9 
REMARK    3  A    between atoms: C_11  and  C_12 
REMARK       I    between atoms: C_12  and  N_13 
REMARK    4  A    between atoms: N_13  and  C_14 
REMARK    5  A    between atoms: C_14  and  C_15 
ROOT
HETATM    1  C   UNL     1      42.174 -13.190   3.147  1.00  0.00     0.175 A 
HETATM    2  S   UNL     1      43.501 -14.025   3.788  1.00  0.00    -0.044 SA
HETATM    3  C   UNL     1      42.482 -14.754   4.961  1.00  0.00     0.100 A 
HETATM    4  C   UNL     1      41.204 -14.208   4.835  1.00  0.00     0.056 A 
HETATM    5  C   UNL     1      40.025 -14.493   5.702  1.00  0.00     0.072 C 
HETATM    6  N   UNL     1      41.034 -13.321   3.774  1.00  0.00    -0.228 NA
ENDROOT
BRANCH   1   7
HETATM    7  N   UNL     1      42.451 -12.468   2.029  1.00  0.00    -0.287 N 
HETATM    8  C   UNL     1      42.012 -12.719   0.763  1.00  0.00     0.326 C 
HETATM    9  N   UNL     1      41.129 -13.751   0.601  1.00  0.00    -0.309 N 
HETATM   10  O   UNL     1      42.436 -11.982  -0.128  1.00  0.00    -0.247 OA
HETATM   11  H   UNL     1      40.827 -14.200   1.462  1.00  0.00     0.170 HD
HETATM   12  H   UNL     1      43.083 -11.687   2.112  1.00  0.00     0.172 HD
BRANCH   9  13
HETATM   13  C   UNL     1      40.547 -14.212  -0.596  1.00  0.00     0.036 A 
HETATM   14  C   UNL     1      39.304 -13.789  -1.069  1.00  0.00     0.030 A 
HETATM   15  C   UNL     1      38.788 -14.295  -2.267  1.00  0.00     0.009 A 
HETATM   16  C   UNL     1      39.506 -15.236  -3.011  1.00  0.00    -0.062 A 
HETATM   17  C   UNL     1      38.922 -15.792  -4.275  1.00  0.00     0.048 C 
HETATM   18  C   UNL     1      40.750 -15.663  -2.539  1.00  0.00     0.009 A 
HETATM   19  C   UNL     1      41.270 -15.146  -1.346  1.00  0.00     0.030 A 
ENDBRANCH   9  13
ENDBRANCH   1   7
BRANCH   3  20
HETATM   20  C   UNL     1      42.940 -15.685   5.980  1.00  0.00     0.260 C 
HETATM   21  N   UNL     1      42.674 -17.034   5.929  1.00  0.00    -0.352 N 
HETATM   22  H   UNL     1      43.119 -17.534   6.692  1.00  0.00     0.163 HD
HETATM   23  O   UNL     1      43.569 -15.302   6.969  1.00  0.00    -0.267 OA
BRANCH  21  24
HETATM   24  C   UNL     1      41.894 -17.808   4.985  1.00  0.00     0.167 C 
BRANCH  24  25
HETATM   25  C   UNL     1      42.459 -17.902   3.595  1.00  0.00     0.037 A 
HETATM   26  C   UNL     1      41.755 -17.297   2.546  1.00  0.00     0.127 A 
HETATM   27  F   UNL     1      40.580 -16.702   2.796  1.00  0.00    -0.205 F 
HETATM   28  C   UNL     1      42.247 -17.277   1.242  1.00  0.00     0.043 A 
HETATM   29  C   UNL     1      43.478 -17.863   0.960  1.00  0.00     0.006 A 
HETATM   30  C   UNL     1      44.205 -18.459   1.989  1.00  0.00     0.043 A 
HETATM   31  C   UNL     1      43.696 -18.466   3.289  1.00  0.00     0.127 A 
HETATM   32  F   UNL     1      44.436 -19.031   4.254  1.00  0.00    -0.205 F 
ENDBRANCH  24  25
ENDBRANCH  21  24
ENDBRANCH   3  20
TORSDOF 5
ENDMDL
MODEL 6
REMARK VINA RESULT:      -9.0      4.322      8.036
REMARK  5 active torsions:
REMARK  status: ('A' for Active; 'I' for Inactive)
REMARK    1  A    between atoms: C_5  and  N_6 
REMARK       I    between atoms: N_6  and  C_7 
REMARK       I    between atoms: C_7  and  N_8 
REMARK    2  A    between atoms: N_8  and  C_9 
REMARK    3  A    between atoms: C_11  and  C_12 
REMARK       I    between atoms: C_12  and  N_13 
REMARK    4  A    between atoms: N_13  and  C_14 
REMARK    5  A    between atoms: C_14  and  C_15 
ROOT
HETATM    1  C   UNL     1      43.015 -15.292   6.190  1.00  0.00     0.175 A 
HETATM    2  S   UNL     1      43.655 -13.882   5.506  1.00  0.00    -0.044 SA
HETATM    3  C   UNL     1      42.071 -13.257   5.300  1.00  0.00     0.100 A 
HETATM    4  C   UNL     1      41.156 -14.241   5.677  1.00  0.00     0.056 A 
HETATM    5  C   UNL     1      39.671 -14.157   5.585  1.00  0.00     0.072 C 
HETATM    6  N   UNL     1      41.712 -15.403   6.207  1.00  0.00    -0.228 NA
ENDROOT
BRANCH   1   7
HETATM    7  N   UNL     1      43.948 -16.164   6.658  1.00  0.00    -0.287 N 
HETATM    8  C   UNL     1      44.315 -17.351   6.096  1.00  0.00     0.326 C 
HETATM    9  N   UNL     1      43.756 -17.670   4.889  1.00  0.00    -0.309 N 
HETATM   10  O   UNL     1      45.133 -18.030   6.718  1.00  0.00    -0.247 OA
HETATM   11  H   UNL     1      43.160 -16.950   4.486  1.00  0.00     0.170 HD
HETATM   12  H   UNL     1      44.397 -15.953   7.536  1.00  0.00     0.172 HD
BRANCH   9  13
HETATM   13  C   UNL     1      43.960 -18.832   4.121  1.00  0.00     0.036 A 
HETATM   14  C   UNL     1      44.552 -19.995   4.615  1.00  0.00     0.030 A 
HETATM   15  C   UNL     1      44.725 -21.112   3.789  1.00  0.00     0.009 A 
HETATM   16  C   UNL     1      44.312 -21.083   2.454  1.00  0.00    -0.062 A 
HETATM   17  C   UNL     1      44.537 -22.277   1.576  1.00  0.00     0.048 C 
HETATM   18  C   UNL     1      43.721 -19.918   1.957  1.00  0.00     0.009 A 
HETATM   19  C   UNL     1      43.537 -18.806   2.788  1.00  0.00     0.030 A 
ENDBRANCH   9  13
ENDBRANCH   1   7
BRANCH   3  20
HETATM   20  C   UNL     1      41.770 -11.964   4.706  1.00  0.00     0.260 C 
HETATM   21  N   UNL     1      41.774 -11.751   3.346  1.00  0.00    -0.352 N 
HETATM   22  H   UNL     1      41.487 -10.806   3.113  1.00  0.00     0.163 HD
HETATM   23  O   UNL     1      41.526 -10.974   5.400  1.00  0.00    -0.267 OA
BRANCH  21  24
HETATM   24  C   UNL     1      42.105 -12.640   2.252  1.00  0.00     0.167 C 
BRANCH  24  25
HETATM   25  C   UNL     1      41.213 -13.839   2.092  1.00  0.00     0.037 A 
HETATM   26  C   UNL     1      41.777 -15.114   2.223  1.00  0.00     0.127 A 
HETATM   27  F   UNL     1      43.096 -15.234   2.430  1.00  0.00    -0.205 F 
HETATM   28  C   UNL     1      41.005 -16.273   2.160  1.00  0.00     0.043 A 
HETATM   29  C   UNL     1      39.629 -16.175   1.973  1.00  0.00     0.006 A 
HETATM   30  C   UNL     1      39.041 -14.918   1.855  1.00  0.00     0.043 A 
HETATM   31  C   UNL     1      39.831 -13.769   1.923  1.00  0.00     0.127 A 
HETATM   32  F   UNL     1      39.223 -12.577   1.825  1.00  0.00    -0.205 F 
ENDBRANCH  24  25
ENDBRANCH  21  24
ENDBRANCH   3  20
TORSDOF 5
ENDMDL
MODEL 7
REMARK VINA RESULT:      -8.8      5.723      9.059
REMARK  5 active torsions:
REMARK  status: ('A' for Active; 'I' for Inactive)
REMARK    1  A    between atoms: C_5  and  N_6 
REMARK       I    between atoms: N_6  and  C_7 
REMARK       I    between atoms: C_7  and  N_8 
REMARK    2  A    between atoms: N_8  and  C_9 
REMARK    3  A    between atoms: C_11  and  C_12 
REMARK       I    between atoms: C_12  and  N_13 
REMARK    4  A    between atoms: N_13  and  C_14 
REMARK    5  A    between atoms: C_14  and  C_15 
ROOT
HETATM    1  C   UNL     1      41.343 -15.992   0.693  1.00  0.00     0.175 A 
HETATM    2  S   UNL     1      40.911 -17.319   1.653  1.00  0.00    -0.044 SA
HETATM    3  C   UNL     1      41.735 -16.626   2.989  1.00  0.00     0.100 A 
HETATM    4  C   UNL     1      42.379 -15.467   2.557  1.00  0.00     0.056 A 
HETATM    5  C   UNL     1      43.275 -14.591   3.367  1.00  0.00     0.072 C 
HETATM    6  N   UNL     1      42.130 -15.101   1.237  1.00  0.00    -0.228 NA
ENDROOT
BRANCH   1   7
HETATM    7  N   UNL     1      40.807 -16.004  -0.556  1.00  0.00    -0.287 N 
HETATM    8  C   UNL     1      40.861 -15.003  -1.481  1.00  0.00     0.326 C 
HETATM    9  N   UNL     1      41.605 -13.900  -1.163  1.00  0.00    -0.309 N 
HETATM   10  O   UNL     1      40.248 -15.186  -2.533  1.00  0.00    -0.247 OA
HETATM   11  H   UNL     1      42.109 -13.958  -0.281  1.00  0.00     0.170 HD
HETATM   12  H   UNL     1      40.268 -16.810  -0.834  1.00  0.00     0.172 HD
BRANCH   9  13
HETATM   13  C   UNL     1      41.804 -12.739  -1.935  1.00  0.00     0.036 A 
HETATM   14  C   UNL     1      42.247 -12.753  -3.259  1.00  0.00     0.030 A 
HETATM   15  C   UNL     1      42.425 -11.557  -3.962  1.00  0.00     0.009 A 
HETATM   16  C   UNL     1      42.164 -10.326  -3.354  1.00  0.00    -0.062 A 
HETATM   17  C   UNL     1      42.393  -9.053  -4.113  1.00  0.00     0.048 C 
HETATM   18  C   UNL     1      41.722 -10.309  -2.028  1.00  0.00     0.009 A 
HETATM   19  C   UNL     1      41.533 -11.508  -1.329  1.00  0.00     0.030 A 
ENDBRANCH   9  13
ENDBRANCH   1   7
BRANCH   3  20
HETATM   20  C   UNL     1      41.830 -17.243   4.303  1.00  0.00     0.260 C 
HETATM   21  N   UNL     1      42.941 -17.941   4.718  1.00  0.00    -0.352 N 
HETATM   22  H   UNL     1      42.852 -18.251   5.680  1.00  0.00     0.163 HD
HETATM   23  O   UNL     1      40.897 -17.198   5.108  1.00  0.00    -0.267 OA
BRANCH  21  24
HETATM   24  C   UNL     1      44.164 -18.275   4.016  1.00  0.00     0.167 C 
BRANCH  24  25
HETATM   25  C   UNL     1      44.312 -19.715   3.614  1.00  0.00     0.037 A 
HETATM   26  C   UNL     1      44.668 -20.649   4.594  1.00  0.00     0.127 A 
HETATM   27  F   UNL     1      44.919 -20.233   5.843  1.00  0.00    -0.205 F 
HETATM   28  C   UNL     1      44.756 -22.013   4.318  1.00  0.00     0.043 A 
HETATM   29  C   UNL     1      44.473 -22.476   3.036  1.00  0.00     0.006 A 
HETATM   30  C   UNL     1      44.102 -21.569   2.046  1.00  0.00     0.043 A 
HETATM   31  C   UNL     1      44.018 -20.207   2.343  1.00  0.00     0.127 A 
HETATM   32  F   UNL     1      43.637 -19.370   1.367  1.00  0.00    -0.205 F 
ENDBRANCH  24  25
ENDBRANCH  21  24
ENDBRANCH   3  20
TORSDOF 5
ENDMDL
MODEL 8
REMARK VINA RESULT:      -8.7      2.478      3.133
REMARK  5 active torsions:
REMARK  status: ('A' for Active; 'I' for Inactive)
REMARK    1  A    between atoms: C_5  and  N_6 
REMARK       I    between atoms: N_6  and  C_7 
REMARK       I    between atoms: C_7  and  N_8 
REMARK    2  A    between atoms: N_8  and  C_9 
REMARK    3  A    between atoms: C_11  and  C_12 
REMARK       I    between atoms: C_12  and  N_13 
REMARK    4  A    between atoms: N_13  and  C_14 
REMARK    5  A    between atoms: C_14  and  C_15 
ROOT
HETATM    1  C   UNL     1      41.242 -12.346   5.146  1.00  0.00     0.175 A 
HETATM    2  S   UNL     1      41.319 -12.768   3.508  1.00  0.00    -0.044 SA
HETATM    3  C   UNL     1      40.926 -14.391   3.903  1.00  0.00     0.100 A 
HETATM    4  C   UNL     1      40.873 -14.507   5.292  1.00  0.00     0.056 A 
HETATM    5  C   UNL     1      40.642 -15.755   6.073  1.00  0.00     0.072 C 
HETATM    6  N   UNL     1      41.038 -13.317   5.998  1.00  0.00    -0.228 NA
ENDROOT
BRANCH   1   7
HETATM    7  N   UNL     1      41.400 -11.018   5.393  1.00  0.00    -0.287 N 
HETATM    8  C   UNL     1      41.774 -10.443   6.571  1.00  0.00     0.326 C 
HETATM    9  N   UNL     1      42.115 -11.282   7.596  1.00  0.00    -0.309 N 
HETATM   10  O   UNL     1      41.791  -9.212   6.606  1.00  0.00    -0.247 OA
HETATM   11  H   UNL     1      42.120 -12.272   7.360  1.00  0.00     0.170 HD
HETATM   12  H   UNL     1      41.178 -10.369   4.654  1.00  0.00     0.172 HD
BRANCH   9  13
HETATM   13  C   UNL     1      42.518 -10.936   8.900  1.00  0.00     0.036 A 
HETATM   14  C   UNL     1      43.838 -10.998   9.347  1.00  0.00     0.030 A 
HETATM   15  C   UNL     1      44.162 -10.641  10.661  1.00  0.00     0.009 A 
HETATM   16  C   UNL     1      43.171 -10.218  11.550  1.00  0.00    -0.062 A 
HETATM   17  C   UNL     1      43.532  -9.872  12.964  1.00  0.00     0.048 C 
HETATM   18  C   UNL     1      41.847 -10.157  11.105  1.00  0.00     0.009 A 
HETATM   19  C   UNL     1      41.526 -10.504   9.787  1.00  0.00     0.030 A 
ENDBRANCH   9  13
ENDBRANCH   1   7
BRANCH   3  20
HETATM   20  C   UNL     1      40.804 -15.465   2.929  1.00  0.00     0.260 C 
HETATM   21  N   UNL     1      41.838 -16.323   2.636  1.00  0.00    -0.352 N 
HETATM   22  H   UNL     1      41.555 -17.042   1.977  1.00  0.00     0.163 HD
HETATM   23  O   UNL     1      39.765 -15.642   2.288  1.00  0.00    -0.267 OA
BRANCH  21  24
HETATM   24  C   UNL     1      43.206 -16.353   3.113  1.00  0.00     0.167 C 
BRANCH  24  25
HETATM   25  C   UNL     1      43.782 -17.719   3.358  1.00  0.00     0.037 A 
HETATM   26  C   UNL     1      44.051 -18.103   4.677  1.00  0.00     0.127 A 
HETATM   27  F   UNL     1      43.842 -17.233   5.675  1.00  0.00    -0.205 F 
HETATM   28  C   UNL     1      44.519 -19.378   4.994  1.00  0.00     0.043 A 
HETATM   29  C   UNL     1      44.718 -20.311   3.980  1.00  0.00     0.006 A 
HETATM   30  C   UNL     1      44.444 -19.958   2.660  1.00  0.00     0.043 A 
HETATM   31  C   UNL     1      43.974 -18.677   2.364  1.00  0.00     0.127 A 
HETATM   32  F   UNL     1      43.703 -18.384   1.084  1.00  0.00    -0.205 F 
ENDBRANCH  24  25
ENDBRANCH  21  24
ENDBRANCH   3  20
TORSDOF 5
ENDMDL
MODEL 9
REMARK VINA RESULT:      -8.5      6.131      9.892
REMARK  5 active torsions:
REMARK  status: ('A' for Active; 'I' for Inactive)
REMARK    1  A    between atoms: C_5  and  N_6 
REMARK       I    between atoms: N_6  and  C_7 
REMARK       I    between atoms: C_7  and  N_8 
REMARK    2  A    between atoms: N_8  and  C_9 
REMARK    3  A    between atoms: C_11  and  C_12 
REMARK       I    between atoms: C_12  and  N_13 
REMARK    4  A    between atoms: N_13  and  C_14 
REMARK    5  A    between atoms: C_14  and  C_15 
ROOT
HETATM    1  C   UNL     1      41.690 -15.157   0.226  1.00  0.00     0.175 A 
HETATM    2  S   UNL     1      42.113 -14.723   1.807  1.00  0.00    -0.044 SA
HETATM    3  C   UNL     1      41.797 -16.325   2.336  1.00  0.00     0.100 A 
HETATM    4  C   UNL     1      41.279 -17.049   1.263  1.00  0.00     0.056 A 
HETATM    5  C   UNL     1      40.791 -18.458   1.292  1.00  0.00     0.072 C 
HETATM    6  N   UNL     1      41.240 -16.372   0.047  1.00  0.00    -0.228 NA
ENDROOT
BRANCH   1   7
HETATM    7  N   UNL     1      41.875 -14.175  -0.696  1.00  0.00    -0.287 N 
HETATM    8  C   UNL     1      40.987 -13.762  -1.644  1.00  0.00     0.326 C 
HETATM    9  N   UNL     1      39.741 -14.328  -1.621  1.00  0.00    -0.309 N 
HETATM   10  O   UNL     1      41.376 -12.900  -2.432  1.00  0.00    -0.247 OA
HETATM   11  H   UNL     1      39.571 -14.966  -0.846  1.00  0.00     0.170 HD
HETATM   12  H   UNL     1      42.774 -13.720  -0.730  1.00  0.00     0.172 HD
BRANCH   9  13
HETATM   13  C   UNL     1      38.663 -14.083  -2.493  1.00  0.00     0.036 A 
HETATM   14  C   UNL     1      37.955 -12.881  -2.534  1.00  0.00     0.030 A 
HETATM   15  C   UNL     1      36.892 -12.712  -3.427  1.00  0.00     0.009 A 
HETATM   16  C   UNL     1      36.516 -13.743  -4.293  1.00  0.00    -0.062 A 
HETATM   17  C   UNL     1      35.352 -13.555  -5.219  1.00  0.00     0.048 C 
HETATM   18  C   UNL     1      37.222 -14.948  -4.252  1.00  0.00     0.009 A 
HETATM   19  C   UNL     1      38.295 -15.112  -3.366  1.00  0.00     0.030 A 
ENDBRANCH   9  13
ENDBRANCH   1   7
BRANCH   3  20
HETATM   20  C   UNL     1      41.936 -16.776   3.712  1.00  0.00     0.260 C 
HETATM   21  N   UNL     1      42.971 -17.581   4.129  1.00  0.00    -0.352 N 
HETATM   22  H   UNL     1      42.937 -17.749   5.130  1.00  0.00     0.163 HD
HETATM   23  O   UNL     1      41.106 -16.482   4.576  1.00  0.00    -0.267 OA
BRANCH  21  24
HETATM   24  C   UNL     1      44.053 -18.190   3.384  1.00  0.00     0.167 C 
BRANCH  24  25
HETATM   25  C   UNL     1      44.217 -19.673   3.566  1.00  0.00     0.037 A 
HETATM   26  C   UNL     1      44.023 -20.507   2.458  1.00  0.00     0.127 A 
HETATM   27  F   UNL     1      43.647 -19.973   1.287  1.00  0.00    -0.205 F 
HETATM   28  C   UNL     1      44.225 -21.885   2.526  1.00  0.00     0.043 A 
HETATM   29  C   UNL     1      44.642 -22.462   3.722  1.00  0.00     0.006 A 
HETATM   30  C   UNL     1      44.856 -21.652   4.835  1.00  0.00     0.043 A 
HETATM   31  C   UNL     1      44.651 -20.274   4.746  1.00  0.00     0.127 A 
HETATM   32  F   UNL     1      44.888 -19.528   5.835  1.00  0.00    -0.205 F 
ENDBRANCH  24  25
ENDBRANCH  21  24
ENDBRANCH   3  20
TORSDOF 5
ENDMDL
MODEL 10
REMARK VINA RESULT:      -8.4      2.728      3.100
REMARK  5 active torsions:
REMARK  status: ('A' for Active; 'I' for Inactive)
REMARK    1  A    between atoms: C_5  and  N_6 
REMARK       I    between atoms: N_6  and  C_7 
REMARK       I    between atoms: C_7  and  N_8 
REMARK    2  A    between atoms: N_8  and  C_9 
REMARK    3  A    between atoms: C_11  and  C_12 
REMARK       I    between atoms: C_12  and  N_13 
REMARK    4  A    between atoms: N_13  and  C_14 
REMARK    5  A    between atoms: C_14  and  C_15 
ROOT
HETATM    1  C   UNL     1      41.034 -12.130   6.137  1.00  0.00     0.175 A 
HETATM    2  S   UNL     1      40.625 -12.255   4.498  1.00  0.00    -0.044 SA
HETATM    3  C   UNL     1      42.011 -13.229   4.222  1.00  0.00     0.100 A 
HETATM    4  C   UNL     1      42.748 -13.292   5.405  1.00  0.00     0.056 A 
HETATM    5  C   UNL     1      44.064 -13.965   5.598  1.00  0.00     0.072 C 
HETATM    6  N   UNL     1      42.165 -12.671   6.507  1.00  0.00    -0.228 NA
ENDROOT
BRANCH   1   7
HETATM    7  N   UNL     1      40.117 -11.473   6.896  1.00  0.00    -0.287 N 
HETATM    8  C   UNL     1      40.314 -10.931   8.131  1.00  0.00     0.326 C 
HETATM    9  N   UNL     1      41.586 -10.968   8.635  1.00  0.00    -0.309 N 
HETATM   10  O   UNL     1      39.331 -10.437   8.684  1.00  0.00    -0.247 OA
HETATM   11  H   UNL     1      42.289 -11.344   8.003  1.00  0.00     0.170 HD
HETATM   12  H   UNL     1      39.173 -11.407   6.549  1.00  0.00     0.172 HD
BRANCH   9  13
HETATM   13  C   UNL     1      42.038 -10.493   9.881  1.00  0.00     0.036 A 
HETATM   14  C   UNL     1      41.698  -9.244  10.405  1.00  0.00     0.030 A 
HETATM   15  C   UNL     1      42.189  -8.839  11.651  1.00  0.00     0.009 A 
HETATM   16  C   UNL     1      43.031  -9.673  12.392  1.00  0.00    -0.062 A 
HETATM   17  C   UNL     1      43.574  -9.207  13.709  1.00  0.00     0.048 C 
HETATM   18  C   UNL     1      43.373 -10.922  11.868  1.00  0.00     0.009 A 
HETATM   19  C   UNL     1      42.871 -11.332  10.627  1.00  0.00     0.030 A 
ENDBRANCH   9  13
ENDBRANCH   1   7
BRANCH   3  20
HETATM   20  C   UNL     1      42.386 -13.771   2.926  1.00  0.00     0.260 C 
HETATM   21  N   UNL     1      42.227 -15.099   2.601  1.00  0.00    -0.352 N 
HETATM   22  H   UNL     1      42.490 -15.285   1.639  1.00  0.00     0.163 HD
HETATM   23  O   UNL     1      42.901 -13.067   2.054  1.00  0.00    -0.267 OA
BRANCH  21  24
HETATM   24  C   UNL     1      41.756 -16.215   3.395  1.00  0.00     0.167 C 
BRANCH  24  25
HETATM   25  C   UNL     1      42.547 -17.486   3.268  1.00  0.00     0.037 A 
HETATM   26  C   UNL     1      42.385 -18.262   2.113  1.00  0.00     0.127 A 
HETATM   27  F   UNL     1      41.496 -17.883   1.183  1.00  0.00    -0.205 F 
HETATM   28  C   UNL     1      43.134 -19.415   1.886  1.00  0.00     0.043 A 
HETATM   29  C   UNL     1      44.084 -19.815   2.823  1.00  0.00     0.006 A 
HETATM   30  C   UNL     1      44.275 -19.054   3.974  1.00  0.00     0.043 A 
HETATM   31  C   UNL     1      43.516 -17.900   4.181  1.00  0.00     0.127 A 
HETATM   32  F   UNL     1      43.745 -17.184   5.291  1.00  0.00    -0.205 F 
ENDBRANCH  24  25
ENDBRANCH  21  24
ENDBRANCH   3  20
TORSDOF 5
ENDMDL
