MODEL 1
REMARK VINA RESULT:      -7.6      0.000      0.000
REMARK  3 active torsions:
REMARK  status: ('A' for Active; 'I' for Inactive)
REMARK       I    between atoms: C_2  and  N_3 
REMARK    1  A    between atoms: N_3  and  C_4 
REMARK    2  A    between atoms: C_9  and  N_10 
REMARK       I    between atoms: N_10  and  C_11 
REMARK    3  A    between atoms: C_11  and  C_12 
ROOT
HETATM    1  C   UNL     1      40.604 -15.518   2.054  1.00  0.00     0.156 A 
HETATM    2  N   UNL     1      39.943 -14.528   1.395  1.00  0.00    -0.241 NA
HETATM    3  C   UNL     1      40.077 -14.452   0.057  1.00  0.00     0.119 A 
HETATM    4  C   UNL     1      40.847 -15.326  -0.676  1.00  0.00     0.022 A 
HETATM    5  C   UNL     1      41.522 -16.334   0.006  1.00  0.00     0.035 A 
HETATM    6  C   UNL     1      41.426 -16.457   1.399  1.00  0.00     0.081 A 
ENDROOT
BRANCH   6   7
HETATM    7  N   UNL     1      42.110 -17.491   2.087  1.00  0.00    -0.320 N 
HETATM    8  C   UNL     1      43.468 -17.756   2.094  1.00  0.00     0.256 C 
HETATM    9  O   UNL     1      44.347 -17.073   1.581  1.00  0.00    -0.267 OA
HETATM   10  H   UNL     1      41.530 -18.056   2.704  1.00  0.00     0.169 HD
BRANCH   8  11
HETATM   11  C   UNL     1      43.890 -18.980   2.840  1.00  0.00     0.032 A 
HETATM   12  C   UNL     1      44.030 -20.227   2.216  1.00  0.00     0.018 A 
HETATM   13  C   UNL     1      44.458 -21.337   2.953  1.00  0.00     0.025 A 
HETATM   14  C   UNL     1      44.758 -21.200   4.307  1.00  0.00     0.034 A 
HETATM   15 CL   UNL     1      45.291 -22.567   5.207  1.00  0.00    -0.084 Cl
HETATM   16  C   UNL     1      44.639 -19.961   4.935  1.00  0.00     0.025 A 
HETATM   17  C   UNL     1      44.209 -18.853   4.200  1.00  0.00     0.018 A 
ENDBRANCH   8  11
ENDBRANCH   6   7
BRANCH   1  18
HETATM   18  N   UNL     1      40.321 -15.402   3.423  1.00  0.00    -0.310 N 
HETATM   19  C   UNL     1      41.116 -15.361   4.532  1.00  0.00     0.219 C 
HETATM   20  C   UNL     1      40.337 -15.217   5.815  1.00  0.00     0.117 C 
HETATM   21  O   UNL     1      42.338 -15.461   4.553  1.00  0.00    -0.274 OA
HETATM   22  H   UNL     1      39.318 -15.361   3.554  1.00  0.00     0.170 HD
ENDBRANCH   1  18
TORSDOF 3
ENDMDL
MODEL 2
REMARK VINA RESULT:      -7.5      1.594      1.907
REMARK  3 active torsions:
REMARK  status: ('A' for Active; 'I' for Inactive)
REMARK       I    between atoms: C_2  and  N_3 
REMARK    1  A    between atoms: N_3  and  C_4 
REMARK    2  A    between atoms: C_9  and  N_10 
REMARK       I    between atoms: N_10  and  C_11 
REMARK    3  A    between atoms: C_11  and  C_12 
ROOT
HETATM    1  C   UNL     1      41.202 -14.807   3.676  1.00  0.00     0.156 A 
HETATM    2  N   UNL     1      40.443 -13.732   3.331  1.00  0.00    -0.241 NA
HETATM    3  C   UNL     1      39.514 -13.888   2.367  1.00  0.00     0.119 A 
HETATM    4  C   UNL     1      39.296 -15.080   1.716  1.00  0.00     0.022 A 
HETATM    5  C   UNL     1      40.078 -16.175   2.072  1.00  0.00     0.035 A 
HETATM    6  C   UNL     1      41.065 -16.069   3.062  1.00  0.00     0.081 A 
ENDROOT
BRANCH   6   7
HETATM    7  N   UNL     1      41.854 -17.189   3.426  1.00  0.00    -0.320 N 
HETATM    8  C   UNL     1      43.148 -17.483   3.035  1.00  0.00     0.256 C 
HETATM    9  O   UNL     1      43.891 -16.766   2.373  1.00  0.00    -0.267 OA
HETATM   10  H   UNL     1      41.433 -17.808   4.116  1.00  0.00     0.169 HD
BRANCH   8  11
HETATM   11  C   UNL     1      43.690 -18.793   3.505  1.00  0.00     0.032 A 
HETATM   12  C   UNL     1      44.048 -19.819   2.619  1.00  0.00     0.018 A 
HETATM   13  C   UNL     1      44.581 -21.017   3.109  1.00  0.00     0.025 A 
HETATM   14  C   UNL     1      44.768 -21.186   4.480  1.00  0.00     0.034 A 
HETATM   15 CL   UNL     1      45.431 -22.658   5.076  1.00  0.00    -0.084 Cl
HETATM   16  C   UNL     1      44.433 -20.167   5.370  1.00  0.00     0.025 A 
HETATM   17  C   UNL     1      43.899 -18.971   4.881  1.00  0.00     0.018 A 
ENDBRANCH   8  11
ENDBRANCH   6   7
BRANCH   1  18
HETATM   18  N   UNL     1      42.091 -14.413   4.687  1.00  0.00    -0.310 N 
HETATM   19  C   UNL     1      43.347 -13.879   4.658  1.00  0.00     0.219 C 
HETATM   20  C   UNL     1      43.908 -13.610   6.032  1.00  0.00     0.117 C 
HETATM   21  O   UNL     1      44.015 -13.649   3.656  1.00  0.00    -0.274 OA
HETATM   22  H   UNL     1      41.673 -14.601   5.589  1.00  0.00     0.170 HD
ENDBRANCH   1  18
TORSDOF 3
ENDMDL
MODEL 3
REMARK VINA RESULT:      -7.3      3.575      6.540
REMARK  3 active torsions:
REMARK  status: ('A' for Active; 'I' for Inactive)
REMARK       I    between atoms: C_2  and  N_3 
REMARK    1  A    between atoms: N_3  and  C_4 
REMARK    2  A    between atoms: C_9  and  N_10 
REMARK       I    between atoms: N_10  and  C_11 
REMARK    3  A    between atoms: C_11  and  C_12 
ROOT
HETATM    1  C   UNL     1      44.234 -19.636   3.708  1.00  0.00     0.156 A 
HETATM    2  N   UNL     1      44.954 -20.791   3.721  1.00  0.00    -0.241 NA
HETATM    3  C   UNL     1      44.697 -21.714   2.774  1.00  0.00     0.119 A 
HETATM    4  C   UNL     1      43.745 -21.546   1.795  1.00  0.00     0.022 A 
HETATM    5  C   UNL     1      43.012 -20.364   1.790  1.00  0.00     0.035 A 
HETATM    6  C   UNL     1      43.230 -19.371   2.755  1.00  0.00     0.081 A 
ENDROOT
BRANCH   6   7
HETATM    7  N   UNL     1      42.484 -18.166   2.740  1.00  0.00    -0.320 N 
HETATM    8  C   UNL     1      41.645 -17.670   3.721  1.00  0.00     0.256 C 
HETATM    9  O   UNL     1      41.471 -18.143   4.840  1.00  0.00    -0.267 OA
HETATM   10  H   UNL     1      42.651 -17.565   1.935  1.00  0.00     0.169 HD
BRANCH   8  11
HETATM   11  C   UNL     1      40.914 -16.412   3.382  1.00  0.00     0.032 A 
HETATM   12  C   UNL     1      40.971 -15.270   4.193  1.00  0.00     0.018 A 
HETATM   13  C   UNL     1      40.292 -14.106   3.815  1.00  0.00     0.025 A 
HETATM   14  C   UNL     1      39.569 -14.077   2.624  1.00  0.00     0.034 A 
HETATM   15 CL   UNL     1      38.742 -12.641   2.160  1.00  0.00    -0.084 Cl
HETATM   16  C   UNL     1      39.519 -15.201   1.801  1.00  0.00     0.025 A 
HETATM   17  C   UNL     1      40.195 -16.365   2.179  1.00  0.00     0.018 A 
ENDBRANCH   8  11
ENDBRANCH   6   7
BRANCH   1  18
HETATM   18  N   UNL     1      44.667 -18.834   4.774  1.00  0.00    -0.310 N 
HETATM   19  C   UNL     1      44.493 -18.918   6.126  1.00  0.00     0.219 C 
HETATM   20  C   UNL     1      45.170 -17.802   6.881  1.00  0.00     0.117 C 
HETATM   21  O   UNL     1      43.838 -19.767   6.721  1.00  0.00    -0.274 OA
HETATM   22  H   UNL     1      45.191 -18.048   4.409  1.00  0.00     0.170 HD
ENDBRANCH   1  18
TORSDOF 3
ENDMDL
MODEL 4
REMARK VINA RESULT:      -7.2      3.404      6.235
REMARK  3 active torsions:
REMARK  status: ('A' for Active; 'I' for Inactive)
REMARK       I    between atoms: C_2  and  N_3 
REMARK    1  A    between atoms: N_3  and  C_4 
REMARK    2  A    between atoms: C_9  and  N_10 
REMARK       I    between atoms: N_10  and  C_11 
REMARK    3  A    between atoms: C_11  and  C_12 
ROOT
HETATM    1  C   UNL     1      44.087 -19.627   3.672  1.00  0.00     0.156 A 
HETATM    2  N   UNL     1      44.900 -20.647   4.059  1.00  0.00    -0.241 NA
HETATM    3  C   UNL     1      44.932 -21.761   3.302  1.00  0.00     0.119 A 
HETATM    4  C   UNL     1      44.186 -21.917   2.157  1.00  0.00     0.022 A 
HETATM    5  C   UNL     1      43.355 -20.871   1.768  1.00  0.00     0.035 A 
HETATM    6  C   UNL     1      43.274 -19.691   2.522  1.00  0.00     0.081 A 
ENDROOT
BRANCH   6   7
HETATM    7  N   UNL     1      42.432 -18.626   2.117  1.00  0.00    -0.320 N 
HETATM    8  C   UNL     1      42.785 -17.464   1.454  1.00  0.00     0.256 C 
HETATM    9  O   UNL     1      43.892 -17.190   1.003  1.00  0.00    -0.267 OA
HETATM   10  H   UNL     1      41.437 -18.778   2.273  1.00  0.00     0.169 HD
BRANCH   8  11
HETATM   11  C   UNL     1      41.688 -16.473   1.243  1.00  0.00     0.032 A 
HETATM   12  C   UNL     1      41.656 -15.613   0.136  1.00  0.00     0.018 A 
HETATM   13  C   UNL     1      40.589 -14.723  -0.032  1.00  0.00     0.025 A 
HETATM   14  C   UNL     1      39.550 -14.699   0.897  1.00  0.00     0.034 A 
HETATM   15 CL   UNL     1      38.237 -13.607   0.681  1.00  0.00    -0.084 Cl
HETATM   16  C   UNL     1      39.561 -15.560   1.992  1.00  0.00     0.025 A 
HETATM   17  C   UNL     1      40.627 -16.448   2.162  1.00  0.00     0.018 A 
ENDBRANCH   8  11
ENDBRANCH   6   7
BRANCH   1  18
HETATM   18  N   UNL     1      44.214 -18.584   4.601  1.00  0.00    -0.310 N 
HETATM   19  C   UNL     1      43.300 -17.859   5.309  1.00  0.00     0.219 C 
HETATM   20  C   UNL     1      43.931 -16.826   6.209  1.00  0.00     0.117 C 
HETATM   21  O   UNL     1      42.080 -17.964   5.240  1.00  0.00    -0.274 OA
HETATM   22  H   UNL     1      45.194 -18.357   4.715  1.00  0.00     0.170 HD
ENDBRANCH   1  18
TORSDOF 3
ENDMDL
MODEL 5
REMARK VINA RESULT:      -7.2      2.286      2.698
REMARK  3 active torsions:
REMARK  status: ('A' for Active; 'I' for Inactive)
REMARK       I    between atoms: C_2  and  N_3 
REMARK    1  A    between atoms: N_3  and  C_4 
REMARK    2  A    between atoms: C_9  and  N_10 
REMARK       I    between atoms: N_10  and  C_11 
REMARK    3  A    between atoms: C_11  and  C_12 
ROOT
HETATM    1  C   UNL     1      43.219 -14.181   3.232  1.00  0.00     0.156 A 
HETATM    2  N   UNL     1      42.812 -12.956   2.801  1.00  0.00    -0.241 NA
HETATM    3  C   UNL     1      42.093 -12.885   1.665  1.00  0.00     0.119 A 
HETATM    4  C   UNL     1      41.748 -13.989   0.919  1.00  0.00     0.022 A 
HETATM    5  C   UNL     1      42.169 -15.238   1.365  1.00  0.00     0.035 A 
HETATM    6  C   UNL     1      42.928 -15.372   2.537  1.00  0.00     0.081 A 
ENDROOT
BRANCH   6   7
HETATM    7  N   UNL     1      43.347 -16.648   2.989  1.00  0.00    -0.320 N 
HETATM    8  C   UNL     1      42.662 -17.532   3.802  1.00  0.00     0.256 C 
HETATM    9  O   UNL     1      41.508 -17.411   4.200  1.00  0.00    -0.267 OA
HETATM   10  H   UNL     1      44.232 -16.973   2.604  1.00  0.00     0.169 HD
BRANCH   8  11
HETATM   11  C   UNL     1      43.402 -18.770   4.192  1.00  0.00     0.032 A 
HETATM   12  C   UNL     1      43.538 -19.173   5.527  1.00  0.00     0.018 A 
HETATM   13  C   UNL     1      44.216 -20.357   5.838  1.00  0.00     0.025 A 
HETATM   14  C   UNL     1      44.745 -21.145   4.817  1.00  0.00     0.034 A 
HETATM   15 CL   UNL     1      45.570 -22.605   5.204  1.00  0.00    -0.084 Cl
HETATM   16  C   UNL     1      44.600 -20.764   3.484  1.00  0.00     0.025 A 
HETATM   17  C   UNL     1      43.926 -19.580   3.173  1.00  0.00     0.018 A 
ENDBRANCH   8  11
ENDBRANCH   6   7
BRANCH   1  18
HETATM   18  N   UNL     1      43.945 -14.013   4.421  1.00  0.00    -0.310 N 
HETATM   19  C   UNL     1      43.690 -14.357   5.717  1.00  0.00     0.219 C 
HETATM   20  C   UNL     1      44.799 -13.966   6.662  1.00  0.00     0.117 C 
HETATM   21  O   UNL     1      42.673 -14.898   6.138  1.00  0.00    -0.274 OA
HETATM   22  H   UNL     1      44.806 -13.521   4.218  1.00  0.00     0.170 HD
ENDBRANCH   1  18
TORSDOF 3
ENDMDL
MODEL 6
REMARK VINA RESULT:      -7.1      1.615      3.452
REMARK  3 active torsions:
REMARK  status: ('A' for Active; 'I' for Inactive)
REMARK       I    between atoms: C_2  and  N_3 
REMARK    1  A    between atoms: N_3  and  C_4 
REMARK    2  A    between atoms: C_9  and  N_10 
REMARK       I    between atoms: N_10  and  C_11 
REMARK    3  A    between atoms: C_11  and  C_12 
ROOT
HETATM    1  C   UNL     1      40.742 -14.679   3.390  1.00  0.00     0.156 A 
HETATM    2  N   UNL     1      40.055 -13.527   3.615  1.00  0.00    -0.241 NA
HETATM    3  C   UNL     1      39.731 -13.214   4.884  1.00  0.00     0.119 A 
HETATM    4  C   UNL     1      40.061 -14.000   5.963  1.00  0.00     0.022 A 
HETATM    5  C   UNL     1      40.762 -15.179   5.726  1.00  0.00     0.035 A 
HETATM    6  C   UNL     1      41.119 -15.560   4.425  1.00  0.00     0.081 A 
ENDROOT
BRANCH   6   7
HETATM    7  N   UNL     1      41.839 -16.758   4.190  1.00  0.00    -0.320 N 
HETATM    8  C   UNL     1      43.046 -16.912   3.532  1.00  0.00     0.256 C 
HETATM    9  O   UNL     1      43.769 -16.013   3.115  1.00  0.00    -0.267 OA
HETATM   10  H   UNL     1      41.447 -17.590   4.626  1.00  0.00     0.169 HD
BRANCH   8  11
HETATM   11  C   UNL     1      43.518 -18.318   3.353  1.00  0.00     0.032 A 
HETATM   12  C   UNL     1      44.248 -18.995   4.340  1.00  0.00     0.018 A 
HETATM   13  C   UNL     1      44.642 -20.322   4.135  1.00  0.00     0.025 A 
HETATM   14  C   UNL     1      44.296 -20.977   2.954  1.00  0.00     0.034 A 
HETATM   15 CL   UNL     1      44.776 -22.612   2.712  1.00  0.00    -0.084 Cl
HETATM   16  C   UNL     1      43.555 -20.320   1.973  1.00  0.00     0.025 A 
HETATM   17  C   UNL     1      43.164 -18.993   2.175  1.00  0.00     0.018 A 
ENDBRANCH   8  11
ENDBRANCH   6   7
BRANCH   1  18
HETATM   18  N   UNL     1      40.966 -14.798   2.010  1.00  0.00    -0.310 N 
HETATM   19  C   UNL     1      40.778 -15.822   1.128  1.00  0.00     0.219 C 
HETATM   20  C   UNL     1      41.165 -15.465  -0.285  1.00  0.00     0.117 C 
HETATM   21  O   UNL     1      40.373 -16.948   1.398  1.00  0.00    -0.274 OA
HETATM   22  H   UNL     1      41.358 -13.933   1.661  1.00  0.00     0.170 HD
ENDBRANCH   1  18
TORSDOF 3
ENDMDL
MODEL 7
REMARK VINA RESULT:      -7.0      3.616      6.483
REMARK  3 active torsions:
REMARK  status: ('A' for Active; 'I' for Inactive)
REMARK       I    between atoms: C_2  and  N_3 
REMARK    1  A    between atoms: N_3  and  C_4 
REMARK    2  A    between atoms: C_9  and  N_10 
REMARK       I    between atoms: N_10  and  C_11 
REMARK    3  A    between atoms: C_11  and  C_12 
ROOT
HETATM    1  C   UNL     1      44.535 -20.026   3.895  1.00  0.00     0.156 A 
HETATM    2  N   UNL     1      44.843 -21.337   4.091  1.00  0.00    -0.241 NA
HETATM    3  C   UNL     1      44.523 -22.220   3.125  1.00  0.00     0.119 A 
HETATM    4  C   UNL     1      43.902 -21.862   1.951  1.00  0.00     0.022 A 
HETATM    5  C   UNL     1      43.587 -20.521   1.759  1.00  0.00     0.035 A 
HETATM    6  C   UNL     1      43.889 -19.558   2.733  1.00  0.00     0.081 A 
ENDROOT
BRANCH   6   7
HETATM    7  N   UNL     1      43.572 -18.192   2.528  1.00  0.00    -0.320 N 
HETATM    8  C   UNL     1      42.494 -17.483   3.027  1.00  0.00     0.256 C 
HETATM    9  O   UNL     1      41.662 -17.890   3.830  1.00  0.00    -0.267 OA
HETATM   10  H   UNL     1      44.268 -17.660   2.008  1.00  0.00     0.169 HD
BRANCH   8  11
HETATM   11  C   UNL     1      42.369 -16.069   2.559  1.00  0.00     0.032 A 
HETATM   12  C   UNL     1      43.004 -15.004   3.213  1.00  0.00     0.018 A 
HETATM   13  C   UNL     1      42.879 -13.701   2.717  1.00  0.00     0.025 A 
HETATM   14  C   UNL     1      42.134 -13.464   1.564  1.00  0.00     0.034 A 
HETATM   15 CL   UNL     1      41.991 -11.861   0.953  1.00  0.00    -0.084 Cl
HETATM   16  C   UNL     1      41.513 -14.517   0.894  1.00  0.00     0.025 A 
HETATM   17  C   UNL     1      41.634 -15.818   1.391  1.00  0.00     0.018 A 
ENDBRANCH   8  11
ENDBRANCH   6   7
BRANCH   1  18
HETATM   18  N   UNL     1      44.956 -19.301   5.019  1.00  0.00    -0.310 N 
HETATM   19  C   UNL     1      44.324 -18.933   6.172  1.00  0.00     0.219 C 
HETATM   20  C   UNL     1      45.210 -18.149   7.108  1.00  0.00     0.117 C 
HETATM   21  O   UNL     1      43.153 -19.154   6.460  1.00  0.00    -0.274 OA
HETATM   22  H   UNL     1      45.915 -19.006   4.885  1.00  0.00     0.170 HD
ENDBRANCH   1  18
TORSDOF 3
ENDMDL
MODEL 8
REMARK VINA RESULT:      -6.7      4.040      6.598
REMARK  3 active torsions:
REMARK  status: ('A' for Active; 'I' for Inactive)
REMARK       I    between atoms: C_2  and  N_3 
REMARK    1  A    between atoms: N_3  and  C_4 
REMARK    2  A    between atoms: C_9  and  N_10 
REMARK       I    between atoms: N_10  and  C_11 
REMARK    3  A    between atoms: C_11  and  C_12 
ROOT
HETATM    1  C   UNL     1      44.111 -19.439   4.746  1.00  0.00     0.156 A 
HETATM    2  N   UNL     1      44.594 -20.657   4.379  1.00  0.00    -0.241 NA
HETATM    3  C   UNL     1      44.631 -20.959   3.067  1.00  0.00     0.119 A 
HETATM    4  C   UNL     1      44.207 -20.098   2.081  1.00  0.00     0.022 A 
HETATM    5  C   UNL     1      43.713 -18.855   2.464  1.00  0.00     0.035 A 
HETATM    6  C   UNL     1      43.643 -18.489   3.816  1.00  0.00     0.081 A 
ENDROOT
BRANCH   6   7
HETATM    7  N   UNL     1      43.145 -17.219   4.200  1.00  0.00    -0.320 N 
HETATM    8  C   UNL     1      41.909 -16.916   4.743  1.00  0.00     0.256 C 
HETATM    9  O   UNL     1      41.048 -17.718   5.087  1.00  0.00    -0.267 OA
HETATM   10  H   UNL     1      43.814 -16.453   4.131  1.00  0.00     0.169 HD
BRANCH   8  11
HETATM   11  C   UNL     1      41.628 -15.465   4.959  1.00  0.00     0.032 A 
HETATM   12  C   UNL     1      40.431 -15.009   5.529  1.00  0.00     0.018 A 
HETATM   13  C   UNL     1      40.229 -13.640   5.738  1.00  0.00     0.025 A 
HETATM   14  C   UNL     1      41.224 -12.729   5.390  1.00  0.00     0.034 A 
HETATM   15 CL   UNL     1      40.973 -11.047   5.656  1.00  0.00    -0.084 Cl
HETATM   16  C   UNL     1      42.425 -13.170   4.838  1.00  0.00     0.025 A 
HETATM   17  C   UNL     1      42.627 -14.537   4.626  1.00  0.00     0.018 A 
ENDBRANCH   8  11
ENDBRANCH   6   7
BRANCH   1  18
HETATM   18  N   UNL     1      44.166 -19.346   6.145  1.00  0.00    -0.310 N 
HETATM   19  C   UNL     1      44.553 -18.347   6.991  1.00  0.00     0.219 C 
HETATM   20  C   UNL     1      44.423 -18.721   8.447  1.00  0.00     0.117 C 
HETATM   21  O   UNL     1      45.000 -17.253   6.666  1.00  0.00    -0.274 OA
HETATM   22  H   UNL     1      43.864 -20.223   6.549  1.00  0.00     0.170 HD
ENDBRANCH   1  18
TORSDOF 3
ENDMDL
MODEL 9
REMARK VINA RESULT:      -6.7      3.697      7.096
REMARK  3 active torsions:
REMARK  status: ('A' for Active; 'I' for Inactive)
REMARK       I    between atoms: C_2  and  N_3 
REMARK    1  A    between atoms: N_3  and  C_4 
REMARK    2  A    between atoms: C_9  and  N_10 
REMARK       I    between atoms: N_10  and  C_11 
REMARK    3  A    between atoms: C_11  and  C_12 
ROOT
HETATM    1  C   UNL     1      43.387 -18.520   5.682  1.00  0.00     0.156 A 
HETATM    2  N   UNL     1      44.184 -19.132   6.600  1.00  0.00    -0.241 NA
HETATM    3  C   UNL     1      44.220 -18.631   7.850  1.00  0.00     0.119 A 
HETATM    4  C   UNL     1      43.489 -17.534   8.245  1.00  0.00     0.022 A 
HETATM    5  C   UNL     1      42.678 -16.912   7.300  1.00  0.00     0.035 A 
HETATM    6  C   UNL     1      42.607 -17.384   5.982  1.00  0.00     0.081 A 
ENDROOT
BRANCH   6   7
HETATM    7  N   UNL     1      41.774 -16.751   5.027  1.00  0.00    -0.320 N 
HETATM    8  C   UNL     1      41.918 -15.493   4.470  1.00  0.00     0.256 C 
HETATM    9  O   UNL     1      42.864 -14.728   4.631  1.00  0.00    -0.267 OA
HETATM   10  H   UNL     1      41.021 -17.330   4.658  1.00  0.00     0.169 HD
BRANCH   8  11
HETATM   11  C   UNL     1      40.823 -15.054   3.554  1.00  0.00     0.032 A 
HETATM   12  C   UNL     1      40.334 -13.740   3.545  1.00  0.00     0.018 A 
HETATM   13  C   UNL     1      39.327 -13.371   2.646  1.00  0.00     0.025 A 
HETATM   14  C   UNL     1      38.817 -14.308   1.750  1.00  0.00     0.034 A 
HETATM   15 CL   UNL     1      37.583 -13.848   0.642  1.00  0.00    -0.084 Cl
HETATM   16  C   UNL     1      39.306 -15.613   1.737  1.00  0.00     0.025 A 
HETATM   17  C   UNL     1      40.311 -15.983   2.636  1.00  0.00     0.018 A 
ENDBRANCH   8  11
ENDBRANCH   6   7
BRANCH   1  18
HETATM   18  N   UNL     1      43.509 -19.205   4.464  1.00  0.00    -0.310 N 
HETATM   19  C   UNL     1      43.824 -18.796   3.201  1.00  0.00     0.219 C 
HETATM   20  C   UNL     1      43.839 -19.925   2.200  1.00  0.00     0.117 C 
HETATM   21  O   UNL     1      44.047 -17.644   2.845  1.00  0.00    -0.274 OA
HETATM   22  H   UNL     1      43.295 -20.184   4.610  1.00  0.00     0.170 HD
ENDBRANCH   1  18
TORSDOF 3
ENDMDL
MODEL 10
REMARK VINA RESULT:      -6.6      1.974      3.560
REMARK  3 active torsions:
REMARK  status: ('A' for Active; 'I' for Inactive)
REMARK       I    between atoms: C_2  and  N_3 
REMARK    1  A    between atoms: N_3  and  C_4 
REMARK    2  A    between atoms: C_9  and  N_10 
REMARK       I    between atoms: N_10  and  C_11 
REMARK    3  A    between atoms: C_11  and  C_12 
ROOT
HETATM    1  C   UNL     1      39.840 -14.292   1.017  1.00  0.00     0.156 A 
HETATM    2  N   UNL     1      39.101 -13.172   0.790  1.00  0.00    -0.241 NA
HETATM    3  C   UNL     1      38.764 -12.405   1.845  1.00  0.00     0.119 A 
HETATM    4  C   UNL     1      39.130 -12.697   3.138  1.00  0.00     0.022 A 
HETATM    5  C   UNL     1      39.884 -13.845   3.363  1.00  0.00     0.035 A 
HETATM    6  C   UNL     1      40.257 -14.686   2.305  1.00  0.00     0.081 A 
ENDROOT
BRANCH   6   7
HETATM    7  N   UNL     1      41.031 -15.850   2.539  1.00  0.00    -0.320 N 
HETATM    8  C   UNL     1      42.409 -15.964   2.577  1.00  0.00     0.256 C 
HETATM    9  O   UNL     1      43.219 -15.045   2.514  1.00  0.00    -0.267 OA
HETATM   10  H   UNL     1      40.496 -16.683   2.779  1.00  0.00     0.169 HD
BRANCH   8  11
HETATM   11  C   UNL     1      42.946 -17.347   2.751  1.00  0.00     0.032 A 
HETATM   12  C   UNL     1      43.154 -18.213   1.669  1.00  0.00     0.018 A 
HETATM   13  C   UNL     1      43.688 -19.489   1.882  1.00  0.00     0.025 A 
HETATM   14  C   UNL     1      44.024 -19.896   3.172  1.00  0.00     0.034 A 
HETATM   15 CL   UNL     1      44.687 -21.463   3.428  1.00  0.00    -0.084 Cl
HETATM   16  C   UNL     1      43.838 -19.038   4.255  1.00  0.00     0.025 A 
HETATM   17  C   UNL     1      43.303 -17.764   4.043  1.00  0.00     0.018 A 
ENDBRANCH   8  11
ENDBRANCH   6   7
BRANCH   1  18
HETATM   18  N   UNL     1      40.069 -14.927  -0.213  1.00  0.00    -0.310 N 
HETATM   19  C   UNL     1      41.050 -14.796  -1.153  1.00  0.00     0.219 C 
HETATM   20  C   UNL     1      40.868 -15.722  -2.330  1.00  0.00     0.117 C 
HETATM   21  O   UNL     1      41.986 -14.005  -1.120  1.00  0.00    -0.274 OA
HETATM   22  H   UNL     1      39.321 -15.586  -0.391  1.00  0.00     0.170 HD
ENDBRANCH   1  18
TORSDOF 3
ENDMDL
