MODEL 1
REMARK VINA RESULT:      -8.4      0.000      0.000
REMARK  5 active torsions:
REMARK  status: ('A' for Active; 'I' for Inactive)
REMARK    1  A    between atoms: C_2  and  C_3 
REMARK    2  A    between atoms: C_6  and  C_7 
REMARK    3  A    between atoms: C_7  and  N_8 
REMARK    4  A    between atoms: C_7  and  C_21 
REMARK       I    between atoms: N_8  and  C_9 
REMARK       I    between atoms: C_9  and  N_10 
REMARK    5  A    between atoms: N_10  and  N_11 
ROOT
HETATM    1  N   UNL     1      40.649 -16.179   3.275  1.00  0.00    -0.333 N 
HETATM    2  C   UNL     1      40.055 -15.484   2.273  1.00  0.00     0.335 C 
HETATM    3  N   UNL     1      40.843 -14.607   1.593  1.00  0.00    -0.244 N 
HETATM    4  O   UNL     1      38.855 -15.643   2.071  1.00  0.00    -0.246 OA
HETATM    5  H   UNL     1      40.007 -16.817   3.725  1.00  0.00     0.165 HD
HETATM    6  H   UNL     1      41.804 -14.869   1.451  1.00  0.00     0.192 HD
ENDROOT
BRANCH   1   7
HETATM    7  C   UNL     1      42.009 -16.110   3.810  1.00  0.00     0.122 C 
BRANCH   7   8
HETATM    8  C   UNL     1      42.719 -17.416   3.483  1.00  0.00    -0.035 A 
HETATM    9  C   UNL     1      43.387 -18.124   4.492  1.00  0.00     0.010 A 
HETATM   10  C   UNL     1      44.031 -19.332   4.209  1.00  0.00     0.007 A 
HETATM   11  C   UNL     1      44.029 -19.852   2.910  1.00  0.00    -0.059 A 
HETATM   12  C   UNL     1      43.365 -19.148   1.899  1.00  0.00     0.007 A 
HETATM   13  C   UNL     1      42.720 -17.943   2.182  1.00  0.00     0.010 A 
BRANCH  11  14
HETATM   14  C   UNL     1      44.699 -21.168   2.608  1.00  0.00     0.034 C 
HETATM   15  C   UNL     1      43.984 -21.921   1.496  1.00  0.00     0.010 C 
ENDBRANCH  11  14
ENDBRANCH   7   8
BRANCH   7  16
HETATM   16  C   UNL     1      41.997 -15.779   5.329  1.00  0.00     0.005 C 
HETATM   17  C   UNL     1      42.809 -14.515   5.642  1.00  0.00     0.012 C 
HETATM   18  C   UNL     1      40.563 -15.580   5.842  1.00  0.00     0.012 C 
ENDBRANCH   7  16
ENDBRANCH   1   7
BRANCH   3  19
HETATM   19  N   UNL     1      40.306 -13.990   0.509  1.00  0.00    -0.244 N 
HETATM   20  C   UNL     1      40.478 -14.408  -0.781  1.00  0.00     0.086 A 
HETATM   21  C   UNL     1      39.967 -13.342  -1.525  1.00  0.00     0.086 A 
HETATM   22  C   UNL     1      41.014 -15.560  -1.369  1.00  0.00     0.034 A 
HETATM   23  C   UNL     1      39.984 -13.416  -2.926  1.00  0.00     0.034 A 
HETATM   24  N   UNL     1      39.520 -12.324  -0.709  1.00  0.00    -0.240 NA
HETATM   25  C   UNL     1      40.519 -14.557  -3.535  1.00  0.00     0.002 A 
HETATM   26  C   UNL     1      41.025 -15.609  -2.768  1.00  0.00     0.002 A 
HETATM   27  C   UNL     1      39.747 -12.748   0.517  1.00  0.00     0.234 A 
ENDBRANCH   3  19
TORSDOF 5
ENDMDL
MODEL 2
REMARK VINA RESULT:      -8.2      1.509      1.968
REMARK  5 active torsions:
REMARK  status: ('A' for Active; 'I' for Inactive)
REMARK    1  A    between atoms: C_2  and  C_3 
REMARK    2  A    between atoms: C_6  and  C_7 
REMARK    3  A    between atoms: C_7  and  N_8 
REMARK    4  A    between atoms: C_7  and  C_21 
REMARK       I    between atoms: N_8  and  C_9 
REMARK       I    between atoms: C_9  and  N_10 
REMARK    5  A    between atoms: N_10  and  N_11 
ROOT
HETATM    1  N   UNL     1      42.047 -16.224   4.471  1.00  0.00    -0.333 N 
HETATM    2  C   UNL     1      41.558 -15.358   3.548  1.00  0.00     0.335 C 
HETATM    3  N   UNL     1      42.472 -14.733   2.759  1.00  0.00    -0.244 N 
HETATM    4  O   UNL     1      40.348 -15.153   3.510  1.00  0.00    -0.246 OA
HETATM    5  H   UNL     1      41.310 -16.658   5.010  1.00  0.00     0.165 HD
HETATM    6  H   UNL     1      43.287 -15.261   2.494  1.00  0.00     0.192 HD
ENDROOT
BRANCH   1   7
HETATM    7  C   UNL     1      43.424 -16.572   4.820  1.00  0.00     0.122 C 
BRANCH   7   8
HETATM    8  C   UNL     1      43.742 -17.933   4.217  1.00  0.00    -0.035 A 
HETATM    9  C   UNL     1      43.303 -18.249   2.924  1.00  0.00     0.010 A 
HETATM   10  C   UNL     1      43.599 -19.490   2.353  1.00  0.00     0.007 A 
HETATM   11  C   UNL     1      44.332 -20.445   3.067  1.00  0.00    -0.059 A 
HETATM   12  C   UNL     1      44.770 -20.135   4.359  1.00  0.00     0.007 A 
HETATM   13  C   UNL     1      44.476 -18.894   4.929  1.00  0.00     0.010 A 
BRANCH  11  14
HETATM   14  C   UNL     1      44.676 -21.773   2.443  1.00  0.00     0.034 C 
HETATM   15  C   UNL     1      43.836 -22.047   1.204  1.00  0.00     0.010 C 
ENDBRANCH  11  14
ENDBRANCH   7   8
BRANCH   7  16
HETATM   16  C   UNL     1      43.644 -16.513   6.358  1.00  0.00     0.005 C 
HETATM   17  C   UNL     1      44.180 -15.145   6.804  1.00  0.00     0.012 C 
HETATM   18  C   UNL     1      42.340 -16.799   7.116  1.00  0.00     0.012 C 
ENDBRANCH   7  16
ENDBRANCH   1   7
BRANCH   3  19
HETATM   19  N   UNL     1      42.005 -13.955   1.749  1.00  0.00    -0.244 N 
HETATM   20  C   UNL     1      41.654 -14.424   0.514  1.00  0.00     0.086 A 
HETATM   21  C   UNL     1      41.486 -13.253  -0.228  1.00  0.00     0.086 A 
HETATM   22  C   UNL     1      41.478 -15.703  -0.030  1.00  0.00     0.034 A 
HETATM   23  C   UNL     1      41.122 -13.346  -1.580  1.00  0.00     0.034 A 
HETATM   24  N   UNL     1      41.739 -12.131   0.534  1.00  0.00    -0.240 NA
HETATM   25  C   UNL     1      40.944 -14.614  -2.145  1.00  0.00     0.002 A 
HETATM   26  C   UNL     1      41.120 -15.770  -1.382  1.00  0.00     0.002 A 
HETATM   27  C   UNL     1      42.057 -12.595   1.724  1.00  0.00     0.234 A 
ENDBRANCH   3  19
TORSDOF 5
ENDMDL
MODEL 3
REMARK VINA RESULT:      -7.8      2.230      7.176
REMARK  5 active torsions:
REMARK  status: ('A' for Active; 'I' for Inactive)
REMARK    1  A    between atoms: C_2  and  C_3 
REMARK    2  A    between atoms: C_6  and  C_7 
REMARK    3  A    between atoms: C_7  and  N_8 
REMARK    4  A    between atoms: C_7  and  C_21 
REMARK       I    between atoms: N_8  and  C_9 
REMARK       I    between atoms: C_9  and  N_10 
REMARK    5  A    between atoms: N_10  and  N_11 
ROOT
HETATM    1  N   UNL     1      41.827 -14.920   2.626  1.00  0.00    -0.333 N 
HETATM    2  C   UNL     1      42.788 -15.767   3.073  1.00  0.00     0.335 C 
HETATM    3  N   UNL     1      42.359 -16.881   3.725  1.00  0.00    -0.244 N 
HETATM    4  O   UNL     1      43.967 -15.464   2.911  1.00  0.00    -0.246 OA
HETATM    5  H   UNL     1      42.220 -14.124   2.142  1.00  0.00     0.165 HD
HETATM    6  H   UNL     1      41.503 -17.300   3.402  1.00  0.00     0.192 HD
ENDROOT
BRANCH   1   7
HETATM    7  C   UNL     1      40.373 -14.961   2.776  1.00  0.00     0.122 C 
BRANCH   7   8
HETATM    8  C   UNL     1      39.743 -14.619   1.434  1.00  0.00    -0.035 A 
HETATM    9  C   UNL     1      38.376 -14.316   1.355  1.00  0.00     0.010 A 
HETATM   10  C   UNL     1      37.787 -13.987   0.131  1.00  0.00     0.007 A 
HETATM   11  C   UNL     1      38.550 -13.963  -1.042  1.00  0.00    -0.059 A 
HETATM   12  C   UNL     1      39.914 -14.267  -0.969  1.00  0.00     0.007 A 
HETATM   13  C   UNL     1      40.503 -14.593   0.254  1.00  0.00     0.010 A 
BRANCH  11  14
HETATM   14  C   UNL     1      37.924 -13.582  -2.359  1.00  0.00     0.034 C 
HETATM   15  C   UNL     1      37.583 -14.806  -3.195  1.00  0.00     0.010 C 
ENDBRANCH  11  14
ENDBRANCH   7   8
BRANCH   7  16
HETATM   16  C   UNL     1      39.903 -14.031   3.931  1.00  0.00     0.005 C 
HETATM   17  C   UNL     1      40.075 -14.698   5.303  1.00  0.00     0.012 C 
HETATM   18  C   UNL     1      40.680 -12.707   3.929  1.00  0.00     0.012 C 
ENDBRANCH   7  16
ENDBRANCH   1   7
BRANCH   3  19
HETATM   19  N   UNL     1      43.292 -17.803   4.075  1.00  0.00    -0.244 N 
HETATM   20  C   UNL     1      43.528 -18.960   3.387  1.00  0.00     0.086 A 
HETATM   21  C   UNL     1      44.367 -19.670   4.249  1.00  0.00     0.086 A 
HETATM   22  C   UNL     1      43.110 -19.460   2.147  1.00  0.00     0.034 A 
HETATM   23  C   UNL     1      44.821 -20.942   3.868  1.00  0.00     0.034 A 
HETATM   24  N   UNL     1      44.610 -18.967   5.410  1.00  0.00    -0.240 NA
HETATM   25  C   UNL     1      44.412 -21.463   2.634  1.00  0.00     0.002 A 
HETATM   26  C   UNL     1      43.572 -20.733   1.791  1.00  0.00     0.002 A 
HETATM   27  C   UNL     1      43.937 -17.843   5.273  1.00  0.00     0.234 A 
ENDBRANCH   3  19
TORSDOF 5
ENDMDL
MODEL 4
REMARK VINA RESULT:      -7.7      2.730      3.209
REMARK  5 active torsions:
REMARK  status: ('A' for Active; 'I' for Inactive)
REMARK    1  A    between atoms: C_2  and  C_3 
REMARK    2  A    between atoms: C_6  and  C_7 
REMARK    3  A    between atoms: C_7  and  N_8 
REMARK    4  A    between atoms: C_7  and  C_21 
REMARK       I    between atoms: N_8  and  C_9 
REMARK       I    between atoms: C_9  and  N_10 
REMARK    5  A    between atoms: N_10  and  N_11 
ROOT
HETATM    1  N   UNL     1      41.969 -15.503   5.730  1.00  0.00    -0.333 N 
HETATM    2  C   UNL     1      41.003 -14.636   5.334  1.00  0.00     0.335 C 
HETATM    3  N   UNL     1      41.322 -13.801   4.309  1.00  0.00    -0.244 N 
HETATM    4  O   UNL     1      39.936 -14.620   5.941  1.00  0.00    -0.246 OA
HETATM    5  H   UNL     1      41.656 -16.098   6.486  1.00  0.00     0.165 HD
HETATM    6  H   UNL     1      41.922 -14.167   3.589  1.00  0.00     0.192 HD
ENDROOT
BRANCH   1   7
HETATM    7  C   UNL     1      43.351 -15.664   5.280  1.00  0.00     0.122 C 
BRANCH   7   8
HETATM    8  C   UNL     1      43.420 -16.884   4.373  1.00  0.00    -0.035 A 
HETATM    9  C   UNL     1      43.533 -18.167   4.927  1.00  0.00     0.010 A 
HETATM   10  C   UNL     1      43.583 -19.297   4.107  1.00  0.00     0.007 A 
HETATM   11  C   UNL     1      43.531 -19.169   2.714  1.00  0.00    -0.059 A 
HETATM   12  C   UNL     1      43.421 -17.890   2.156  1.00  0.00     0.007 A 
HETATM   13  C   UNL     1      43.368 -16.761   2.975  1.00  0.00     0.010 A 
BRANCH  11  14
HETATM   14  C   UNL     1      43.557 -20.387   1.828  1.00  0.00     0.034 C 
HETATM   15  C   UNL     1      44.565 -21.416   2.317  1.00  0.00     0.010 C 
ENDBRANCH  11  14
ENDBRANCH   7   8
BRANCH   7  16
HETATM   16  C   UNL     1      44.328 -15.739   6.487  1.00  0.00     0.005 C 
HETATM   17  C   UNL     1      44.904 -14.360   6.838  1.00  0.00     0.012 C 
HETATM   18  C   UNL     1      43.632 -16.311   7.730  1.00  0.00     0.012 C 
ENDBRANCH   7  16
ENDBRANCH   1   7
BRANCH   3  19
HETATM   19  N   UNL     1      40.336 -13.009   3.813  1.00  0.00    -0.244 N 
HETATM   20  C   UNL     1      39.480 -13.379   2.814  1.00  0.00     0.086 A 
HETATM   21  C   UNL     1      38.841 -12.180   2.492  1.00  0.00     0.086 A 
HETATM   22  C   UNL     1      39.202 -14.588   2.165  1.00  0.00     0.034 A 
HETATM   23  C   UNL     1      37.874 -12.172   1.475  1.00  0.00     0.034 A 
HETATM   24  N   UNL     1      39.308 -11.135   3.261  1.00  0.00    -0.240 NA
HETATM   25  C   UNL     1      37.584 -13.369   0.810  1.00  0.00     0.002 A 
HETATM   26  C   UNL     1      38.238 -14.555   1.151  1.00  0.00     0.002 A 
HETATM   27  C   UNL     1      40.219 -11.673   4.046  1.00  0.00     0.234 A 
ENDBRANCH   3  19
TORSDOF 5
ENDMDL
MODEL 5
REMARK VINA RESULT:      -7.6      1.802      2.386
REMARK  5 active torsions:
REMARK  status: ('A' for Active; 'I' for Inactive)
REMARK    1  A    between atoms: C_2  and  C_3 
REMARK    2  A    between atoms: C_6  and  C_7 
REMARK    3  A    between atoms: C_7  and  N_8 
REMARK    4  A    between atoms: C_7  and  C_21 
REMARK       I    between atoms: N_8  and  C_9 
REMARK       I    between atoms: C_9  and  N_10 
REMARK    5  A    between atoms: N_10  and  N_11 
ROOT
HETATM    1  N   UNL     1      41.543 -15.589   2.183  1.00  0.00    -0.333 N 
HETATM    2  C   UNL     1      41.143 -15.170   0.957  1.00  0.00     0.335 C 
HETATM    3  N   UNL     1      42.127 -14.849   0.075  1.00  0.00    -0.244 N 
HETATM    4  O   UNL     1      39.941 -15.059   0.732  1.00  0.00    -0.246 OA
HETATM    5  H   UNL     1      40.759 -15.821   2.779  1.00  0.00     0.165 HD
HETATM    6  H   UNL     1      42.971 -15.396   0.110  1.00  0.00     0.192 HD
ENDROOT
BRANCH   1   7
HETATM    7  C   UNL     1      42.881 -15.705   2.764  1.00  0.00     0.122 C 
BRANCH   7   8
HETATM    8  C   UNL     1      43.260 -17.179   2.804  1.00  0.00    -0.035 A 
HETATM    9  C   UNL     1      43.156 -17.963   1.647  1.00  0.00     0.010 A 
HETATM   10  C   UNL     1      43.514 -19.314   1.666  1.00  0.00     0.007 A 
HETATM   11  C   UNL     1      43.973 -19.912   2.845  1.00  0.00    -0.059 A 
HETATM   12  C   UNL     1      44.075 -19.134   4.003  1.00  0.00     0.007 A 
HETATM   13  C   UNL     1      43.721 -17.784   3.984  1.00  0.00     0.010 A 
BRANCH  11  14
HETATM   14  C   UNL     1      44.385 -21.361   2.861  1.00  0.00     0.034 C 
HETATM   15  C   UNL     1      44.216 -22.009   1.495  1.00  0.00     0.010 C 
ENDBRANCH  11  14
ENDBRANCH   7   8
BRANCH   7  16
HETATM   16  C   UNL     1      42.949 -15.014   4.155  1.00  0.00     0.005 C 
HETATM   17  C   UNL     1      43.499 -13.584   4.054  1.00  0.00     0.012 C 
HETATM   18  C   UNL     1      41.565 -14.962   4.817  1.00  0.00     0.012 C 
ENDBRANCH   7  16
ENDBRANCH   1   7
BRANCH   3  19
HETATM   19  N   UNL     1      41.758 -14.544  -1.196  1.00  0.00    -0.244 N 
HETATM   20  C   UNL     1      41.974 -13.334  -1.792  1.00  0.00     0.086 A 
HETATM   21  C   UNL     1      41.215 -13.422  -2.961  1.00  0.00     0.086 A 
HETATM   22  C   UNL     1      42.719 -12.198  -1.451  1.00  0.00     0.034 A 
HETATM   23  C   UNL     1      41.189 -12.331  -3.844  1.00  0.00     0.034 A 
HETATM   24  N   UNL     1      40.562 -14.633  -3.050  1.00  0.00    -0.240 NA
HETATM   25  C   UNL     1      41.923 -11.184  -3.520  1.00  0.00     0.002 A 
HETATM   26  C   UNL     1      42.674 -11.121  -2.345  1.00  0.00     0.002 A 
HETATM   27  C   UNL     1      40.909 -15.286  -1.960  1.00  0.00     0.234 A 
ENDBRANCH   3  19
TORSDOF 5
ENDMDL
MODEL 6
REMARK VINA RESULT:      -7.2      2.585      3.453
REMARK  5 active torsions:
REMARK  status: ('A' for Active; 'I' for Inactive)
REMARK    1  A    between atoms: C_2  and  C_3 
REMARK    2  A    between atoms: C_6  and  C_7 
REMARK    3  A    between atoms: C_7  and  N_8 
REMARK    4  A    between atoms: C_7  and  C_21 
REMARK       I    between atoms: N_8  and  C_9 
REMARK       I    between atoms: C_9  and  N_10 
REMARK    5  A    between atoms: N_10  and  N_11 
ROOT
HETATM    1  N   UNL     1      41.339 -16.030   0.222  1.00  0.00    -0.333 N 
HETATM    2  C   UNL     1      41.336 -15.238  -0.879  1.00  0.00     0.335 C 
HETATM    3  N   UNL     1      41.997 -14.053  -0.775  1.00  0.00    -0.244 N 
HETATM    4  O   UNL     1      40.711 -15.603  -1.870  1.00  0.00    -0.246 OA
HETATM    5  H   UNL     1      40.841 -16.896   0.066  1.00  0.00     0.165 HD
HETATM    6  H   UNL     1      42.832 -14.041  -0.214  1.00  0.00     0.192 HD
ENDROOT
BRANCH   1   7
HETATM    7  C   UNL     1      41.890 -15.807   1.558  1.00  0.00     0.122 C 
BRANCH   7   8
HETATM    8  C   UNL     1      42.572 -17.088   2.015  1.00  0.00    -0.035 A 
HETATM    9  C   UNL     1      43.420 -17.784   1.142  1.00  0.00     0.010 A 
HETATM   10  C   UNL     1      44.064 -18.954   1.553  1.00  0.00     0.007 A 
HETATM   11  C   UNL     1      43.866 -19.460   2.842  1.00  0.00    -0.059 A 
HETATM   12  C   UNL     1      43.018 -18.771   3.717  1.00  0.00     0.007 A 
HETATM   13  C   UNL     1      42.377 -17.600   3.308  1.00  0.00     0.010 A 
BRANCH  11  14
HETATM   14  C   UNL     1      44.580 -20.707   3.297  1.00  0.00     0.034 C 
HETATM   15  C   UNL     1      44.301 -21.883   2.373  1.00  0.00     0.010 C 
ENDBRANCH  11  14
ENDBRANCH   7   8
BRANCH   7  16
HETATM   16  C   UNL     1      40.792 -15.310   2.541  1.00  0.00     0.005 C 
HETATM   17  C   UNL     1      40.935 -13.812   2.842  1.00  0.00     0.012 C 
HETATM   18  C   UNL     1      39.387 -15.565   1.977  1.00  0.00     0.012 C 
ENDBRANCH   7  16
ENDBRANCH   1   7
BRANCH   3  19
HETATM   19  N   UNL     1      42.112 -13.298  -1.897  1.00  0.00    -0.244 N 
HETATM   20  C   UNL     1      42.496 -11.986  -1.908  1.00  0.00     0.086 A 
HETATM   21  C   UNL     1      42.224 -11.591  -3.220  1.00  0.00     0.086 A 
HETATM   22  C   UNL     1      43.027 -11.117  -0.945  1.00  0.00     0.034 A 
HETATM   23  C   UNL     1      42.493 -10.269  -3.606  1.00  0.00     0.034 A 
HETATM   24  N   UNL     1      41.689 -12.626  -3.957  1.00  0.00    -0.240 NA
HETATM   25  C   UNL     1      43.020  -9.383  -2.659  1.00  0.00     0.002 A 
HETATM   26  C   UNL     1      43.281  -9.802  -1.353  1.00  0.00     0.002 A 
HETATM   27  C   UNL     1      41.628 -13.642  -3.123  1.00  0.00     0.234 A 
ENDBRANCH   3  19
TORSDOF 5
ENDMDL
MODEL 7
REMARK VINA RESULT:      -7.2      2.074      6.925
REMARK  5 active torsions:
REMARK  status: ('A' for Active; 'I' for Inactive)
REMARK    1  A    between atoms: C_2  and  C_3 
REMARK    2  A    between atoms: C_6  and  C_7 
REMARK    3  A    between atoms: C_7  and  N_8 
REMARK    4  A    between atoms: C_7  and  C_21 
REMARK       I    between atoms: N_8  and  C_9 
REMARK       I    between atoms: C_9  and  N_10 
REMARK    5  A    between atoms: N_10  and  N_11 
ROOT
HETATM    1  N   UNL     1      41.936 -13.615   2.164  1.00  0.00    -0.333 N 
HETATM    2  C   UNL     1      42.755 -14.394   2.913  1.00  0.00     0.335 C 
HETATM    3  N   UNL     1      42.189 -15.487   3.492  1.00  0.00    -0.244 N 
HETATM    4  O   UNL     1      43.924 -14.053   3.063  1.00  0.00    -0.246 OA
HETATM    5  H   UNL     1      42.428 -12.831   1.756  1.00  0.00     0.165 HD
HETATM    6  H   UNL     1      41.468 -15.960   2.973  1.00  0.00     0.192 HD
ENDROOT
BRANCH   1   7
HETATM    7  C   UNL     1      40.499 -13.707   1.908  1.00  0.00     0.122 C 
BRANCH   7   8
HETATM    8  C   UNL     1      40.294 -14.036   0.437  1.00  0.00    -0.035 A 
HETATM    9  C   UNL     1      39.097 -13.684  -0.203  1.00  0.00     0.010 A 
HETATM   10  C   UNL     1      38.901 -13.967  -1.557  1.00  0.00     0.007 A 
HETATM   11  C   UNL     1      39.893 -14.617  -2.299  1.00  0.00    -0.059 A 
HETATM   12  C   UNL     1      41.089 -14.973  -1.665  1.00  0.00     0.007 A 
HETATM   13  C   UNL     1      41.286 -14.688  -0.313  1.00  0.00     0.010 A 
BRANCH  11  14
HETATM   14  C   UNL     1      39.696 -14.898  -3.766  1.00  0.00     0.034 C 
HETATM   15  C   UNL     1      39.065 -16.264  -3.997  1.00  0.00     0.010 C 
ENDBRANCH  11  14
ENDBRANCH   7   8
BRANCH   7  16
HETATM   16  C   UNL     1      39.765 -12.412   2.358  1.00  0.00     0.005 C 
HETATM   17  C   UNL     1      39.422 -12.443   3.854  1.00  0.00     0.012 C 
HETATM   18  C   UNL     1      40.617 -11.166   2.076  1.00  0.00     0.012 C 
ENDBRANCH   7  16
ENDBRANCH   1   7
BRANCH   3  19
HETATM   19  N   UNL     1      43.010 -16.349   4.145  1.00  0.00    -0.244 N 
HETATM   20  C   UNL     1      43.428 -17.549   3.640  1.00  0.00     0.086 A 
HETATM   21  C   UNL     1      44.023 -18.162   4.744  1.00  0.00     0.086 A 
HETATM   22  C   UNL     1      43.349 -18.157   2.381  1.00  0.00     0.034 A 
HETATM   23  C   UNL     1      44.574 -19.445   4.600  1.00  0.00     0.034 A 
HETATM   24  N   UNL     1      43.951 -17.363   5.866  1.00  0.00    -0.240 NA
HETATM   25  C   UNL     1      44.502 -20.073   3.351  1.00  0.00     0.002 A 
HETATM   26  C   UNL     1      43.900 -19.439   2.263  1.00  0.00     0.002 A 
HETATM   27  C   UNL     1      43.325 -16.275   5.467  1.00  0.00     0.234 A 
ENDBRANCH   3  19
TORSDOF 5
ENDMDL
MODEL 8
REMARK VINA RESULT:      -7.2      2.041      3.021
REMARK  5 active torsions:
REMARK  status: ('A' for Active; 'I' for Inactive)
REMARK    1  A    between atoms: C_2  and  C_3 
REMARK    2  A    between atoms: C_6  and  C_7 
REMARK    3  A    between atoms: C_7  and  N_8 
REMARK    4  A    between atoms: C_7  and  C_21 
REMARK       I    between atoms: N_8  and  C_9 
REMARK       I    between atoms: C_9  and  N_10 
REMARK    5  A    between atoms: N_10  and  N_11 
ROOT
HETATM    1  N   UNL     1      40.998 -15.901   0.189  1.00  0.00    -0.333 N 
HETATM    2  C   UNL     1      40.988 -15.035  -0.855  1.00  0.00     0.335 C 
HETATM    3  N   UNL     1      41.558 -13.819  -0.640  1.00  0.00    -0.244 N 
HETATM    4  O   UNL     1      40.434 -15.371  -1.898  1.00  0.00    -0.246 OA
HETATM    5  H   UNL     1      40.569 -16.785  -0.049  1.00  0.00     0.165 HD
HETATM    6  H   UNL     1      42.365 -13.790  -0.039  1.00  0.00     0.192 HD
ENDROOT
BRANCH   1   7
HETATM    7  C   UNL     1      41.472 -15.735   1.563  1.00  0.00     0.122 C 
BRANCH   7   8
HETATM    8  C   UNL     1      42.274 -16.970   1.945  1.00  0.00    -0.035 A 
HETATM    9  C   UNL     1      42.134 -17.534   3.221  1.00  0.00     0.010 A 
HETATM   10  C   UNL     1      42.855 -18.676   3.580  1.00  0.00     0.007 A 
HETATM   11  C   UNL     1      43.739 -19.274   2.675  1.00  0.00    -0.059 A 
HETATM   12  C   UNL     1      43.885 -18.713   1.401  1.00  0.00     0.007 A 
HETATM   13  C   UNL     1      43.163 -17.574   1.041  1.00  0.00     0.010 A 
BRANCH  11  14
HETATM   14  C   UNL     1      44.496 -20.521   3.050  1.00  0.00     0.034 C 
HETATM   15  C   UNL     1      44.290 -21.632   2.031  1.00  0.00     0.010 C 
ENDBRANCH  11  14
ENDBRANCH   7   8
BRANCH   7  16
HETATM   16  C   UNL     1      40.290 -15.445   2.532  1.00  0.00     0.005 C 
HETATM   17  C   UNL     1      40.544 -14.189   3.377  1.00  0.00     0.012 C 
HETATM   18  C   UNL     1      38.975 -15.261   1.762  1.00  0.00     0.012 C 
ENDBRANCH   7  16
ENDBRANCH   1   7
BRANCH   3  19
HETATM   19  N   UNL     1      41.670 -12.981  -1.702  1.00  0.00    -0.244 N 
HETATM   20  C   UNL     1      40.639 -12.246  -2.217  1.00  0.00     0.086 A 
HETATM   21  C   UNL     1      41.170 -11.759  -3.413  1.00  0.00     0.086 A 
HETATM   22  C   UNL     1      39.335 -11.964  -1.792  1.00  0.00     0.034 A 
HETATM   23  C   UNL     1      40.373 -10.948  -4.235  1.00  0.00     0.034 A 
HETATM   24  N   UNL     1      42.463 -12.197  -3.608  1.00  0.00    -0.240 NA
HETATM   25  C   UNL     1      39.064 -10.657  -3.832  1.00  0.00     0.002 A 
HETATM   26  C   UNL     1      38.557 -11.158  -2.631  1.00  0.00     0.002 A 
HETATM   27  C   UNL     1      42.731 -12.941  -2.555  1.00  0.00     0.234 A 
ENDBRANCH   3  19
TORSDOF 5
ENDMDL
MODEL 9
REMARK VINA RESULT:      -7.1      3.504      7.249
REMARK  5 active torsions:
REMARK  status: ('A' for Active; 'I' for Inactive)
REMARK    1  A    between atoms: C_2  and  C_3 
REMARK    2  A    between atoms: C_6  and  C_7 
REMARK    3  A    between atoms: C_7  and  N_8 
REMARK    4  A    between atoms: C_7  and  C_21 
REMARK       I    between atoms: N_8  and  C_9 
REMARK       I    between atoms: C_9  and  N_10 
REMARK    5  A    between atoms: N_10  and  N_11 
ROOT
HETATM    1  N   UNL     1      42.947 -13.331   6.256  1.00  0.00    -0.333 N 
HETATM    2  C   UNL     1      43.506 -14.511   6.626  1.00  0.00     0.335 C 
HETATM    3  N   UNL     1      42.708 -15.610   6.547  1.00  0.00    -0.244 N 
HETATM    4  O   UNL     1      44.658 -14.515   7.049  1.00  0.00    -0.246 OA
HETATM    5  H   UNL     1      43.602 -12.564   6.329  1.00  0.00     0.165 HD
HETATM    6  H   UNL     1      42.046 -15.643   5.789  1.00  0.00     0.192 HD
ENDROOT
BRANCH   1   7
HETATM    7  C   UNL     1      41.585 -13.010   5.831  1.00  0.00     0.122 C 
BRANCH   7   8
HETATM    8  C   UNL     1      41.403 -13.493   4.399  1.00  0.00    -0.035 A 
HETATM    9  C   UNL     1      40.364 -14.379   4.082  1.00  0.00     0.010 A 
HETATM   10  C   UNL     1      40.178 -14.819   2.769  1.00  0.00     0.007 A 
HETATM   11  C   UNL     1      41.032 -14.391   1.746  1.00  0.00    -0.059 A 
HETATM   12  C   UNL     1      42.072 -13.508   2.059  1.00  0.00     0.007 A 
HETATM   13  C   UNL     1      42.257 -13.066   3.370  1.00  0.00     0.010 A 
BRANCH  11  14
HETATM   14  C   UNL     1      40.816 -14.842   0.325  1.00  0.00     0.034 C 
HETATM   15  C   UNL     1      41.458 -16.196   0.061  1.00  0.00     0.010 C 
ENDBRANCH  11  14
ENDBRANCH   7   8
BRANCH   7  16
HETATM   16  C   UNL     1      41.284 -11.496   6.014  1.00  0.00     0.005 C 
HETATM   17  C   UNL     1      39.782 -11.198   5.906  1.00  0.00     0.012 C 
HETATM   18  C   UNL     1      41.788 -10.990   7.372  1.00  0.00     0.012 C 
ENDBRANCH   7  16
ENDBRANCH   1   7
BRANCH   3  19
HETATM   19  N   UNL     1      43.277 -16.818   6.794  1.00  0.00    -0.244 N 
HETATM   20  C   UNL     1      43.620 -17.722   5.828  1.00  0.00     0.086 A 
HETATM   21  C   UNL     1      43.918 -18.869   6.565  1.00  0.00     0.086 A 
HETATM   22  C   UNL     1      43.694 -17.673   4.430  1.00  0.00     0.034 A 
HETATM   23  C   UNL     1      44.314 -20.033   5.889  1.00  0.00     0.034 A 
HETATM   24  N   UNL     1      43.747 -18.660   7.917  1.00  0.00    -0.240 NA
HETATM   25  C   UNL     1      44.391 -20.009   4.491  1.00  0.00     0.002 A 
HETATM   26  C   UNL     1      44.086 -18.848   3.777  1.00  0.00     0.002 A 
HETATM   27  C   UNL     1      43.351 -17.408   8.019  1.00  0.00     0.234 A 
ENDBRANCH   3  19
TORSDOF 5
ENDMDL
MODEL 10
REMARK VINA RESULT:      -6.8      3.028      5.211
REMARK  5 active torsions:
REMARK  status: ('A' for Active; 'I' for Inactive)
REMARK    1  A    between atoms: C_2  and  C_3 
REMARK    2  A    between atoms: C_6  and  C_7 
REMARK    3  A    between atoms: C_7  and  N_8 
REMARK    4  A    between atoms: C_7  and  C_21 
REMARK       I    between atoms: N_8  and  C_9 
REMARK       I    between atoms: C_9  and  N_10 
REMARK    5  A    between atoms: N_10  and  N_11 
ROOT
HETATM    1  N   UNL     1      42.938 -15.641   3.149  1.00  0.00    -0.333 N 
HETATM    2  C   UNL     1      42.784 -14.474   3.824  1.00  0.00     0.335 C 
HETATM    3  N   UNL     1      41.603 -14.304   4.479  1.00  0.00    -0.244 N 
HETATM    4  O   UNL     1      43.677 -13.635   3.769  1.00  0.00    -0.246 OA
HETATM    5  H   UNL     1      43.841 -15.701   2.700  1.00  0.00     0.165 HD
HETATM    6  H   UNL     1      41.185 -15.121   4.890  1.00  0.00     0.192 HD
ENDROOT
BRANCH   1   7
HETATM    7  C   UNL     1      42.012 -16.755   2.943  1.00  0.00     0.122 C 
BRANCH   7   8
HETATM    8  C   UNL     1      42.799 -18.054   3.039  1.00  0.00    -0.035 A 
HETATM    9  C   UNL     1      43.528 -18.351   4.198  1.00  0.00     0.010 A 
HETATM   10  C   UNL     1      44.244 -19.547   4.305  1.00  0.00     0.007 A 
HETATM   11  C   UNL     1      44.253 -20.467   3.251  1.00  0.00    -0.059 A 
HETATM   12  C   UNL     1      43.529 -20.174   2.090  1.00  0.00     0.007 A 
HETATM   13  C   UNL     1      42.812 -18.981   1.984  1.00  0.00     0.010 A 
BRANCH  11  14
HETATM   14  C   UNL     1      45.001 -21.769   3.374  1.00  0.00     0.034 C 
HETATM   15  C   UNL     1      44.897 -22.347   4.778  1.00  0.00     0.010 C 
ENDBRANCH  11  14
ENDBRANCH   7   8
BRANCH   7  16
HETATM   16  C   UNL     1      41.239 -16.600   1.603  1.00  0.00     0.005 C 
HETATM   17  C   UNL     1      39.851 -15.980   1.815  1.00  0.00     0.012 C 
HETATM   18  C   UNL     1      42.020 -15.727   0.610  1.00  0.00     0.012 C 
ENDBRANCH   7  16
ENDBRANCH   1   7
BRANCH   3  19
HETATM   19  N   UNL     1      41.471 -13.202   5.260  1.00  0.00    -0.244 N 
HETATM   20  C   UNL     1      40.594 -12.182   5.015  1.00  0.00     0.086 A 
HETATM   21  C   UNL     1      40.999 -11.198   5.919  1.00  0.00     0.086 A 
HETATM   22  C   UNL     1      39.527 -12.007   4.125  1.00  0.00     0.034 A 
HETATM   23  C   UNL     1      40.313  -9.974   5.950  1.00  0.00     0.034 A 
HETATM   24  N   UNL     1      42.083 -11.611   6.665  1.00  0.00    -0.240 NA
HETATM   25  C   UNL     1      39.246  -9.776   5.066  1.00  0.00     0.002 A 
HETATM   26  C   UNL     1      38.862 -10.776   4.171  1.00  0.00     0.002 A 
HETATM   27  C   UNL     1      42.346 -12.827   6.234  1.00  0.00     0.234 A 
ENDBRANCH   3  19
TORSDOF 5
ENDMDL
