MODEL 1
REMARK VINA RESULT:      -7.1      0.000      0.000
REMARK  5 active torsions:
REMARK  status: ('A' for Active; 'I' for Inactive)
REMARK    1  A    between atoms: C_2  and  O_3 
REMARK    2  A    between atoms: C_4  and  C_5 
REMARK    3  A    between atoms: C_5  and  O_6 
REMARK    4  A    between atoms: C_9  and  C_10 
REMARK    5  A    between atoms: C_22  and  O_23 
ROOT
HETATM    1  C   UNL     1      42.079 -13.277   4.676  1.00  0.00     0.047 C 
HETATM    2  C   UNL     1      41.491 -14.676   4.945  1.00  0.00     0.073 C 
HETATM    3  C   UNL     1      42.569 -15.774   4.617  1.00  0.00     0.133 C 
HETATM    4  C   UNL     1      42.800 -16.055   3.092  1.00  0.00     0.074 C 
HETATM    5  C   UNL     1      41.671 -15.583   2.233  1.00  0.00     0.030 A 
HETATM    6  C   UNL     1      40.492 -15.067   2.723  1.00  0.00     0.042 A 
HETATM    7  N   UNL     1      39.728 -14.717   1.647  1.00  0.00    -0.279 N 
HETATM    8  H   UNL     1      38.800 -14.304   1.631  1.00  0.00     0.189 HD
HETATM    9  N   UNL     1      40.360 -14.927   0.472  1.00  0.00    -0.149 NA
HETATM   10  C   UNL     1      41.524 -15.437   0.852  1.00  0.00     0.190 A 
HETATM   11  C   UNL     1      40.166 -14.859   4.148  1.00  0.00     0.097 C 
ENDROOT
BRANCH   4  12
HETATM   12  C   UNL     1      43.034 -17.509   2.696  1.00  0.00    -0.048 A 
HETATM   13  C   UNL     1      42.060 -18.278   2.027  1.00  0.00     0.009 A 
HETATM   14  C   UNL     1      42.294 -19.616   1.705  1.00  0.00     0.024 A 
HETATM   15  C   UNL     1      43.506 -20.206   2.048  1.00  0.00     0.034 A 
HETATM   16 CL   UNL     1      43.794 -21.856   1.657  1.00  0.00    -0.084 Cl
HETATM   17  C   UNL     1      44.485 -19.468   2.710  1.00  0.00     0.024 A 
HETATM   18  C   UNL     1      44.250 -18.128   3.034  1.00  0.00     0.009 A 
ENDBRANCH   4  12
BRANCH   3  19
HETATM   19  C   UNL     1      42.289 -17.033   5.414  1.00  0.00     0.266 C 
HETATM   20  O   UNL     1      41.277 -17.715   5.306  1.00  0.00    -0.265 OA
BRANCH  19  21
HETATM   21  O   UNL     1      43.299 -17.263   6.302  1.00  0.00    -0.326 OA
HETATM   22  C   UNL     1      42.874 -17.411   7.657  1.00  0.00     0.213 C 
ENDBRANCH  19  21
ENDBRANCH   3  19
BRANCH   2  23
HETATM   23  O   UNL     1      41.184 -14.671   6.350  1.00  0.00    -0.389 OA
HETATM   24  H   UNL     1      42.007 -14.453   6.836  1.00  0.00     0.210 HD
ENDBRANCH   2  23
BRANCH  10  25
HETATM   25  O   UNL     1      42.381 -15.698  -0.129  1.00  0.00    -0.343 OA
HETATM   26  H   UNL     1      43.220 -15.311   0.171  1.00  0.00     0.219 HD
ENDBRANCH  10  25
TORSDOF 5
ENDMDL
MODEL 2
REMARK VINA RESULT:      -7.0      3.386      5.069
REMARK  5 active torsions:
REMARK  status: ('A' for Active; 'I' for Inactive)
REMARK    1  A    between atoms: C_2  and  O_3 
REMARK    2  A    between atoms: C_4  and  C_5 
REMARK    3  A    between atoms: C_5  and  O_6 
REMARK    4  A    between atoms: C_9  and  C_10 
REMARK    5  A    between atoms: C_22  and  O_23 
ROOT
HETATM    1  C   UNL     1      43.263 -20.029   7.263  1.00  0.00     0.047 C 
HETATM    2  C   UNL     1      43.779 -18.647   6.816  1.00  0.00     0.073 C 
HETATM    3  C   UNL     1      42.661 -17.903   5.998  1.00  0.00     0.133 C 
HETATM    4  C   UNL     1      42.453 -18.410   4.530  1.00  0.00     0.074 C 
HETATM    5  C   UNL     1      43.622 -19.180   4.005  1.00  0.00     0.030 A 
HETATM    6  C   UNL     1      44.811 -19.333   4.682  1.00  0.00     0.042 A 
HETATM    7  N   UNL     1      45.615 -20.122   3.910  1.00  0.00    -0.279 N 
HETATM    8  H   UNL     1      46.561 -20.442   4.095  1.00  0.00     0.189 HD
HETATM    9  N   UNL     1      45.001 -20.540   2.782  1.00  0.00    -0.149 NA
HETATM   10  C   UNL     1      43.806 -19.970   2.869  1.00  0.00     0.190 A 
HETATM   11  C   UNL     1      45.113 -18.806   6.028  1.00  0.00     0.097 C 
ENDROOT
BRANCH   4  12
HETATM   12  C   UNL     1      42.161 -17.344   3.478  1.00  0.00    -0.048 A 
HETATM   13  C   UNL     1      43.180 -16.589   2.863  1.00  0.00     0.009 A 
HETATM   14  C   UNL     1      42.878 -15.599   1.925  1.00  0.00     0.024 A 
HETATM   15  C   UNL     1      41.552 -15.350   1.589  1.00  0.00     0.034 A 
HETATM   16 CL   UNL     1      41.178 -14.127   0.438  1.00  0.00    -0.084 Cl
HETATM   17  C   UNL     1      40.527 -16.082   2.183  1.00  0.00     0.024 A 
HETATM   18  C   UNL     1      40.828 -17.072   3.123  1.00  0.00     0.009 A 
ENDBRANCH   4  12
BRANCH   3  19
HETATM   19  C   UNL     1      42.865 -16.403   6.084  1.00  0.00     0.266 C 
HETATM   20  O   UNL     1      43.953 -15.844   6.022  1.00  0.00    -0.265 OA
BRANCH  19  21
HETATM   21  O   UNL     1      41.671 -15.776   6.290  1.00  0.00    -0.326 OA
HETATM   22  C   UNL     1      41.565 -14.489   5.680  1.00  0.00     0.213 C 
ENDBRANCH  19  21
ENDBRANCH   3  19
BRANCH   2  23
HETATM   23  O   UNL     1      44.055 -17.954   8.047  1.00  0.00    -0.389 OA
HETATM   24  H   UNL     1      43.413 -17.217   8.125  1.00  0.00     0.210 HD
ENDBRANCH   2  23
BRANCH  10  25
HETATM   25  O   UNL     1      42.961 -20.262   1.886  1.00  0.00    -0.343 OA
HETATM   26  H   UNL     1      43.001 -21.231   1.811  1.00  0.00     0.219 HD
ENDBRANCH  10  25
TORSDOF 5
ENDMDL
MODEL 3
REMARK VINA RESULT:      -6.8      2.538      4.522
REMARK  5 active torsions:
REMARK  status: ('A' for Active; 'I' for Inactive)
REMARK    1  A    between atoms: C_2  and  O_3 
REMARK    2  A    between atoms: C_4  and  C_5 
REMARK    3  A    between atoms: C_5  and  O_6 
REMARK    4  A    between atoms: C_9  and  C_10 
REMARK    5  A    between atoms: C_22  and  O_23 
ROOT
HETATM    1  C   UNL     1      38.182 -14.589   1.355  1.00  0.00     0.047 C 
HETATM    2  C   UNL     1      39.714 -14.697   1.224  1.00  0.00     0.073 C 
HETATM    3  C   UNL     1      40.229 -15.937   2.041  1.00  0.00     0.133 C 
HETATM    4  C   UNL     1      40.277 -15.745   3.596  1.00  0.00     0.074 C 
HETATM    5  C   UNL     1      40.265 -14.308   4.009  1.00  0.00     0.030 A 
HETATM    6  C   UNL     1      40.329 -13.252   3.128  1.00  0.00     0.042 A 
HETATM    7  N   UNL     1      40.258 -12.107   3.866  1.00  0.00    -0.279 N 
HETATM    8  H   UNL     1      40.274 -11.142   3.550  1.00  0.00     0.189 HD
HETATM    9  N   UNL     1      40.098 -12.350   5.185  1.00  0.00    -0.149 NA
HETATM   10  C   UNL     1      40.095 -13.675   5.241  1.00  0.00     0.190 A 
HETATM   11  C   UNL     1      40.380 -13.357   1.655  1.00  0.00     0.097 C 
ENDROOT
BRANCH   4  12
HETATM   12  C   UNL     1      41.465 -16.369   4.322  1.00  0.00    -0.048 A 
HETATM   13  C   UNL     1      41.424 -17.672   4.860  1.00  0.00     0.009 A 
HETATM   14  C   UNL     1      42.518 -18.203   5.545  1.00  0.00     0.024 A 
HETATM   15  C   UNL     1      43.669 -17.439   5.704  1.00  0.00     0.034 A 
HETATM   16 CL   UNL     1      45.016 -18.089   6.554  1.00  0.00    -0.084 Cl
HETATM   17  C   UNL     1      43.734 -16.148   5.184  1.00  0.00     0.024 A 
HETATM   18  C   UNL     1      42.638 -15.615   4.498  1.00  0.00     0.009 A 
ENDBRANCH   4  12
BRANCH   3  19
HETATM   19  C   UNL     1      41.542 -16.431   1.465  1.00  0.00     0.266 C 
HETATM   20  O   UNL     1      42.456 -15.705   1.094  1.00  0.00    -0.265 OA
BRANCH  19  21
HETATM   21  O   UNL     1      41.535 -17.792   1.374  1.00  0.00    -0.326 OA
HETATM   22  C   UNL     1      42.803 -18.407   1.606  1.00  0.00     0.213 C 
ENDBRANCH  19  21
ENDBRANCH   3  19
BRANCH   2  23
HETATM   23  O   UNL     1      39.939 -14.888  -0.185  1.00  0.00    -0.389 OA
HETATM   24  H   UNL     1      40.757 -15.416  -0.288  1.00  0.00     0.210 HD
ENDBRANCH   2  23
BRANCH  10  25
HETATM   25  O   UNL     1      39.901 -14.195   6.448  1.00  0.00    -0.343 OA
HETATM   26  H   UNL     1      39.004 -13.912   6.694  1.00  0.00     0.219 HD
ENDBRANCH  10  25
TORSDOF 5
ENDMDL
MODEL 4
REMARK VINA RESULT:      -6.8      3.890      6.264
REMARK  5 active torsions:
REMARK  status: ('A' for Active; 'I' for Inactive)
REMARK    1  A    between atoms: C_2  and  O_3 
REMARK    2  A    between atoms: C_4  and  C_5 
REMARK    3  A    between atoms: C_5  and  O_6 
REMARK    4  A    between atoms: C_9  and  C_10 
REMARK    5  A    between atoms: C_22  and  O_23 
ROOT
HETATM    1  C   UNL     1      44.965 -18.836   4.477  1.00  0.00     0.047 C 
HETATM    2  C   UNL     1      43.468 -18.509   4.314  1.00  0.00     0.073 C 
HETATM    3  C   UNL     1      43.298 -17.009   3.876  1.00  0.00     0.133 C 
HETATM    4  C   UNL     1      43.508 -15.948   5.011  1.00  0.00     0.074 C 
HETATM    5  C   UNL     1      43.385 -16.528   6.383  1.00  0.00     0.030 A 
HETATM    6  C   UNL     1      43.006 -17.827   6.641  1.00  0.00     0.042 A 
HETATM    7  N   UNL     1      43.043 -17.996   7.995  1.00  0.00    -0.279 N 
HETATM    8  H   UNL     1      42.827 -18.826   8.540  1.00  0.00     0.189 HD
HETATM    9  N   UNL     1      43.476 -16.893   8.643  1.00  0.00    -0.149 NA
HETATM   10  C   UNL     1      43.682 -16.033   7.654  1.00  0.00     0.190 A 
HETATM   11  C   UNL     1      42.702 -18.856   5.626  1.00  0.00     0.097 C 
ENDROOT
BRANCH   4  12
HETATM   12  C   UNL     1      42.578 -14.740   4.993  1.00  0.00    -0.048 A 
HETATM   13  C   UNL     1      41.333 -14.734   5.655  1.00  0.00     0.009 A 
HETATM   14  C   UNL     1      40.490 -13.622   5.595  1.00  0.00     0.024 A 
HETATM   15  C   UNL     1      40.880 -12.500   4.872  1.00  0.00     0.034 A 
HETATM   16 CL   UNL     1      39.840 -11.131   4.792  1.00  0.00    -0.084 Cl
HETATM   17  C   UNL     1      42.104 -12.481   4.208  1.00  0.00     0.024 A 
HETATM   18  C   UNL     1      42.948 -13.595   4.267  1.00  0.00     0.009 A 
ENDBRANCH   4  12
BRANCH   3  19
HETATM   19  C   UNL     1      41.989 -16.829   3.133  1.00  0.00     0.266 C 
HETATM   20  O   UNL     1      40.914 -17.293   3.493  1.00  0.00    -0.265 OA
BRANCH  19  21
HETATM   21  O   UNL     1      42.192 -16.122   1.984  1.00  0.00    -0.326 OA
HETATM   22  C   UNL     1      41.100 -15.283   1.604  1.00  0.00     0.213 C 
ENDBRANCH  19  21
ENDBRANCH   3  19
BRANCH   2  23
HETATM   23  O   UNL     1      43.019 -19.396   3.274  1.00  0.00    -0.389 OA
HETATM   24  H   UNL     1      42.479 -20.099   3.693  1.00  0.00     0.210 HD
ENDBRANCH   2  23
BRANCH  10  25
HETATM   25  O   UNL     1      44.169 -14.852   8.018  1.00  0.00    -0.343 OA
HETATM   26  H   UNL     1      43.817 -14.708   8.913  1.00  0.00     0.219 HD
ENDBRANCH  10  25
TORSDOF 5
ENDMDL
MODEL 5
REMARK VINA RESULT:      -6.8      2.732      4.429
REMARK  5 active torsions:
REMARK  status: ('A' for Active; 'I' for Inactive)
REMARK    1  A    between atoms: C_2  and  O_3 
REMARK    2  A    between atoms: C_4  and  C_5 
REMARK    3  A    between atoms: C_5  and  O_6 
REMARK    4  A    between atoms: C_9  and  C_10 
REMARK    5  A    between atoms: C_22  and  O_23 
ROOT
HETATM    1  C   UNL     1      41.045 -13.311   5.454  1.00  0.00     0.047 C 
HETATM    2  C   UNL     1      42.294 -13.692   4.635  1.00  0.00     0.073 C 
HETATM    3  C   UNL     1      42.042 -15.053   3.888  1.00  0.00     0.133 C 
HETATM    4  C   UNL     1      42.116 -16.336   4.785  1.00  0.00     0.074 C 
HETATM    5  C   UNL     1      42.846 -16.110   6.070  1.00  0.00     0.030 A 
HETATM    6  C   UNL     1      43.495 -14.940   6.393  1.00  0.00     0.042 A 
HETATM    7  N   UNL     1      44.006 -15.097   7.649  1.00  0.00    -0.279 N 
HETATM    8  H   UNL     1      44.543 -14.438   8.206  1.00  0.00     0.189 HD
HETATM    9  N   UNL     1      43.685 -16.290   8.194  1.00  0.00    -0.149 NA
HETATM   10  C   UNL     1      42.982 -16.873   7.232  1.00  0.00     0.190 A 
HETATM   11  C   UNL     1      43.547 -13.722   5.559  1.00  0.00     0.097 C 
ENDROOT
BRANCH   4  12
HETATM   12  C   UNL     1      42.764 -17.567   4.158  1.00  0.00    -0.048 A 
HETATM   13  C   UNL     1      43.972 -18.114   4.639  1.00  0.00     0.009 A 
HETATM   14  C   UNL     1      44.556 -19.224   4.025  1.00  0.00     0.024 A 
HETATM   15  C   UNL     1      43.941 -19.803   2.920  1.00  0.00     0.034 A 
HETATM   16 CL   UNL     1      44.661 -21.167   2.159  1.00  0.00    -0.084 Cl
HETATM   17  C   UNL     1      42.748 -19.281   2.425  1.00  0.00     0.024 A 
HETATM   18  C   UNL     1      42.164 -18.169   3.039  1.00  0.00     0.009 A 
ENDBRANCH   4  12
BRANCH   3  19
HETATM   19  C   UNL     1      42.921 -15.140   2.656  1.00  0.00     0.266 C 
HETATM   20  O   UNL     1      44.140 -15.260   2.677  1.00  0.00    -0.265 OA
BRANCH  19  21
HETATM   21  O   UNL     1      42.165 -15.014   1.527  1.00  0.00    -0.326 OA
HETATM   22  C   UNL     1      40.756 -15.014   1.755  1.00  0.00     0.213 C 
ENDBRANCH  19  21
ENDBRANCH   3  19
BRANCH   2  23
HETATM   23  O   UNL     1      42.445 -12.616   3.693  1.00  0.00    -0.389 OA
HETATM   24  H   UNL     1      43.358 -12.269   3.779  1.00  0.00     0.210 HD
ENDBRANCH   2  23
BRANCH  10  25
HETATM   25  O   UNL     1      42.491 -18.070   7.529  1.00  0.00    -0.343 OA
HETATM   26  H   UNL     1      41.766 -17.889   8.152  1.00  0.00     0.219 HD
ENDBRANCH  10  25
TORSDOF 5
ENDMDL
MODEL 6
REMARK VINA RESULT:      -6.6      3.520      6.166
REMARK  5 active torsions:
REMARK  status: ('A' for Active; 'I' for Inactive)
REMARK    1  A    between atoms: C_2  and  O_3 
REMARK    2  A    between atoms: C_4  and  C_5 
REMARK    3  A    between atoms: C_5  and  O_6 
REMARK    4  A    between atoms: C_9  and  C_10 
REMARK    5  A    between atoms: C_22  and  O_23 
ROOT
HETATM    1  C   UNL     1      44.346 -17.312   1.364  1.00  0.00     0.047 C 
HETATM    2  C   UNL     1      42.854 -16.981   1.566  1.00  0.00     0.073 C 
HETATM    3  C   UNL     1      42.710 -15.541   2.181  1.00  0.00     0.133 C 
HETATM    4  C   UNL     1      43.045 -15.426   3.708  1.00  0.00     0.074 C 
HETATM    5  C   UNL     1      43.001 -16.741   4.418  1.00  0.00     0.030 A 
HETATM    6  C   UNL     1      42.594 -17.919   3.834  1.00  0.00     0.042 A 
HETATM    7  N   UNL     1      42.725 -18.901   4.774  1.00  0.00    -0.279 N 
HETATM    8  H   UNL     1      42.519 -19.892   4.693  1.00  0.00     0.189 HD
HETATM    9  N   UNL     1      43.246 -18.443   5.932  1.00  0.00    -0.149 NA
HETATM   10  C   UNL     1      43.412 -17.149   5.688  1.00  0.00     0.190 A 
HETATM   11  C   UNL     1      42.176 -18.088   2.427  1.00  0.00     0.097 C 
ENDROOT
BRANCH   4  12
HETATM   12  C   UNL     1      42.162 -14.490   4.529  1.00  0.00    -0.048 A 
HETATM   13  C   UNL     1      40.968 -14.921   5.143  1.00  0.00     0.009 A 
HETATM   14  C   UNL     1      40.166 -14.033   5.863  1.00  0.00     0.024 A 
HETATM   15  C   UNL     1      40.547 -12.700   5.978  1.00  0.00     0.034 A 
HETATM   16 CL   UNL     1      39.558 -11.603   6.860  1.00  0.00    -0.084 Cl
HETATM   17  C   UNL     1      41.721 -12.249   5.380  1.00  0.00     0.024 A 
HETATM   18  C   UNL     1      42.523 -13.138   4.658  1.00  0.00     0.009 A 
ENDBRANCH   4  12
BRANCH   3  19
HETATM   19  C   UNL     1      41.357 -14.957   1.826  1.00  0.00     0.266 C 
HETATM   20  O   UNL     1      40.296 -15.565   1.897  1.00  0.00    -0.265 OA
BRANCH  19  21
HETATM   21  O   UNL     1      41.499 -13.679   1.369  1.00  0.00    -0.326 OA
HETATM   22  C   UNL     1      41.697 -13.573  -0.041  1.00  0.00     0.213 C 
ENDBRANCH  19  21
ENDBRANCH   3  19
BRANCH   2  23
HETATM   23  O   UNL     1      42.296 -17.026   0.241  1.00  0.00    -0.389 OA
HETATM   24  H   UNL     1      41.320 -17.037   0.328  1.00  0.00     0.210 HD
ENDBRANCH   2  23
BRANCH  10  25
HETATM   25  O   UNL     1      43.968 -16.450   6.671  1.00  0.00    -0.343 OA
HETATM   26  H   UNL     1      44.417 -17.115   7.219  1.00  0.00     0.219 HD
ENDBRANCH  10  25
TORSDOF 5
ENDMDL
MODEL 7
REMARK VINA RESULT:      -6.4      2.521      3.283
REMARK  5 active torsions:
REMARK  status: ('A' for Active; 'I' for Inactive)
REMARK    1  A    between atoms: C_2  and  O_3 
REMARK    2  A    between atoms: C_4  and  C_5 
REMARK    3  A    between atoms: C_5  and  O_6 
REMARK    4  A    between atoms: C_9  and  C_10 
REMARK    5  A    between atoms: C_22  and  O_23 
ROOT
HETATM    1  C   UNL     1      42.399 -12.795   1.766  1.00  0.00     0.047 C 
HETATM    2  C   UNL     1      42.035 -13.025   3.246  1.00  0.00     0.073 C 
HETATM    3  C   UNL     1      43.057 -14.032   3.892  1.00  0.00     0.133 C 
HETATM    4  C   UNL     1      42.853 -15.537   3.504  1.00  0.00     0.074 C 
HETATM    5  C   UNL     1      41.487 -15.824   2.971  1.00  0.00     0.030 A 
HETATM    6  C   UNL     1      40.465 -14.902   2.931  1.00  0.00     0.042 A 
HETATM    7  N   UNL     1      39.392 -15.515   2.349  1.00  0.00    -0.279 N 
HETATM    8  H   UNL     1      38.469 -15.137   2.156  1.00  0.00     0.189 HD
HETATM    9  N   UNL     1      39.668 -16.777   1.955  1.00  0.00    -0.149 NA
HETATM   10  C   UNL     1      40.930 -16.933   2.330  1.00  0.00     0.190 A 
HETATM   11  C   UNL     1      40.554 -13.493   3.363  1.00  0.00     0.097 C 
ENDROOT
BRANCH   4  12
HETATM   12  C   UNL     1      43.082 -16.561   4.612  1.00  0.00    -0.048 A 
HETATM   13  C   UNL     1      42.180 -16.732   5.682  1.00  0.00     0.009 A 
HETATM   14  C   UNL     1      42.433 -17.657   6.697  1.00  0.00     0.024 A 
HETATM   15  C   UNL     1      43.593 -18.424   6.657  1.00  0.00     0.034 A 
HETATM   16 CL   UNL     1      43.909 -19.561   7.909  1.00  0.00    -0.084 Cl
HETATM   17  C   UNL     1      44.500 -18.273   5.611  1.00  0.00     0.024 A 
HETATM   18  C   UNL     1      44.248 -17.346   4.595  1.00  0.00     0.009 A 
ENDBRANCH   4  12
BRANCH   3  19
HETATM   19  C   UNL     1      43.129 -13.810   5.390  1.00  0.00     0.266 C 
HETATM   20  O   UNL     1      42.175 -13.503   6.095  1.00  0.00    -0.265 OA
BRANCH  19  21
HETATM   21  O   UNL     1      44.414 -13.951   5.826  1.00  0.00    -0.326 OA
HETATM   22  C   UNL     1      44.537 -14.254   7.216  1.00  0.00     0.213 C 
ENDBRANCH  19  21
ENDBRANCH   3  19
BRANCH   2  23
HETATM   23  O   UNL     1      42.154 -11.724   3.849  1.00  0.00    -0.389 OA
HETATM   24  H   UNL     1      42.789 -11.796   4.592  1.00  0.00     0.210 HD
ENDBRANCH   2  23
BRANCH  10  25
HETATM   25  O   UNL     1      41.480 -18.100   2.013  1.00  0.00    -0.343 OA
HETATM   26  H   UNL     1      40.995 -18.751   2.548  1.00  0.00     0.219 HD
ENDBRANCH  10  25
TORSDOF 5
ENDMDL
MODEL 8
REMARK VINA RESULT:      -6.3      3.280      5.110
REMARK  5 active torsions:
REMARK  status: ('A' for Active; 'I' for Inactive)
REMARK    1  A    between atoms: C_2  and  O_3 
REMARK    2  A    between atoms: C_4  and  C_5 
REMARK    3  A    between atoms: C_5  and  O_6 
REMARK    4  A    between atoms: C_9  and  C_10 
REMARK    5  A    between atoms: C_22  and  O_23 
ROOT
HETATM    1  C   UNL     1      43.631 -15.233   5.894  1.00  0.00     0.047 C 
HETATM    2  C   UNL     1      42.538 -16.056   5.184  1.00  0.00     0.073 C 
HETATM    3  C   UNL     1      42.387 -15.565   3.698  1.00  0.00     0.133 C 
HETATM    4  C   UNL     1      41.625 -14.207   3.512  1.00  0.00     0.074 C 
HETATM    5  C   UNL     1      40.788 -13.840   4.695  1.00  0.00     0.030 A 
HETATM    6  C   UNL     1      40.599 -14.654   5.789  1.00  0.00     0.042 A 
HETATM    7  N   UNL     1      39.813 -13.968   6.670  1.00  0.00    -0.279 N 
HETATM    8  H   UNL     1      39.474 -14.259   7.582  1.00  0.00     0.189 HD
HETATM    9  N   UNL     1      39.516 -12.723   6.239  1.00  0.00    -0.149 NA
HETATM   10  C   UNL     1      40.120 -12.669   5.059  1.00  0.00     0.190 A 
HETATM   11  C   UNL     1      41.208 -15.983   5.993  1.00  0.00     0.097 C 
ENDROOT
BRANCH   4  12
HETATM   12  C   UNL     1      40.695 -14.109   2.307  1.00  0.00    -0.048 A 
HETATM   13  C   UNL     1      39.343 -14.506   2.361  1.00  0.00     0.009 A 
HETATM   14  C   UNL     1      38.524 -14.431   1.232  1.00  0.00     0.024 A 
HETATM   15  C   UNL     1      39.046 -13.960   0.033  1.00  0.00     0.034 A 
HETATM   16 CL   UNL     1      38.041 -13.873  -1.361  1.00  0.00    -0.084 Cl
HETATM   17  C   UNL     1      40.379 -13.564  -0.047  1.00  0.00     0.024 A 
HETATM   18  C   UNL     1      41.199 -13.639   1.083  1.00  0.00     0.009 A 
ENDBRANCH   4  12
BRANCH   3  19
HETATM   19  C   UNL     1      41.828 -16.680   2.836  1.00  0.00     0.266 C 
HETATM   20  O   UNL     1      40.899 -17.410   3.159  1.00  0.00    -0.265 OA
BRANCH  19  21
HETATM   21  O   UNL     1      42.541 -16.783   1.677  1.00  0.00    -0.326 OA
HETATM   22  C   UNL     1      43.944 -16.970   1.860  1.00  0.00     0.213 C 
ENDBRANCH  19  21
ENDBRANCH   3  19
BRANCH   2  23
HETATM   23  O   UNL     1      43.025 -17.409   5.225  1.00  0.00    -0.389 OA
HETATM   24  H   UNL     1      43.535 -17.568   4.403  1.00  0.00     0.210 HD
ENDBRANCH   2  23
BRANCH  10  25
HETATM   25  O   UNL     1      40.026 -11.507   4.422  1.00  0.00    -0.343 OA
HETATM   26  H   UNL     1      40.616 -10.911   4.913  1.00  0.00     0.219 HD
ENDBRANCH  10  25
TORSDOF 5
ENDMDL
MODEL 9
REMARK VINA RESULT:      -6.3      3.332      5.259
REMARK  5 active torsions:
REMARK  status: ('A' for Active; 'I' for Inactive)
REMARK    1  A    between atoms: C_2  and  O_3 
REMARK    2  A    between atoms: C_4  and  C_5 
REMARK    3  A    between atoms: C_5  and  O_6 
REMARK    4  A    between atoms: C_9  and  C_10 
REMARK    5  A    between atoms: C_22  and  O_23 
ROOT
HETATM    1  C   UNL     1      41.379 -16.542   5.993  1.00  0.00     0.047 C 
HETATM    2  C   UNL     1      41.785 -15.274   5.216  1.00  0.00     0.073 C 
HETATM    3  C   UNL     1      40.565 -14.760   4.367  1.00  0.00     0.133 C 
HETATM    4  C   UNL     1      40.259 -15.579   3.067  1.00  0.00     0.074 C 
HETATM    5  C   UNL     1      41.416 -16.409   2.611  1.00  0.00     0.030 A 
HETATM    6  C   UNL     1      42.665 -16.374   3.190  1.00  0.00     0.042 A 
HETATM    7  N   UNL     1      43.439 -17.286   2.532  1.00  0.00    -0.279 N 
HETATM    8  H   UNL     1      44.412 -17.530   2.691  1.00  0.00     0.189 HD
HETATM    9  N   UNL     1      42.753 -17.958   1.582  1.00  0.00    -0.149 NA
HETATM   10  C   UNL     1      41.543 -17.420   1.657  1.00  0.00     0.190 A 
HETATM   11  C   UNL     1      43.054 -15.560   4.359  1.00  0.00     0.097 C 
ENDROOT
BRANCH   4  12
HETATM   12  C   UNL     1      39.825 -14.777   1.844  1.00  0.00    -0.048 A 
HETATM   13  C   UNL     1      40.748 -14.128   0.999  1.00  0.00     0.009 A 
HETATM   14  C   UNL     1      40.318 -13.375  -0.096  1.00  0.00     0.024 A 
HETATM   15  C   UNL     1      38.958 -13.260  -0.361  1.00  0.00     0.034 A 
HETATM   16 CL   UNL     1      38.425 -12.329  -1.706  1.00  0.00    -0.084 Cl
HETATM   17  C   UNL     1      38.025 -13.890   0.460  1.00  0.00     0.024 A 
HETATM   18  C   UNL     1      38.456 -14.643   1.557  1.00  0.00     0.009 A 
ENDBRANCH   4  12
BRANCH   3  19
HETATM   19  C   UNL     1      40.700 -13.272   4.112  1.00  0.00     0.266 C 
HETATM   20  O   UNL     1      41.740 -12.712   3.790  1.00  0.00    -0.265 OA
BRANCH  19  21
HETATM   21  O   UNL     1      39.511 -12.644   4.342  1.00  0.00    -0.326 OA
HETATM   22  C   UNL     1      39.124 -12.592   5.716  1.00  0.00     0.213 C 
ENDBRANCH  19  21
ENDBRANCH   3  19
BRANCH   2  23
HETATM   23  O   UNL     1      42.129 -14.323   6.240  1.00  0.00    -0.389 OA
HETATM   24  H   UNL     1      43.035 -14.531   6.549  1.00  0.00     0.210 HD
ENDBRANCH   2  23
BRANCH  10  25
HETATM   25  O   UNL     1      40.634 -17.944   0.843  1.00  0.00    -0.343 OA
HETATM   26  H   UNL     1      39.838 -17.405   0.987  1.00  0.00     0.219 HD
ENDBRANCH  10  25
TORSDOF 5
ENDMDL
MODEL 10
REMARK VINA RESULT:      -6.3      3.181      5.198
REMARK  5 active torsions:
REMARK  status: ('A' for Active; 'I' for Inactive)
REMARK    1  A    between atoms: C_2  and  O_3 
REMARK    2  A    between atoms: C_4  and  C_5 
REMARK    3  A    between atoms: C_5  and  O_6 
REMARK    4  A    between atoms: C_9  and  C_10 
REMARK    5  A    between atoms: C_22  and  O_23 
ROOT
HETATM    1  C   UNL     1      42.610 -18.770   3.193  1.00  0.00     0.047 C 
HETATM    2  C   UNL     1      43.238 -17.415   3.575  1.00  0.00     0.073 C 
HETATM    3  C   UNL     1      42.226 -16.592   4.454  1.00  0.00     0.133 C 
HETATM    4  C   UNL     1      41.038 -15.933   3.672  1.00  0.00     0.074 C 
HETATM    5  C   UNL     1      41.300 -15.809   2.205  1.00  0.00     0.030 A 
HETATM    6  C   UNL     1      42.500 -16.122   1.607  1.00  0.00     0.042 A 
HETATM    7  N   UNL     1      42.347 -15.917   0.266  1.00  0.00    -0.279 N 
HETATM    8  H   UNL     1      43.024 -16.047  -0.480  1.00  0.00     0.189 HD
HETATM    9  N   UNL     1      41.094 -15.534  -0.060  1.00  0.00    -0.149 NA
HETATM   10  C   UNL     1      40.486 -15.487   1.118  1.00  0.00     0.190 A 
HETATM   11  C   UNL     1      43.693 -16.659   2.292  1.00  0.00     0.097 C 
ENDROOT
BRANCH   4  12
HETATM   12  C   UNL     1      40.611 -14.542   4.129  1.00  0.00    -0.048 A 
HETATM   13  C   UNL     1      41.008 -13.369   3.456  1.00  0.00     0.009 A 
HETATM   14  C   UNL     1      40.625 -12.108   3.917  1.00  0.00     0.024 A 
HETATM   15  C   UNL     1      39.839 -12.001   5.059  1.00  0.00     0.034 A 
HETATM   16 CL   UNL     1      39.371 -10.449   5.633  1.00  0.00    -0.084 Cl
HETATM   17  C   UNL     1      39.434 -13.145   5.744  1.00  0.00     0.024 A 
HETATM   18  C   UNL     1      39.819 -14.408   5.282  1.00  0.00     0.009 A 
ENDBRANCH   4  12
BRANCH   3  19
HETATM   19  C   UNL     1      42.977 -15.607   5.328  1.00  0.00     0.266 C 
HETATM   20  O   UNL     1      43.697 -14.710   4.906  1.00  0.00    -0.265 OA
BRANCH  19  21
HETATM   21  O   UNL     1      42.776 -15.897   6.646  1.00  0.00    -0.326 OA
HETATM   22  C   UNL     1      42.001 -17.072   6.882  1.00  0.00     0.213 C 
ENDBRANCH  19  21
ENDBRANCH   3  19
BRANCH   2  23
HETATM   23  O   UNL     1      44.405 -17.765   4.340  1.00  0.00    -0.389 OA
HETATM   24  H   UNL     1      44.173 -17.698   5.289  1.00  0.00     0.210 HD
ENDBRANCH   2  23
BRANCH  10  25
HETATM   25  O   UNL     1      39.195 -15.174   1.082  1.00  0.00    -0.343 OA
HETATM   26  H   UNL     1      39.018 -14.978   0.146  1.00  0.00     0.219 HD
ENDBRANCH  10  25
TORSDOF 5
ENDMDL
