MODEL 1
REMARK VINA RESULT:      -8.8      0.000      0.000
REMARK  6 active torsions:
REMARK  status: ('A' for Active; 'I' for Inactive)
REMARK    1  A    between atoms: O_2  and  C_3 
REMARK    2  A    between atoms: C_6  and  C_7 
REMARK    3  A    between atoms: C_13  and  C_14 
REMARK       I    between atoms: C_14  and  N_15 
REMARK    4  A    between atoms: N_15  and  C_16 
REMARK    5  A    between atoms: C_18  and  O_19 
REMARK    6  A    between atoms: C_24  and  C_25 
ROOT
HETATM    1  C   UNL     1      41.036 -17.115   5.223  1.00  0.00     0.118 C 
HETATM    2  N   UNL     1      40.586 -16.459   3.985  1.00  0.00    -0.365 N 
HETATM    3  C   UNL     1      40.988 -15.192   3.677  1.00  0.00     0.138 A 
HETATM    4  N   UNL     1      41.744 -14.450   4.554  1.00  0.00    -0.240 N 
HETATM    5  N   UNL     1      41.956 -13.187   4.157  1.00  0.00    -0.181 NA
HETATM    6  C   UNL     1      41.376 -13.143   2.956  1.00  0.00     0.160 A 
HETATM    7  C   UNL     1      40.749 -14.361   2.595  1.00  0.00     0.096 A 
HETATM    8  C   UNL     1      42.103 -14.869   5.896  1.00  0.00     0.221 C 
HETATM    9  C   UNL     1      41.232 -16.061   6.327  1.00  0.00     0.066 C 
HETATM   10  H   UNL     1      39.647 -16.751   3.712  1.00  0.00     0.161 HD
ENDROOT
BRANCH   7  11
HETATM   11  C   UNL     1      40.007 -14.600   1.365  1.00  0.00     0.261 C 
HETATM   12  N   UNL     1      40.681 -14.221   0.220  1.00  0.00    -0.323 N 
HETATM   13  H   UNL     1      41.542 -13.708   0.375  1.00  0.00     0.169 HD
HETATM   14  O   UNL     1      38.888 -15.098   1.406  1.00  0.00    -0.267 OA
BRANCH  12  15
HETATM   15  C   UNL     1      40.313 -14.463  -1.119  1.00  0.00     0.037 A 
HETATM   16  C   UNL     1      39.372 -13.703  -1.819  1.00  0.00     0.066 A 
HETATM   17  C   UNL     1      39.044 -14.038  -3.132  1.00  0.00     0.067 A 
HETATM   18  C   UNL     1      39.631 -15.128  -3.762  1.00  0.00     0.036 A 
HETATM   19  C   UNL     1      40.571 -15.889  -3.074  1.00  0.00     0.005 A 
HETATM   20  C   UNL     1      40.915 -15.555  -1.762  1.00  0.00     0.029 A 
BRANCH  17  21
HETATM   21  O   UNL     1      38.134 -13.309  -3.842  1.00  0.00    -0.361 OA
HETATM   22  H   UNL     1      37.392 -13.086  -3.253  1.00  0.00     0.217 HD
ENDBRANCH  17  21
ENDBRANCH  12  15
ENDBRANCH   7  11
BRANCH   1  23
HETATM   23  C   UNL     1      42.228 -18.035   5.012  1.00  0.00    -0.035 A 
HETATM   24  C   UNL     1      42.911 -18.655   6.069  1.00  0.00     0.012 A 
HETATM   25  C   UNL     1      43.967 -19.540   5.822  1.00  0.00     0.037 A 
HETATM   26  C   UNL     1      44.364 -19.826   4.518  1.00  0.00     0.068 A 
HETATM   27  C   UNL     1      43.739 -19.175   3.460  1.00  0.00     0.037 A 
HETATM   28  C   UNL     1      42.686 -18.285   3.705  1.00  0.00     0.012 A 
BRANCH  26  29
HETATM   29  O   UNL     1      45.381 -20.734   4.402  1.00  0.00    -0.356 OA
HETATM   30  C   UNL     1      45.118 -22.030   4.930  1.00  0.00     0.210 C 
ENDBRANCH  26  29
ENDBRANCH   1  23
BRANCH   8  31
HETATM   31  C   UNL     1      43.594 -15.098   5.996  1.00  0.00     0.409 C 
HETATM   32  F   UNL     1      43.957 -15.940   6.981  1.00  0.00    -0.169 F 
HETATM   33  F   UNL     1      44.107 -15.584   4.842  1.00  0.00    -0.169 F 
HETATM   34  F   UNL     1      44.231 -13.918   6.222  1.00  0.00    -0.169 F 
ENDBRANCH   8  31
TORSDOF 6
ENDMDL
MODEL 2
REMARK VINA RESULT:      -8.5      1.606      2.156
REMARK  6 active torsions:
REMARK  status: ('A' for Active; 'I' for Inactive)
REMARK    1  A    between atoms: O_2  and  C_3 
REMARK    2  A    between atoms: C_6  and  C_7 
REMARK    3  A    between atoms: C_13  and  C_14 
REMARK       I    between atoms: C_14  and  N_15 
REMARK    4  A    between atoms: N_15  and  C_16 
REMARK    5  A    between atoms: C_18  and  O_19 
REMARK    6  A    between atoms: C_24  and  C_25 
ROOT
HETATM    1  C   UNL     1      40.779 -16.571   4.082  1.00  0.00     0.118 C 
HETATM    2  N   UNL     1      40.108 -15.932   2.940  1.00  0.00    -0.365 N 
HETATM    3  C   UNL     1      40.499 -14.703   2.495  1.00  0.00     0.138 A 
HETATM    4  N   UNL     1      41.464 -13.979   3.156  1.00  0.00    -0.240 N 
HETATM    5  N   UNL     1      41.650 -12.745   2.665  1.00  0.00    -0.181 NA
HETATM    6  C   UNL     1      40.827 -12.707   1.614  1.00  0.00     0.160 A 
HETATM    7  C   UNL     1      40.075 -13.897   1.452  1.00  0.00     0.096 A 
HETATM    8  C   UNL     1      42.081 -14.372   4.408  1.00  0.00     0.221 C 
HETATM    9  C   UNL     1      41.263 -15.494   5.070  1.00  0.00     0.066 C 
HETATM   10  H   UNL     1      39.118 -16.176   2.888  1.00  0.00     0.161 HD
ENDROOT
BRANCH   7  11
HETATM   11  C   UNL     1      39.074 -14.132   0.421  1.00  0.00     0.261 C 
HETATM   12  N   UNL     1      39.553 -13.994  -0.868  1.00  0.00    -0.323 N 
HETATM   13  H   UNL     1      40.493 -13.622  -0.943  1.00  0.00     0.169 HD
HETATM   14  O   UNL     1      37.926 -14.426   0.731  1.00  0.00    -0.267 OA
BRANCH  12  15
HETATM   15  C   UNL     1      38.892 -14.308  -2.073  1.00  0.00     0.037 A 
HETATM   16  C   UNL     1      39.309 -15.311  -2.953  1.00  0.00     0.066 A 
HETATM   17  C   UNL     1      38.613 -15.527  -4.142  1.00  0.00     0.067 A 
HETATM   18  C   UNL     1      37.510 -14.753  -4.478  1.00  0.00     0.036 A 
HETATM   19  C   UNL     1      37.086 -13.753  -3.607  1.00  0.00     0.005 A 
HETATM   20  C   UNL     1      37.770 -13.536  -2.408  1.00  0.00     0.029 A 
BRANCH  17  21
HETATM   21  O   UNL     1      38.993 -16.503  -5.017  1.00  0.00    -0.361 OA
HETATM   22  H   UNL     1      38.401 -17.267  -4.901  1.00  0.00     0.217 HD
ENDBRANCH  17  21
ENDBRANCH  12  15
ENDBRANCH   7  11
BRANCH   1  23
HETATM   23  C   UNL     1      41.849 -17.568   3.665  1.00  0.00    -0.035 A 
HETATM   24  C   UNL     1      42.670 -18.238   4.585  1.00  0.00     0.012 A 
HETATM   25  C   UNL     1      43.601 -19.191   4.157  1.00  0.00     0.037 A 
HETATM   26  C   UNL     1      43.735 -19.496   2.804  1.00  0.00     0.068 A 
HETATM   27  C   UNL     1      42.973 -18.798   1.872  1.00  0.00     0.037 A 
HETATM   28  C   UNL     1      42.045 -17.841   2.299  1.00  0.00     0.012 A 
BRANCH  26  29
HETATM   29  O   UNL     1      44.651 -20.470   2.512  1.00  0.00    -0.356 OA
HETATM   30  C   UNL     1      44.128 -21.656   1.925  1.00  0.00     0.210 C 
ENDBRANCH  26  29
ENDBRANCH   1  23
BRANCH   8  31
HETATM   31  C   UNL     1      43.545 -14.688   4.199  1.00  0.00     0.409 C 
HETATM   32  F   UNL     1      44.355 -13.616   4.274  1.00  0.00    -0.169 F 
HETATM   33  F   UNL     1      43.996 -15.598   5.092  1.00  0.00    -0.169 F 
HETATM   34  F   UNL     1      43.728 -15.243   2.972  1.00  0.00    -0.169 F 
ENDBRANCH   8  31
TORSDOF 6
ENDMDL
MODEL 3
REMARK VINA RESULT:      -8.3      3.983      7.507
REMARK  6 active torsions:
REMARK  status: ('A' for Active; 'I' for Inactive)
REMARK    1  A    between atoms: O_2  and  C_3 
REMARK    2  A    between atoms: C_6  and  C_7 
REMARK    3  A    between atoms: C_13  and  C_14 
REMARK       I    between atoms: C_14  and  N_15 
REMARK    4  A    between atoms: N_15  and  C_16 
REMARK    5  A    between atoms: C_18  and  O_19 
REMARK    6  A    between atoms: C_24  and  C_25 
ROOT
HETATM    1  C   UNL     1      43.758 -16.120   2.267  1.00  0.00     0.118 C 
HETATM    2  N   UNL     1      43.806 -15.312   3.495  1.00  0.00    -0.365 N 
HETATM    3  C   UNL     1      42.661 -14.842   4.070  1.00  0.00     0.138 A 
HETATM    4  N   UNL     1      41.435 -15.025   3.472  1.00  0.00    -0.240 N 
HETATM    5  N   UNL     1      40.425 -14.404   4.099  1.00  0.00    -0.181 NA
HETATM    6  C   UNL     1      41.015 -13.867   5.170  1.00  0.00     0.160 A 
HETATM    7  C   UNL     1      42.412 -14.099   5.212  1.00  0.00     0.096 A 
HETATM    8  C   UNL     1      41.233 -15.622   2.165  1.00  0.00     0.221 C 
HETATM    9  C   UNL     1      42.566 -15.679   1.400  1.00  0.00     0.066 C 
HETATM   10  H   UNL     1      44.647 -14.735   3.546  1.00  0.00     0.161 HD
ENDROOT
BRANCH   7  11
HETATM   11  C   UNL     1      43.322 -13.605   6.236  1.00  0.00     0.261 C 
HETATM   12  N   UNL     1      42.780 -12.622   7.041  1.00  0.00    -0.323 N 
HETATM   13  H   UNL     1      41.875 -12.272   6.747  1.00  0.00     0.169 HD
HETATM   14  O   UNL     1      44.455 -14.063   6.327  1.00  0.00    -0.267 OA
BRANCH  12  15
HETATM   15  C   UNL     1      43.334 -12.060   8.209  1.00  0.00     0.037 A 
HETATM   16  C   UNL     1      44.409 -12.615   8.909  1.00  0.00     0.066 A 
HETATM   17  C   UNL     1      44.868 -12.008  10.077  1.00  0.00     0.067 A 
HETATM   18  C   UNL     1      44.268 -10.857  10.570  1.00  0.00     0.036 A 
HETATM   19  C   UNL     1      43.198 -10.294   9.879  1.00  0.00     0.005 A 
HETATM   20  C   UNL     1      42.737 -10.889   8.702  1.00  0.00     0.029 A 
BRANCH  17  21
HETATM   21  O   UNL     1      45.920 -12.524  10.776  1.00  0.00    -0.361 OA
HETATM   22  H   UNL     1      45.756 -13.472  10.923  1.00  0.00     0.217 HD
ENDBRANCH  17  21
ENDBRANCH  12  15
ENDBRANCH   7  11
BRANCH   1  23
HETATM   23  C   UNL     1      43.823 -17.616   2.535  1.00  0.00    -0.035 A 
HETATM   24  C   UNL     1      43.720 -18.579   1.519  1.00  0.00     0.012 A 
HETATM   25  C   UNL     1      43.844 -19.943   1.807  1.00  0.00     0.037 A 
HETATM   26  C   UNL     1      44.073 -20.377   3.111  1.00  0.00     0.068 A 
HETATM   27  C   UNL     1      44.117 -19.441   4.139  1.00  0.00     0.037 A 
HETATM   28  C   UNL     1      43.988 -18.076   3.854  1.00  0.00     0.012 A 
BRANCH  26  29
HETATM   29  O   UNL     1      44.214 -21.729   3.262  1.00  0.00    -0.356 OA
HETATM   30  C   UNL     1      44.765 -22.160   4.501  1.00  0.00     0.210 C 
ENDBRANCH  26  29
ENDBRANCH   1  23
BRANCH   8  31
HETATM   31  C   UNL     1      40.514 -16.946   2.295  1.00  0.00     0.409 C 
HETATM   32  F   UNL     1      40.785 -17.610   3.434  1.00  0.00    -0.169 F 
HETATM   33  F   UNL     1      39.171 -16.798   2.225  1.00  0.00    -0.169 F 
HETATM   34  F   UNL     1      40.855 -17.762   1.263  1.00  0.00    -0.169 F 
ENDBRANCH   8  31
TORSDOF 6
ENDMDL
MODEL 4
REMARK VINA RESULT:      -8.1      3.843      8.460
REMARK  6 active torsions:
REMARK  status: ('A' for Active; 'I' for Inactive)
REMARK    1  A    between atoms: O_2  and  C_3 
REMARK    2  A    between atoms: C_6  and  C_7 
REMARK    3  A    between atoms: C_13  and  C_14 
REMARK       I    between atoms: C_14  and  N_15 
REMARK    4  A    between atoms: N_15  and  C_16 
REMARK    5  A    between atoms: C_18  and  O_19 
REMARK    6  A    between atoms: C_24  and  C_25 
ROOT
HETATM    1  C   UNL     1      41.918 -12.327   1.053  1.00  0.00     0.118 C 
HETATM    2  N   UNL     1      42.305 -13.682   1.475  1.00  0.00    -0.365 N 
HETATM    3  C   UNL     1      41.370 -14.667   1.611  1.00  0.00     0.138 A 
HETATM    4  N   UNL     1      40.029 -14.405   1.452  1.00  0.00    -0.240 N 
HETATM    5  N   UNL     1      39.233 -15.447   1.734  1.00  0.00    -0.181 NA
HETATM    6  C   UNL     1      40.098 -16.425   2.013  1.00  0.00     0.160 A 
HETATM    7  C   UNL     1      41.451 -16.005   1.957  1.00  0.00     0.096 A 
HETATM    8  C   UNL     1      39.463 -13.087   1.234  1.00  0.00     0.221 C 
HETATM    9  C   UNL     1      40.504 -12.005   1.568  1.00  0.00     0.066 C 
HETATM   10  H   UNL     1      43.100 -13.675   2.115  1.00  0.00     0.161 HD
ENDROOT
BRANCH   7  11
HETATM   11  C   UNL     1      42.609 -16.839   2.249  1.00  0.00     0.261 C 
HETATM   12  N   UNL     1      42.290 -18.092   2.734  1.00  0.00    -0.323 N 
HETATM   13  H   UNL     1      41.310 -18.235   2.953  1.00  0.00     0.169 HD
HETATM   14  O   UNL     1      43.741 -16.412   2.057  1.00  0.00    -0.267 OA
BRANCH  12  15
HETATM   15  C   UNL     1      43.159 -19.180   2.957  1.00  0.00     0.037 A 
HETATM   16  C   UNL     1      43.341 -20.231   2.054  1.00  0.00     0.066 A 
HETATM   17  C   UNL     1      44.196 -21.285   2.375  1.00  0.00     0.067 A 
HETATM   18  C   UNL     1      44.870 -21.316   3.589  1.00  0.00     0.036 A 
HETATM   19  C   UNL     1      44.698 -20.273   4.494  1.00  0.00     0.005 A 
HETATM   20  C   UNL     1      43.851 -19.207   4.177  1.00  0.00     0.029 A 
BRANCH  17  21
HETATM   21  O   UNL     1      44.398 -22.321   1.510  1.00  0.00    -0.361 OA
HETATM   22  H   UNL     1      43.783 -23.038   1.741  1.00  0.00     0.217 HD
ENDBRANCH  17  21
ENDBRANCH  12  15
ENDBRANCH   7  11
BRANCH   1  23
HETATM   23  C   UNL     1      42.115 -12.087  -0.436  1.00  0.00    -0.035 A 
HETATM   24  C   UNL     1      42.304 -13.127  -1.359  1.00  0.00     0.012 A 
HETATM   25  C   UNL     1      42.423 -12.860  -2.728  1.00  0.00     0.037 A 
HETATM   26  C   UNL     1      42.356 -11.553  -3.206  1.00  0.00     0.068 A 
HETATM   27  C   UNL     1      42.230 -10.505  -2.300  1.00  0.00     0.037 A 
HETATM   28  C   UNL     1      42.117 -10.769  -0.930  1.00  0.00     0.012 A 
BRANCH  26  29
HETATM   29  O   UNL     1      42.447 -11.422  -4.565  1.00  0.00    -0.356 OA
HETATM   30  C   UNL     1      41.488 -10.562  -5.170  1.00  0.00     0.210 C 
ENDBRANCH  26  29
ENDBRANCH   1  23
BRANCH   8  31
HETATM   31  C   UNL     1      38.866 -12.992  -0.151  1.00  0.00     0.409 C 
HETATM   32  F   UNL     1      39.008 -11.787  -0.732  1.00  0.00    -0.169 F 
HETATM   33  F   UNL     1      39.396 -13.909  -0.992  1.00  0.00    -0.169 F 
HETATM   34  F   UNL     1      37.533 -13.257  -0.100  1.00  0.00    -0.169 F 
ENDBRANCH   8  31
TORSDOF 6
ENDMDL
MODEL 5
REMARK VINA RESULT:      -8.1      3.337      8.492
REMARK  6 active torsions:
REMARK  status: ('A' for Active; 'I' for Inactive)
REMARK    1  A    between atoms: O_2  and  C_3 
REMARK    2  A    between atoms: C_6  and  C_7 
REMARK    3  A    between atoms: C_13  and  C_14 
REMARK       I    between atoms: C_14  and  N_15 
REMARK    4  A    between atoms: N_15  and  C_16 
REMARK    5  A    between atoms: C_18  and  O_19 
REMARK    6  A    between atoms: C_24  and  C_25 
ROOT
HETATM    1  C   UNL     1      41.312 -13.544  -1.143  1.00  0.00     0.118 C 
HETATM    2  N   UNL     1      41.873 -14.687  -0.406  1.00  0.00    -0.365 N 
HETATM    3  C   UNL     1      41.428 -15.001   0.844  1.00  0.00     0.138 A 
HETATM    4  N   UNL     1      40.512 -14.208   1.496  1.00  0.00    -0.240 N 
HETATM    5  N   UNL     1      40.266 -14.585   2.759  1.00  0.00    -0.181 NA
HETATM    6  C   UNL     1      40.995 -15.695   2.894  1.00  0.00     0.160 A 
HETATM    7  C   UNL     1      41.748 -16.011   1.736  1.00  0.00     0.096 A 
HETATM    8  C   UNL     1      40.011 -12.941   0.996  1.00  0.00     0.221 C 
HETATM    9  C   UNL     1      40.899 -12.440  -0.155  1.00  0.00     0.066 C 
HETATM   10  H   UNL     1      42.859 -14.842  -0.624  1.00  0.00     0.161 HD
ENDROOT
BRANCH   7  11
HETATM   11  C   UNL     1      42.660 -17.139   1.601  1.00  0.00     0.261 C 
HETATM   12  N   UNL     1      42.803 -17.886   2.754  1.00  0.00    -0.323 N 
HETATM   13  H   UNL     1      42.368 -17.493   3.581  1.00  0.00     0.169 HD
HETATM   14  O   UNL     1      43.219 -17.355   0.532  1.00  0.00    -0.267 OA
BRANCH  12  15
HETATM   15  C   UNL     1      43.474 -19.116   2.908  1.00  0.00     0.037 A 
HETATM   16  C   UNL     1      43.441 -20.147   1.965  1.00  0.00     0.066 A 
HETATM   17  C   UNL     1      44.107 -21.345   2.219  1.00  0.00     0.067 A 
HETATM   18  C   UNL     1      44.803 -21.541   3.406  1.00  0.00     0.036 A 
HETATM   19  C   UNL     1      44.844 -20.519   4.350  1.00  0.00     0.005 A 
HETATM   20  C   UNL     1      44.188 -19.311   4.100  1.00  0.00     0.029 A 
BRANCH  17  21
HETATM   21  O   UNL     1      44.098 -22.366   1.314  1.00  0.00    -0.361 OA
HETATM   22  H   UNL     1      45.019 -22.594   1.098  1.00  0.00     0.217 HD
ENDBRANCH  17  21
ENDBRANCH  12  15
ENDBRANCH   7  11
BRANCH   1  23
HETATM   23  C   UNL     1      40.226 -13.945  -2.129  1.00  0.00    -0.035 A 
HETATM   24  C   UNL     1      40.022 -15.270  -2.544  1.00  0.00     0.012 A 
HETATM   25  C   UNL     1      38.971 -15.599  -3.409  1.00  0.00     0.037 A 
HETATM   26  C   UNL     1      38.102 -14.616  -3.877  1.00  0.00     0.068 A 
HETATM   27  C   UNL     1      38.325 -13.289  -3.525  1.00  0.00     0.037 A 
HETATM   28  C   UNL     1      39.379 -12.957  -2.665  1.00  0.00     0.012 A 
BRANCH  26  29
HETATM   29  O   UNL     1      37.093 -15.065  -4.685  1.00  0.00    -0.356 OA
HETATM   30  C   UNL     1      36.030 -14.146  -4.916  1.00  0.00     0.210 C 
ENDBRANCH  26  29
ENDBRANCH   1  23
BRANCH   8  31
HETATM   31  C   UNL     1      38.539 -13.050   0.666  1.00  0.00     0.409 C 
HETATM   32  F   UNL     1      37.724 -12.871   1.721  1.00  0.00    -0.169 F 
HETATM   33  F   UNL     1      38.170 -12.161  -0.284  1.00  0.00    -0.169 F 
HETATM   34  F   UNL     1      38.269 -14.280   0.154  1.00  0.00    -0.169 F 
ENDBRANCH   8  31
TORSDOF 6
ENDMDL
MODEL 6
REMARK VINA RESULT:      -8.0      4.375      7.782
REMARK  6 active torsions:
REMARK  status: ('A' for Active; 'I' for Inactive)
REMARK    1  A    between atoms: O_2  and  C_3 
REMARK    2  A    between atoms: C_6  and  C_7 
REMARK    3  A    between atoms: C_13  and  C_14 
REMARK       I    between atoms: C_14  and  N_15 
REMARK    4  A    between atoms: N_15  and  C_16 
REMARK    5  A    between atoms: C_18  and  O_19 
REMARK    6  A    between atoms: C_24  and  C_25 
ROOT
HETATM    1  C   UNL     1      43.133 -13.691   3.177  1.00  0.00     0.118 C 
HETATM    2  N   UNL     1      42.897 -12.772   4.302  1.00  0.00    -0.365 N 
HETATM    3  C   UNL     1      41.632 -12.382   4.634  1.00  0.00     0.138 A 
HETATM    4  N   UNL     1      40.547 -12.755   3.875  1.00  0.00    -0.240 N 
HETATM    5  N   UNL     1      39.392 -12.195   4.264  1.00  0.00    -0.181 NA
HETATM    6  C   UNL     1      39.740 -11.499   5.348  1.00  0.00     0.160 A 
HETATM    7  C   UNL     1      41.126 -11.569   5.635  1.00  0.00     0.096 A 
HETATM    8  C   UNL     1      40.625 -13.489   2.626  1.00  0.00     0.221 C 
HETATM    9  C   UNL     1      42.066 -13.468   2.090  1.00  0.00     0.066 C 
HETATM   10  H   UNL     1      43.659 -12.103   4.421  1.00  0.00     0.161 HD
ENDROOT
BRANCH   7  11
HETATM   11  C   UNL     1      41.800 -10.884   6.729  1.00  0.00     0.261 C 
HETATM   12  N   UNL     1      42.337 -11.734   7.677  1.00  0.00    -0.323 N 
HETATM   13  H   UNL     1      42.088 -12.711   7.573  1.00  0.00     0.169 HD
HETATM   14  O   UNL     1      41.857  -9.660   6.749  1.00  0.00    -0.267 OA
BRANCH  12  15
HETATM   15  C   UNL     1      43.178 -11.401   8.758  1.00  0.00     0.037 A 
HETATM   16  C   UNL     1      42.809 -10.545   9.799  1.00  0.00     0.066 A 
HETATM   17  C   UNL     1      43.722 -10.243  10.809  1.00  0.00     0.067 A 
HETATM   18  C   UNL     1      45.005 -10.774  10.798  1.00  0.00     0.036 A 
HETATM   19  C   UNL     1      45.382 -11.629   9.766  1.00  0.00     0.005 A 
HETATM   20  C   UNL     1      44.471 -11.946   8.755  1.00  0.00     0.029 A 
BRANCH  17  21
HETATM   21  O   UNL     1      43.386  -9.417  11.842  1.00  0.00    -0.361 OA
HETATM   22  H   UNL     1      43.048  -8.583  11.471  1.00  0.00     0.217 HD
ENDBRANCH  17  21
ENDBRANCH  12  15
ENDBRANCH   7  11
BRANCH   1  23
HETATM   23  C   UNL     1      43.293 -15.139   3.614  1.00  0.00    -0.035 A 
HETATM   24  C   UNL     1      43.188 -15.550   4.951  1.00  0.00     0.012 A 
HETATM   25  C   UNL     1      43.285 -16.903   5.298  1.00  0.00     0.037 A 
HETATM   26  C   UNL     1      43.490 -17.874   4.320  1.00  0.00     0.068 A 
HETATM   27  C   UNL     1      43.658 -17.479   2.996  1.00  0.00     0.037 A 
HETATM   28  C   UNL     1      43.566 -16.126   2.649  1.00  0.00     0.012 A 
BRANCH  26  29
HETATM   29  O   UNL     1      43.530 -19.163   4.775  1.00  0.00    -0.356 OA
HETATM   30  C   UNL     1      44.783 -19.827   4.646  1.00  0.00     0.210 C 
ENDBRANCH  26  29
ENDBRANCH   1  23
BRANCH   8  31
HETATM   31  C   UNL     1      40.022 -14.866   2.785  1.00  0.00     0.409 C 
HETATM   32  F   UNL     1      40.592 -15.809   2.013  1.00  0.00    -0.169 F 
HETATM   33  F   UNL     1      40.090 -15.300   4.065  1.00  0.00    -0.169 F 
HETATM   34  F   UNL     1      38.700 -14.834   2.470  1.00  0.00    -0.169 F 
ENDBRANCH   8  31
TORSDOF 6
ENDMDL
MODEL 7
REMARK VINA RESULT:      -7.9      3.121      7.735
REMARK  6 active torsions:
REMARK  status: ('A' for Active; 'I' for Inactive)
REMARK    1  A    between atoms: O_2  and  C_3 
REMARK    2  A    between atoms: C_6  and  C_7 
REMARK    3  A    between atoms: C_13  and  C_14 
REMARK       I    between atoms: C_14  and  N_15 
REMARK    4  A    between atoms: N_15  and  C_16 
REMARK    5  A    between atoms: C_18  and  O_19 
REMARK    6  A    between atoms: C_24  and  C_25 
ROOT
HETATM    1  C   UNL     1      42.071 -13.170   0.537  1.00  0.00     0.118 C 
HETATM    2  N   UNL     1      42.386 -14.143   1.595  1.00  0.00    -0.365 N 
HETATM    3  C   UNL     1      41.481 -14.432   2.574  1.00  0.00     0.138 A 
HETATM    4  N   UNL     1      40.286 -13.756   2.663  1.00  0.00    -0.240 N 
HETATM    5  N   UNL     1      39.561 -14.073   3.746  1.00  0.00    -0.181 NA
HETATM    6  C   UNL     1      40.284 -15.031   4.329  1.00  0.00     0.160 A 
HETATM    7  C   UNL     1      41.498 -15.303   3.650  1.00  0.00     0.096 A 
HETATM    8  C   UNL     1      39.906 -12.634   1.826  1.00  0.00     0.221 C 
HETATM    9  C   UNL     1      41.140 -12.079   1.095  1.00  0.00     0.066 C 
HETATM   10  H   UNL     1      43.379 -14.146   1.834  1.00  0.00     0.161 HD
ENDROOT
BRANCH   7  11
HETATM   11  C   UNL     1      42.505 -16.268   4.070  1.00  0.00     0.261 C 
HETATM   12  N   UNL     1      42.326 -17.532   3.542  1.00  0.00    -0.323 N 
HETATM   13  H   UNL     1      41.456 -17.672   3.040  1.00  0.00     0.169 HD
HETATM   14  O   UNL     1      43.409 -15.928   4.825  1.00  0.00    -0.267 OA
BRANCH  12  15
HETATM   15  C   UNL     1      43.203 -18.633   3.620  1.00  0.00     0.037 A 
HETATM   16  C   UNL     1      43.402 -19.548   2.582  1.00  0.00     0.066 A 
HETATM   17  C   UNL     1      44.262 -20.630   2.762  1.00  0.00     0.067 A 
HETATM   18  C   UNL     1      44.925 -20.825   3.966  1.00  0.00     0.036 A 
HETATM   19  C   UNL     1      44.736 -19.919   5.006  1.00  0.00     0.005 A 
HETATM   20  C   UNL     1      43.883 -18.825   4.831  1.00  0.00     0.029 A 
BRANCH  17  21
HETATM   21  O   UNL     1      44.482 -21.534   1.763  1.00  0.00    -0.361 OA
HETATM   22  H   UNL     1      44.705 -22.390   2.168  1.00  0.00     0.217 HD
ENDBRANCH  17  21
ENDBRANCH  12  15
ENDBRANCH   7  11
BRANCH   1  23
HETATM   23  C   UNL     1      41.578 -13.822  -0.746  1.00  0.00    -0.035 A 
HETATM   24  C   UNL     1      41.316 -15.196  -0.853  1.00  0.00     0.012 A 
HETATM   25  C   UNL     1      40.808 -15.741  -2.038  1.00  0.00     0.037 A 
HETATM   26  C   UNL     1      40.552 -14.929  -3.141  1.00  0.00     0.068 A 
HETATM   27  C   UNL     1      40.863 -13.575  -3.073  1.00  0.00     0.037 A 
HETATM   28  C   UNL     1      41.376 -13.029  -1.890  1.00  0.00     0.012 A 
BRANCH  26  29
HETATM   29  O   UNL     1      40.022 -15.569  -4.227  1.00  0.00    -0.356 OA
HETATM   30  C   UNL     1      38.676 -16.013  -4.090  1.00  0.00     0.210 C 
ENDBRANCH  26  29
ENDBRANCH   1  23
BRANCH   8  31
HETATM   31  C   UNL     1      38.750 -13.013   0.928  1.00  0.00     0.409 C 
HETATM   32  F   UNL     1      38.712 -14.317   0.600  1.00  0.00    -0.169 F 
HETATM   33  F   UNL     1      37.557 -12.704   1.487  1.00  0.00    -0.169 F 
HETATM   34  F   UNL     1      38.814 -12.308  -0.232  1.00  0.00    -0.169 F 
ENDBRANCH   8  31
TORSDOF 6
ENDMDL
MODEL 8
REMARK VINA RESULT:      -7.7      3.684      8.046
REMARK  6 active torsions:
REMARK  status: ('A' for Active; 'I' for Inactive)
REMARK    1  A    between atoms: O_2  and  C_3 
REMARK    2  A    between atoms: C_6  and  C_7 
REMARK    3  A    between atoms: C_13  and  C_14 
REMARK       I    between atoms: C_14  and  N_15 
REMARK    4  A    between atoms: N_15  and  C_16 
REMARK    5  A    between atoms: C_18  and  O_19 
REMARK    6  A    between atoms: C_24  and  C_25 
ROOT
HETATM    1  C   UNL     1      38.553 -13.848   2.066  1.00  0.00     0.118 C 
HETATM    2  N   UNL     1      39.440 -15.009   2.237  1.00  0.00    -0.365 N 
HETATM    3  C   UNL     1      40.284 -15.399   1.238  1.00  0.00     0.138 A 
HETATM    4  N   UNL     1      40.266 -14.784   0.007  1.00  0.00    -0.240 N 
HETATM    5  N   UNL     1      41.069 -15.358  -0.900  1.00  0.00    -0.181 NA
HETATM    6  C   UNL     1      41.670 -16.327  -0.207  1.00  0.00     0.160 A 
HETATM    7  C   UNL     1      41.224 -16.411   1.136  1.00  0.00     0.096 A 
HETATM    8  C   UNL     1      39.318 -13.761  -0.393  1.00  0.00     0.221 C 
HETATM    9  C   UNL     1      38.135 -13.725   0.589  1.00  0.00     0.066 C 
HETATM   10  H   UNL     1      39.026 -15.728   2.831  1.00  0.00     0.161 HD
ENDROOT
BRANCH   7  11
HETATM   11  C   UNL     1      41.671 -17.389   2.117  1.00  0.00     0.261 C 
HETATM   12  N   UNL     1      42.660 -18.236   1.655  1.00  0.00    -0.323 N 
HETATM   13  H   UNL     1      42.861 -18.167   0.664  1.00  0.00     0.169 HD
HETATM   14  O   UNL     1      41.178 -17.408   3.239  1.00  0.00    -0.267 OA
BRANCH  12  15
HETATM   15  C   UNL     1      43.409 -19.173   2.395  1.00  0.00     0.037 A 
HETATM   16  C   UNL     1      43.633 -20.491   1.985  1.00  0.00     0.066 A 
HETATM   17  C   UNL     1      44.358 -21.360   2.800  1.00  0.00     0.067 A 
HETATM   18  C   UNL     1      44.859 -20.942   4.027  1.00  0.00     0.036 A 
HETATM   19  C   UNL     1      44.643 -19.632   4.442  1.00  0.00     0.005 A 
HETATM   20  C   UNL     1      43.927 -18.750   3.628  1.00  0.00     0.029 A 
BRANCH  17  21
HETATM   21  O   UNL     1      44.599 -22.649   2.423  1.00  0.00    -0.361 OA
HETATM   22  H   UNL     1      45.459 -22.921   2.789  1.00  0.00     0.217 HD
ENDBRANCH  17  21
ENDBRANCH  12  15
ENDBRANCH   7  11
BRANCH   1  23
HETATM   23  C   UNL     1      39.118 -12.571   2.668  1.00  0.00    -0.035 A 
HETATM   24  C   UNL     1      40.384 -12.505   3.269  1.00  0.00     0.012 A 
HETATM   25  C   UNL     1      40.886 -11.293   3.758  1.00  0.00     0.037 A 
HETATM   26  C   UNL     1      40.138 -10.122   3.658  1.00  0.00     0.068 A 
HETATM   27  C   UNL     1      38.856 -10.179   3.119  1.00  0.00     0.037 A 
HETATM   28  C   UNL     1      38.351 -11.392   2.636  1.00  0.00     0.012 A 
BRANCH  26  29
HETATM   29  O   UNL     1      40.749  -8.995   4.136  1.00  0.00    -0.356 OA
HETATM   30  C   UNL     1      41.539  -9.168   5.307  1.00  0.00     0.210 C 
ENDBRANCH  26  29
ENDBRANCH   1  23
BRANCH   8  31
HETATM   31  C   UNL     1      40.023 -12.438  -0.592  1.00  0.00     0.409 C 
HETATM   32  F   UNL     1      41.085 -12.253   0.213  1.00  0.00    -0.169 F 
HETATM   33  F   UNL     1      40.451 -12.282  -1.866  1.00  0.00    -0.169 F 
HETATM   34  F   UNL     1      39.160 -11.413  -0.359  1.00  0.00    -0.169 F 
ENDBRANCH   8  31
TORSDOF 6
ENDMDL
MODEL 9
REMARK VINA RESULT:      -7.6      4.667      7.687
REMARK  6 active torsions:
REMARK  status: ('A' for Active; 'I' for Inactive)
REMARK    1  A    between atoms: O_2  and  C_3 
REMARK    2  A    between atoms: C_6  and  C_7 
REMARK    3  A    between atoms: C_13  and  C_14 
REMARK       I    between atoms: C_14  and  N_15 
REMARK    4  A    between atoms: N_15  and  C_16 
REMARK    5  A    between atoms: C_18  and  O_19 
REMARK    6  A    between atoms: C_24  and  C_25 
ROOT
HETATM    1  C   UNL     1      43.723 -14.674   5.330  1.00  0.00     0.118 C 
HETATM    2  N   UNL     1      42.956 -13.638   6.039  1.00  0.00    -0.365 N 
HETATM    3  C   UNL     1      41.658 -13.378   5.706  1.00  0.00     0.138 A 
HETATM    4  N   UNL     1      41.055 -14.003   4.639  1.00  0.00    -0.240 N 
HETATM    5  N   UNL     1      39.820 -13.553   4.372  1.00  0.00    -0.181 NA
HETATM    6  C   UNL     1      39.602 -12.662   5.342  1.00  0.00     0.160 A 
HETATM    7  C   UNL     1      40.711 -12.501   6.209  1.00  0.00     0.096 A 
HETATM    8  C   UNL     1      41.728 -14.897   3.716  1.00  0.00     0.221 C 
HETATM    9  C   UNL     1      43.253 -14.762   3.867  1.00  0.00     0.066 C 
HETATM   10  H   UNL     1      43.544 -12.862   6.345  1.00  0.00     0.161 HD
ENDROOT
BRANCH   7  11
HETATM   11  C   UNL     1      40.780 -11.576   7.332  1.00  0.00     0.261 C 
HETATM   12  N   UNL     1      39.639 -11.552   8.110  1.00  0.00    -0.323 N 
HETATM   13  H   UNL     1      38.852 -12.072   7.740  1.00  0.00     0.169 HD
HETATM   14  O   UNL     1      41.790 -10.908   7.519  1.00  0.00    -0.267 OA
BRANCH  12  15
HETATM   15  C   UNL     1      39.448 -10.896   9.343  1.00  0.00     0.037 A 
HETATM   16  C   UNL     1      38.537  -9.855   9.540  1.00  0.00     0.066 A 
HETATM   17  C   UNL     1      38.441  -9.239  10.787  1.00  0.00     0.067 A 
HETATM   18  C   UNL     1      39.247  -9.636  11.846  1.00  0.00     0.036 A 
HETATM   19  C   UNL     1      40.156 -10.673  11.661  1.00  0.00     0.005 A 
HETATM   20  C   UNL     1      40.252 -11.304  10.418  1.00  0.00     0.029 A 
BRANCH  17  21
HETATM   21  O   UNL     1      37.555  -8.225  11.010  1.00  0.00    -0.361 OA
HETATM   22  H   UNL     1      37.881  -7.691  11.756  1.00  0.00     0.217 HD
ENDBRANCH  17  21
ENDBRANCH  12  15
ENDBRANCH   7  11
BRANCH   1  23
HETATM   23  C   UNL     1      43.748 -16.006   6.064  1.00  0.00    -0.035 A 
HETATM   24  C   UNL     1      43.186 -16.187   7.337  1.00  0.00     0.012 A 
HETATM   25  C   UNL     1      43.182 -17.446   7.949  1.00  0.00     0.037 A 
HETATM   26  C   UNL     1      43.737 -18.550   7.306  1.00  0.00     0.068 A 
HETATM   27  C   UNL     1      44.352 -18.377   6.070  1.00  0.00     0.037 A 
HETATM   28  C   UNL     1      44.363 -17.117   5.459  1.00  0.00     0.012 A 
BRANCH  26  29
HETATM   29  O   UNL     1      43.639 -19.733   7.986  1.00  0.00    -0.356 OA
HETATM   30  C   UNL     1      43.664 -20.911   7.187  1.00  0.00     0.210 C 
ENDBRANCH  26  29
ENDBRANCH   1  23
BRANCH   8  31
HETATM   31  C   UNL     1      41.195 -16.305   3.862  1.00  0.00     0.409 C 
HETATM   32  F   UNL     1      42.082 -17.265   3.547  1.00  0.00    -0.169 F 
HETATM   33  F   UNL     1      40.764 -16.552   5.121  1.00  0.00    -0.169 F 
HETATM   34  F   UNL     1      40.114 -16.476   3.055  1.00  0.00    -0.169 F 
ENDBRANCH   8  31
TORSDOF 6
ENDMDL
MODEL 10
REMARK VINA RESULT:      -7.4      3.483      7.493
REMARK  6 active torsions:
REMARK  status: ('A' for Active; 'I' for Inactive)
REMARK    1  A    between atoms: O_2  and  C_3 
REMARK    2  A    between atoms: C_6  and  C_7 
REMARK    3  A    between atoms: C_13  and  C_14 
REMARK       I    between atoms: C_14  and  N_15 
REMARK    4  A    between atoms: N_15  and  C_16 
REMARK    5  A    between atoms: C_18  and  O_19 
REMARK    6  A    between atoms: C_24  and  C_25 
ROOT
HETATM    1  C   UNL     1      39.506 -14.012   3.787  1.00  0.00     0.118 C 
HETATM    2  N   UNL     1      40.257 -15.269   3.644  1.00  0.00    -0.365 N 
HETATM    3  C   UNL     1      41.112 -15.459   2.598  1.00  0.00     0.138 A 
HETATM    4  N   UNL     1      41.229 -14.527   1.593  1.00  0.00    -0.240 N 
HETATM    5  N   UNL     1      42.019 -14.914   0.581  1.00  0.00    -0.181 NA
HETATM    6  C   UNL     1      42.475 -16.101   0.986  1.00  0.00     0.160 A 
HETATM    7  C   UNL     1      41.946 -16.504   2.237  1.00  0.00     0.096 A 
HETATM    8  C   UNL     1      40.418 -13.330   1.476  1.00  0.00     0.221 C 
HETATM    9  C   UNL     1      39.190 -13.433   2.397  1.00  0.00     0.066 C 
HETATM   10  H   UNL     1      39.736 -16.072   3.999  1.00  0.00     0.161 HD
ENDROOT
BRANCH   7  11
HETATM   11  C   UNL     1      42.231 -17.763   2.911  1.00  0.00     0.261 C 
HETATM   12  N   UNL     1      42.991 -18.641   2.162  1.00  0.00    -0.323 N 
HETATM   13  H   UNL     1      43.146 -18.366   1.198  1.00  0.00     0.169 HD
HETATM   14  O   UNL     1      41.809 -17.967   4.043  1.00  0.00    -0.267 OA
BRANCH  12  15
HETATM   15  C   UNL     1      43.566 -19.858   2.579  1.00  0.00     0.037 A 
HETATM   16  C   UNL     1      44.181 -20.046   3.821  1.00  0.00     0.066 A 
HETATM   17  C   UNL     1      44.757 -21.276   4.134  1.00  0.00     0.067 A 
HETATM   18  C   UNL     1      44.741 -22.327   3.226  1.00  0.00     0.036 A 
HETATM   19  C   UNL     1      44.129 -22.152   1.989  1.00  0.00     0.005 A 
HETATM   20  C   UNL     1      43.540 -20.925   1.669  1.00  0.00     0.029 A 
BRANCH  17  21
HETATM   21  O   UNL     1      45.357 -21.490   5.341  1.00  0.00    -0.361 OA
HETATM   22  H   UNL     1      46.321 -21.508   5.206  1.00  0.00     0.217 HD
ENDBRANCH  17  21
ENDBRANCH  12  15
ENDBRANCH   7  11
BRANCH   1  23
HETATM   23  C   UNL     1      40.166 -13.029   4.743  1.00  0.00    -0.035 A 
HETATM   24  C   UNL     1      41.435 -13.242   5.302  1.00  0.00     0.012 A 
HETATM   25  C   UNL     1      42.026 -12.281   6.131  1.00  0.00     0.037 A 
HETATM   26  C   UNL     1      41.366 -11.089   6.419  1.00  0.00     0.068 A 
HETATM   27  C   UNL     1      40.082 -10.887   5.923  1.00  0.00     0.037 A 
HETATM   28  C   UNL     1      39.487 -11.849   5.099  1.00  0.00     0.012 A 
BRANCH  26  29
HETATM   29  O   UNL     1      42.059 -10.212   7.209  1.00  0.00    -0.356 OA
HETATM   30  C   UNL     1      41.441  -8.948   7.421  1.00  0.00     0.210 C 
ENDBRANCH  26  29
ENDBRANCH   1  23
BRANCH   8  31
HETATM   31  C   UNL     1      41.266 -12.095   1.681  1.00  0.00     0.409 C 
HETATM   32  F   UNL     1      42.316 -12.278   2.503  1.00  0.00    -0.169 F 
HETATM   33  F   UNL     1      41.750 -11.618   0.511  1.00  0.00    -0.169 F 
HETATM   34  F   UNL     1      40.512 -11.096   2.210  1.00  0.00    -0.169 F 
ENDBRANCH   8  31
TORSDOF 6
ENDMDL
