MODEL 1
REMARK VINA RESULT:      -7.5      0.000      0.000
REMARK  3 active torsions:
REMARK  status: ('A' for Active; 'I' for Inactive)
REMARK    1  A    between atoms: C_8  and  C_9 
REMARK    2  A    between atoms: C_10  and  O_11 
REMARK    3  A    between atoms: C_24  and  N_25 
ROOT
HETATM    1  C   UNL     1      40.704 -10.882   2.086  1.00  0.00     0.070 C 
HETATM    2  C   UNL     1      41.523 -11.160   0.887  1.00  0.00     0.035 A 
HETATM    3  N   UNL     1      42.646 -10.430   0.569  1.00  0.00    -0.280 N 
HETATM    4  H   UNL     1      43.050  -9.650   1.078  1.00  0.00     0.189 HD
HETATM    5  N   UNL     1      43.243 -10.819  -0.577  1.00  0.00    -0.148 NA
HETATM    6  C   UNL     1      42.472 -11.823  -0.973  1.00  0.00     0.199 A 
HETATM    7  C   UNL     1      41.412 -12.110  -0.109  1.00  0.00     0.034 A 
HETATM    8  C   UNL     1      40.461 -13.215  -0.416  1.00  0.00     0.107 C 
HETATM    9  C   UNL     1      40.650 -13.681  -1.848  1.00  0.00     0.067 C 
HETATM   10  C   UNL     1      39.479 -14.393  -2.506  1.00  0.00     0.020 C 
HETATM   11  N   UNL     1      38.508 -14.983  -3.052  1.00  0.00    -0.096 N 
HETATM   12  C   UNL     1      41.716 -13.323  -2.613  1.00  0.00     0.139 C 
HETATM   13  O   UNL     1      42.717 -12.461  -2.134  1.00  0.00    -0.277 OA
ENDROOT
BRANCH   8  14
HETATM   14  C   UNL     1      40.755 -14.316   0.598  1.00  0.00    -0.010 A 
HETATM   15  C   UNL     1      39.882 -14.548   1.671  1.00  0.00     0.076 A 
HETATM   16  C   UNL     1      40.115 -15.598   2.568  1.00  0.00     0.049 A 
HETATM   17  C   UNL     1      41.251 -16.415   2.446  1.00  0.00    -0.023 A 
HETATM   18  C   UNL     1      42.154 -16.182   1.388  1.00  0.00    -0.025 A 
HETATM   19  C   UNL     1      41.509 -17.463   3.344  1.00  0.00     0.012 A 
HETATM   20  C   UNL     1      41.887 -15.152   0.473  1.00  0.00     0.023 A 
HETATM   21  C   UNL     1      43.297 -16.988   1.264  1.00  0.00     0.012 A 
HETATM   22  C   UNL     1      43.543 -18.018   2.170  1.00  0.00     0.001 A 
HETATM   23  C   UNL     1      42.648 -18.259   3.207  1.00  0.00     0.001 A 
BRANCH  15  24
HETATM   24  O   UNL     1      38.758 -13.767   1.759  1.00  0.00    -0.355 OA
HETATM   25  C   UNL     1      37.655 -14.289   1.022  1.00  0.00     0.210 C 
ENDBRANCH  15  24
ENDBRANCH   8  14
BRANCH  12  26
HETATM   26  N   UNL     1      41.923 -13.699  -3.922  1.00  0.00    -0.282 NA
HETATM   27  H   UNL     1      41.995 -14.698  -4.098  1.00  0.00     0.126 HD
HETATM   28  H   UNL     1      41.289 -13.224  -4.560  1.00  0.00     0.126 HD
ENDBRANCH  12  26
TORSDOF 3
ENDMDL
MODEL 2
REMARK VINA RESULT:      -7.3      1.877      2.788
REMARK  3 active torsions:
REMARK  status: ('A' for Active; 'I' for Inactive)
REMARK    1  A    between atoms: C_8  and  C_9 
REMARK    2  A    between atoms: C_10  and  O_11 
REMARK    3  A    between atoms: C_24  and  N_25 
ROOT
HETATM    1  C   UNL     1      43.247 -11.376  -1.215  1.00  0.00     0.070 C 
HETATM    2  C   UNL     1      42.429 -12.313  -2.016  1.00  0.00     0.035 A 
HETATM    3  N   UNL     1      42.734 -12.639  -3.318  1.00  0.00    -0.280 N 
HETATM    4  H   UNL     1      43.513 -12.310  -3.879  1.00  0.00     0.189 HD
HETATM    5  N   UNL     1      41.854 -13.488  -3.887  1.00  0.00    -0.148 NA
HETATM    6  C   UNL     1      40.987 -13.700  -2.907  1.00  0.00     0.199 A 
HETATM    7  C   UNL     1      41.291 -13.033  -1.716  1.00  0.00     0.034 A 
HETATM    8  C   UNL     1      40.412 -13.176  -0.521  1.00  0.00     0.107 C 
HETATM    9  C   UNL     1      39.101 -13.832  -0.916  1.00  0.00     0.067 C 
HETATM   10  C   UNL     1      37.905 -13.594  -0.007  1.00  0.00     0.020 C 
HETATM   11  N   UNL     1      36.914 -13.397   0.747  1.00  0.00    -0.096 N 
HETATM   12  C   UNL     1      38.903 -14.438  -2.117  1.00  0.00     0.139 C 
HETATM   13  O   UNL     1      39.904 -14.477  -3.102  1.00  0.00    -0.277 OA
ENDROOT
BRANCH   8  14
HETATM   14  C   UNL     1      41.200 -14.009   0.483  1.00  0.00    -0.010 A 
HETATM   15  C   UNL     1      41.401 -13.547   1.791  1.00  0.00     0.076 A 
HETATM   16  C   UNL     1      42.071 -14.336   2.735  1.00  0.00     0.049 A 
HETATM   17  C   UNL     1      42.599 -15.590   2.384  1.00  0.00    -0.023 A 
HETATM   18  C   UNL     1      42.428 -16.062   1.067  1.00  0.00    -0.025 A 
HETATM   19  C   UNL     1      43.285 -16.389   3.312  1.00  0.00     0.012 A 
HETATM   20  C   UNL     1      41.721 -15.278   0.143  1.00  0.00     0.023 A 
HETATM   21  C   UNL     1      42.961 -17.310   0.705  1.00  0.00     0.012 A 
HETATM   22  C   UNL     1      43.649 -18.087   1.637  1.00  0.00     0.001 A 
HETATM   23  C   UNL     1      43.807 -17.629   2.941  1.00  0.00     0.001 A 
BRANCH  15  24
HETATM   24  O   UNL     1      40.851 -12.337   2.132  1.00  0.00    -0.355 OA
HETATM   25  C   UNL     1      39.779 -12.454   3.065  1.00  0.00     0.210 C 
ENDBRANCH  15  24
ENDBRANCH   8  14
BRANCH  12  26
HETATM   26  N   UNL     1      37.729 -15.028  -2.532  1.00  0.00    -0.282 NA
HETATM   27  H   UNL     1      37.767 -15.539  -3.410  1.00  0.00     0.126 HD
HETATM   28  H   UNL     1      37.279 -15.549  -1.783  1.00  0.00     0.126 HD
ENDBRANCH  12  26
TORSDOF 3
ENDMDL
MODEL 3
REMARK VINA RESULT:      -6.8      4.089      6.171
REMARK  3 active torsions:
REMARK  status: ('A' for Active; 'I' for Inactive)
REMARK    1  A    between atoms: C_8  and  C_9 
REMARK    2  A    between atoms: C_10  and  O_11 
REMARK    3  A    between atoms: C_24  and  N_25 
ROOT
HETATM    1  C   UNL     1      43.583 -16.312   8.099  1.00  0.00     0.070 C 
HETATM    2  C   UNL     1      43.946 -15.377   7.012  1.00  0.00     0.035 A 
HETATM    3  N   UNL     1      44.911 -14.405   7.160  1.00  0.00    -0.280 N 
HETATM    4  H   UNL     1      45.476 -14.204   7.978  1.00  0.00     0.189 HD
HETATM    5  N   UNL     1      45.079 -13.635   6.065  1.00  0.00    -0.148 NA
HETATM    6  C   UNL     1      44.202 -14.151   5.215  1.00  0.00     0.199 A 
HETATM    7  C   UNL     1      43.489 -15.244   5.717  1.00  0.00     0.034 A 
HETATM    8  C   UNL     1      42.470 -15.935   4.878  1.00  0.00     0.107 C 
HETATM    9  C   UNL     1      42.157 -15.101   3.648  1.00  0.00     0.067 C 
HETATM   10  C   UNL     1      40.821 -15.344   2.967  1.00  0.00     0.020 C 
HETATM   11  N   UNL     1      39.711 -15.546   2.402  1.00  0.00    -0.096 N 
HETATM   12  C   UNL     1      42.910 -14.038   3.258  1.00  0.00     0.139 C 
HETATM   13  O   UNL     1      44.030 -13.613   3.993  1.00  0.00    -0.277 OA
ENDROOT
BRANCH   8  14
HETATM   14  C   UNL     1      43.067 -17.292   4.524  1.00  0.00    -0.010 A 
HETATM   15  C   UNL     1      43.531 -17.551   3.226  1.00  0.00     0.076 A 
HETATM   16  C   UNL     1      44.137 -18.774   2.913  1.00  0.00     0.049 A 
HETATM   17  C   UNL     1      44.253 -19.790   3.876  1.00  0.00    -0.023 A 
HETATM   18  C   UNL     1      43.771 -19.559   5.180  1.00  0.00    -0.025 A 
HETATM   19  C   UNL     1      44.845 -21.028   3.577  1.00  0.00     0.012 A 
HETATM   20  C   UNL     1      43.203 -18.314   5.491  1.00  0.00     0.023 A 
HETATM   21  C   UNL     1      43.876 -20.573   6.146  1.00  0.00     0.012 A 
HETATM   22  C   UNL     1      44.457 -21.800   5.830  1.00  0.00     0.001 A 
HETATM   23  C   UNL     1      44.946 -22.026   4.548  1.00  0.00     0.001 A 
BRANCH  15  24
HETATM   24  O   UNL     1      43.444 -16.539   2.304  1.00  0.00    -0.355 OA
HETATM   25  C   UNL     1      43.377 -17.012   0.961  1.00  0.00     0.210 C 
ENDBRANCH  15  24
ENDBRANCH   8  14
BRANCH  12  26
HETATM   26  N   UNL     1      42.658 -13.237   2.165  1.00  0.00    -0.282 NA
HETATM   27  H   UNL     1      42.781 -12.237   2.301  1.00  0.00     0.126 HD
HETATM   28  H   UNL     1      43.113 -13.587   1.324  1.00  0.00     0.126 HD
ENDBRANCH  12  26
TORSDOF 3
ENDMDL
MODEL 4
REMARK VINA RESULT:      -6.8      4.379      6.944
REMARK  3 active torsions:
REMARK  status: ('A' for Active; 'I' for Inactive)
REMARK    1  A    between atoms: C_8  and  C_9 
REMARK    2  A    between atoms: C_10  and  O_11 
REMARK    3  A    between atoms: C_24  and  N_25 
ROOT
HETATM    1  C   UNL     1      42.983 -17.346   0.758  1.00  0.00     0.070 C 
HETATM    2  C   UNL     1      41.997 -16.770   1.697  1.00  0.00     0.035 A 
HETATM    3  N   UNL     1      40.665 -16.627   1.381  1.00  0.00    -0.280 N 
HETATM    4  H   UNL     1      40.197 -16.882   0.517  1.00  0.00     0.189 HD
HETATM    5  N   UNL     1      39.931 -16.057   2.359  1.00  0.00    -0.148 NA
HETATM    6  C   UNL     1      40.833 -15.850   3.309  1.00  0.00     0.199 A 
HETATM    7  C   UNL     1      42.120 -16.289   2.986  1.00  0.00     0.034 A 
HETATM    8  C   UNL     1      43.241 -16.131   3.955  1.00  0.00     0.107 C 
HETATM    9  C   UNL     1      42.827 -15.202   5.081  1.00  0.00     0.067 C 
HETATM   10  C   UNL     1      43.939 -14.507   5.851  1.00  0.00     0.020 C 
HETATM   11  N   UNL     1      44.861 -13.932   6.490  1.00  0.00    -0.096 N 
HETATM   12  C   UNL     1      41.540 -14.817   5.295  1.00  0.00     0.139 C 
HETATM   13  O   UNL     1      40.492 -15.238   4.459  1.00  0.00    -0.277 OA
ENDROOT
BRANCH   8  14
HETATM   14  C   UNL     1      43.570 -17.535   4.450  1.00  0.00    -0.010 A 
HETATM   15  C   UNL     1      43.466 -17.853   5.812  1.00  0.00     0.076 A 
HETATM   16  C   UNL     1      43.707 -19.157   6.262  1.00  0.00     0.049 A 
HETATM   17  C   UNL     1      44.104 -20.168   5.371  1.00  0.00    -0.023 A 
HETATM   18  C   UNL     1      44.237 -19.863   4.002  1.00  0.00    -0.025 A 
HETATM   19  C   UNL     1      44.363 -21.478   5.807  1.00  0.00     0.012 A 
HETATM   20  C   UNL     1      43.954 -18.562   3.558  1.00  0.00     0.023 A 
HETATM   21  C   UNL     1      44.642 -20.866   3.106  1.00  0.00     0.012 A 
HETATM   22  C   UNL     1      44.906 -22.159   3.556  1.00  0.00     0.001 A 
HETATM   23  C   UNL     1      44.761 -22.466   4.905  1.00  0.00     0.001 A 
BRANCH  15  24
HETATM   24  O   UNL     1      43.044 -16.867   6.667  1.00  0.00    -0.355 OA
HETATM   25  C   UNL     1      43.145 -17.237   8.040  1.00  0.00     0.210 C 
ENDBRANCH  15  24
ENDBRANCH   8  14
BRANCH  12  26
HETATM   26  N   UNL     1      41.115 -13.961   6.287  1.00  0.00    -0.282 NA
HETATM   27  H   UNL     1      40.121 -13.751   6.306  1.00  0.00     0.126 HD
HETATM   28  H   UNL     1      41.488 -14.220   7.198  1.00  0.00     0.126 HD
ENDBRANCH  12  26
TORSDOF 3
ENDMDL
MODEL 5
REMARK VINA RESULT:      -6.7      2.041      3.451
REMARK  3 active torsions:
REMARK  status: ('A' for Active; 'I' for Inactive)
REMARK    1  A    between atoms: C_8  and  C_9 
REMARK    2  A    between atoms: C_10  and  O_11 
REMARK    3  A    between atoms: C_24  and  N_25 
ROOT
HETATM    1  C   UNL     1      37.539 -13.771   0.953  1.00  0.00     0.070 C 
HETATM    2  C   UNL     1      38.521 -12.746   1.368  1.00  0.00     0.035 A 
HETATM    3  N   UNL     1      38.302 -11.894   2.427  1.00  0.00    -0.280 N 
HETATM    4  H   UNL     1      37.493 -11.850   3.038  1.00  0.00     0.189 HD
HETATM    5  N   UNL     1      39.303 -11.012   2.633  1.00  0.00    -0.148 NA
HETATM    6  C   UNL     1      40.167 -11.334   1.680  1.00  0.00     0.199 A 
HETATM    7  C   UNL     1      39.768 -12.410   0.881  1.00  0.00     0.034 A 
HETATM    8  C   UNL     1      40.636 -12.893  -0.230  1.00  0.00     0.107 C 
HETATM    9  C   UNL     1      41.740 -11.887  -0.502  1.00  0.00     0.067 C 
HETATM   10  C   UNL     1      42.382 -11.917  -1.879  1.00  0.00     0.020 C 
HETATM   11  N   UNL     1      42.915 -11.943  -3.022  1.00  0.00    -0.096 N 
HETATM   12  C   UNL     1      42.033 -10.858   0.338  1.00  0.00     0.139 C 
HETATM   13  O   UNL     1      41.306 -10.634   1.519  1.00  0.00    -0.277 OA
ENDROOT
BRANCH   8  14
HETATM   14  C   UNL     1      41.178 -14.245   0.218  1.00  0.00    -0.010 A 
HETATM   15  C   UNL     1      41.005 -15.383  -0.582  1.00  0.00     0.076 A 
HETATM   16  C   UNL     1      41.555 -16.615  -0.204  1.00  0.00     0.049 A 
HETATM   17  C   UNL     1      42.253 -16.753   1.006  1.00  0.00    -0.023 A 
HETATM   18  C   UNL     1      42.417 -15.626   1.837  1.00  0.00    -0.025 A 
HETATM   19  C   UNL     1      42.800 -17.983   1.408  1.00  0.00     0.012 A 
HETATM   20  C   UNL     1      41.895 -14.390   1.427  1.00  0.00     0.023 A 
HETATM   21  C   UNL     1      43.106 -15.758   3.054  1.00  0.00     0.012 A 
HETATM   22  C   UNL     1      43.634 -16.989   3.443  1.00  0.00     0.001 A 
HETATM   23  C   UNL     1      43.485 -18.099   2.619  1.00  0.00     0.001 A 
BRANCH  15  24
HETATM   24  O   UNL     1      40.352 -15.228  -1.779  1.00  0.00    -0.355 OA
HETATM   25  C   UNL     1      41.178 -15.510  -2.906  1.00  0.00     0.210 C 
ENDBRANCH  15  24
ENDBRANCH   8  14
BRANCH  12  26
HETATM   26  N   UNL     1      43.008  -9.907   0.128  1.00  0.00    -0.282 NA
HETATM   27  H   UNL     1      43.608 -10.048  -0.680  1.00  0.00     0.126 HD
HETATM   28  H   UNL     1      42.639  -8.962   0.194  1.00  0.00     0.126 HD
ENDBRANCH  12  26
TORSDOF 3
ENDMDL
MODEL 6
REMARK VINA RESULT:      -6.5      2.658      5.616
REMARK  3 active torsions:
REMARK  status: ('A' for Active; 'I' for Inactive)
REMARK    1  A    between atoms: C_8  and  C_9 
REMARK    2  A    between atoms: C_10  and  O_11 
REMARK    3  A    between atoms: C_24  and  N_25 
ROOT
HETATM    1  C   UNL     1      37.669 -12.743  -2.789  1.00  0.00     0.070 C 
HETATM    2  C   UNL     1      38.780 -13.718  -2.764  1.00  0.00     0.035 A 
HETATM    3  N   UNL     1      39.194 -14.401  -3.886  1.00  0.00    -0.280 N 
HETATM    4  H   UNL     1      38.825 -14.337  -4.829  1.00  0.00     0.189 HD
HETATM    5  N   UNL     1      40.204 -15.265  -3.656  1.00  0.00    -0.148 NA
HETATM    6  C   UNL     1      40.426 -15.106  -2.358  1.00  0.00     0.199 A 
HETATM    7  C   UNL     1      39.609 -14.150  -1.748  1.00  0.00     0.034 A 
HETATM    8  C   UNL     1      39.743 -13.854  -0.294  1.00  0.00     0.107 C 
HETATM    9  C   UNL     1      40.600 -14.913   0.376  1.00  0.00     0.067 C 
HETATM   10  C   UNL     1      40.429 -15.099   1.874  1.00  0.00     0.020 C 
HETATM   11  N   UNL     1      40.286 -15.253   3.118  1.00  0.00    -0.096 N 
HETATM   12  C   UNL     1      41.346 -15.815  -0.318  1.00  0.00     0.139 C 
HETATM   13  O   UNL     1      41.353 -15.847  -1.722  1.00  0.00    -0.277 OA
ENDROOT
BRANCH   8  14
HETATM   14  C   UNL     1      40.360 -12.463  -0.203  1.00  0.00    -0.010 A 
HETATM   15  C   UNL     1      39.731 -11.451   0.537  1.00  0.00     0.076 A 
HETATM   16  C   UNL     1      40.326 -10.190   0.674  1.00  0.00     0.049 A 
HETATM   17  C   UNL     1      41.542  -9.892   0.038  1.00  0.00    -0.023 A 
HETATM   18  C   UNL     1      42.178 -10.889  -0.730  1.00  0.00    -0.025 A 
HETATM   19  C   UNL     1      42.146  -8.629   0.153  1.00  0.00     0.012 A 
HETATM   20  C   UNL     1      41.591 -12.159  -0.826  1.00  0.00     0.023 A 
HETATM   21  C   UNL     1      43.390 -10.595  -1.377  1.00  0.00     0.012 A 
HETATM   22  C   UNL     1      43.971  -9.333  -1.261  1.00  0.00     0.001 A 
HETATM   23  C   UNL     1      43.352  -8.352  -0.492  1.00  0.00     0.001 A 
BRANCH  15  24
HETATM   24  O   UNL     1      38.562 -11.765   1.182  1.00  0.00    -0.355 OA
HETATM   25  C   UNL     1      38.695 -11.781   2.602  1.00  0.00     0.210 C 
ENDBRANCH  15  24
ENDBRANCH   8  14
BRANCH  12  26
HETATM   26  N   UNL     1      42.122 -16.808   0.239  1.00  0.00    -0.282 NA
HETATM   27  H   UNL     1      42.935 -17.098  -0.297  1.00  0.00     0.126 HD
HETATM   28  H   UNL     1      42.331 -16.623   1.218  1.00  0.00     0.126 HD
ENDBRANCH  12  26
TORSDOF 3
ENDMDL
MODEL 7
REMARK VINA RESULT:      -6.4      3.000      5.734
REMARK  3 active torsions:
REMARK  status: ('A' for Active; 'I' for Inactive)
REMARK    1  A    between atoms: C_8  and  C_9 
REMARK    2  A    between atoms: C_10  and  O_11 
REMARK    3  A    between atoms: C_24  and  N_25 
ROOT
HETATM    1  C   UNL     1      40.991 -17.612   0.991  1.00  0.00     0.070 C 
HETATM    2  C   UNL     1      41.898 -16.672   1.683  1.00  0.00     0.035 A 
HETATM    3  N   UNL     1      43.188 -17.005   2.032  1.00  0.00    -0.280 N 
HETATM    4  H   UNL     1      43.672 -17.882   1.873  1.00  0.00     0.189 HD
HETATM    5  N   UNL     1      43.847 -16.022   2.680  1.00  0.00    -0.148 NA
HETATM    6  C   UNL     1      42.944 -15.053   2.725  1.00  0.00     0.199 A 
HETATM    7  C   UNL     1      41.730 -15.369   2.107  1.00  0.00     0.034 A 
HETATM    8  C   UNL     1      40.617 -14.379   2.070  1.00  0.00     0.107 C 
HETATM    9  C   UNL     1      40.910 -13.233   3.022  1.00  0.00     0.067 C 
HETATM   10  C   UNL     1      39.722 -12.426   3.522  1.00  0.00     0.020 C 
HETATM   11  N   UNL     1      38.737 -11.757   3.937  1.00  0.00    -0.096 N 
HETATM   12  C   UNL     1      42.129 -13.028   3.589  1.00  0.00     0.139 C 
HETATM   13  O   UNL     1      43.212 -13.891   3.351  1.00  0.00    -0.277 OA
ENDROOT
BRANCH   8  14
HETATM   14  C   UNL     1      40.511 -13.919   0.621  1.00  0.00    -0.010 A 
HETATM   15  C   UNL     1      39.272 -13.914  -0.036  1.00  0.00     0.076 A 
HETATM   16  C   UNL     1      39.160 -13.434  -1.348  1.00  0.00     0.049 A 
HETATM   17  C   UNL     1      40.289 -12.989  -2.054  1.00  0.00    -0.023 A 
HETATM   18  C   UNL     1      41.548 -13.009  -1.419  1.00  0.00    -0.025 A 
HETATM   19  C   UNL     1      40.198 -12.518  -3.373  1.00  0.00     0.012 A 
HETATM   20  C   UNL     1      41.639 -13.455  -0.092  1.00  0.00     0.023 A 
HETATM   21  C   UNL     1      42.684 -12.575  -2.121  1.00  0.00     0.012 A 
HETATM   22  C   UNL     1      42.577 -12.119  -3.435  1.00  0.00     0.001 A 
HETATM   23  C   UNL     1      41.334 -12.086  -4.059  1.00  0.00     0.001 A 
BRANCH  15  24
HETATM   24  O   UNL     1      38.171 -14.317   0.675  1.00  0.00    -0.355 OA
HETATM   25  C   UNL     1      37.146 -13.327   0.727  1.00  0.00     0.210 C 
ENDBRANCH  15  24
ENDBRANCH   8  14
BRANCH  12  26
HETATM   26  N   UNL     1      42.441 -12.018   4.473  1.00  0.00    -0.282 NA
HETATM   27  H   UNL     1      42.632 -11.106   4.067  1.00  0.00     0.126 HD
HETATM   28  H   UNL     1      41.789 -11.981   5.253  1.00  0.00     0.126 HD
ENDBRANCH  12  26
TORSDOF 3
ENDMDL
MODEL 8
REMARK VINA RESULT:      -6.4      3.016      4.481
REMARK  3 active torsions:
REMARK  status: ('A' for Active; 'I' for Inactive)
REMARK    1  A    between atoms: C_8  and  C_9 
REMARK    2  A    between atoms: C_10  and  O_11 
REMARK    3  A    between atoms: C_24  and  N_25 
ROOT
HETATM    1  C   UNL     1      42.730 -12.169  -2.507  1.00  0.00     0.070 C 
HETATM    2  C   UNL     1      41.858 -13.310  -2.859  1.00  0.00     0.035 A 
HETATM    3  N   UNL     1      42.355 -14.518  -3.297  1.00  0.00    -0.280 N 
HETATM    4  H   UNL     1      43.325 -14.784  -3.429  1.00  0.00     0.189 HD
HETATM    5  N   UNL     1      41.400 -15.424  -3.592  1.00  0.00    -0.148 NA
HETATM    6  C   UNL     1      40.284 -14.762  -3.322  1.00  0.00     0.199 A 
HETATM    7  C   UNL     1      40.486 -13.466  -2.839  1.00  0.00     0.034 A 
HETATM    8  C   UNL     1      39.328 -12.598  -2.485  1.00  0.00     0.107 C 
HETATM    9  C   UNL     1      38.042 -13.207  -3.016  1.00  0.00     0.067 C 
HETATM   10  C   UNL     1      36.866 -12.267  -3.229  1.00  0.00     0.020 C 
HETATM   11  N   UNL     1      35.891 -11.487  -3.405  1.00  0.00    -0.096 N 
HETATM   12  C   UNL     1      37.959 -14.480  -3.486  1.00  0.00     0.139 C 
HETATM   13  O   UNL     1      39.080 -15.325  -3.540  1.00  0.00    -0.277 OA
ENDROOT
BRANCH   8  14
HETATM   14  C   UNL     1      39.335 -12.487  -0.965  1.00  0.00    -0.010 A 
HETATM   15  C   UNL     1      39.036 -11.269  -0.338  1.00  0.00     0.076 A 
HETATM   16  C   UNL     1      38.981 -11.178   1.059  1.00  0.00     0.049 A 
HETATM   17  C   UNL     1      39.267 -12.289   1.868  1.00  0.00    -0.023 A 
HETATM   18  C   UNL     1      39.593 -13.517   1.257  1.00  0.00    -0.025 A 
HETATM   19  C   UNL     1      39.230 -12.213   3.270  1.00  0.00     0.012 A 
HETATM   20  C   UNL     1      39.606 -13.605  -0.144  1.00  0.00     0.023 A 
HETATM   21  C   UNL     1      39.890 -14.632   2.059  1.00  0.00     0.012 A 
HETATM   22  C   UNL     1      39.859 -14.536   3.450  1.00  0.00     0.001 A 
HETATM   23  C   UNL     1      39.524 -13.329   4.055  1.00  0.00     0.001 A 
BRANCH  15  24
HETATM   24  O   UNL     1      38.724 -10.200  -1.138  1.00  0.00    -0.355 OA
HETATM   25  C   UNL     1      37.529  -9.532  -0.737  1.00  0.00     0.210 C 
ENDBRANCH  15  24
ENDBRANCH   8  14
BRANCH  12  26
HETATM   26  N   UNL     1      36.825 -15.072  -3.997  1.00  0.00    -0.282 NA
HETATM   27  H   UNL     1      35.937 -14.680  -3.695  1.00  0.00     0.126 HD
HETATM   28  H   UNL     1      36.884 -15.202  -5.004  1.00  0.00     0.126 HD
ENDBRANCH  12  26
TORSDOF 3
ENDMDL
MODEL 9
REMARK VINA RESULT:      -6.3      4.234      6.877
REMARK  3 active torsions:
REMARK  status: ('A' for Active; 'I' for Inactive)
REMARK    1  A    between atoms: C_8  and  C_9 
REMARK    2  A    between atoms: C_10  and  O_11 
REMARK    3  A    between atoms: C_24  and  N_25 
ROOT
HETATM    1  C   UNL     1      41.159 -16.104   1.516  1.00  0.00     0.070 C 
HETATM    2  C   UNL     1      40.893 -15.456   2.819  1.00  0.00     0.035 A 
HETATM    3  N   UNL     1      39.632 -15.068   3.212  1.00  0.00    -0.280 N 
HETATM    4  H   UNL     1      38.760 -15.166   2.701  1.00  0.00     0.189 HD
HETATM    5  N   UNL     1      39.597 -14.472   4.421  1.00  0.00    -0.148 NA
HETATM    6  C   UNL     1      40.871 -14.501   4.790  1.00  0.00     0.199 A 
HETATM    7  C   UNL     1      41.722 -15.117   3.869  1.00  0.00     0.034 A 
HETATM    8  C   UNL     1      43.182 -15.231   4.144  1.00  0.00     0.107 C 
HETATM    9  C   UNL     1      43.560 -14.348   5.320  1.00  0.00     0.067 C 
HETATM   10  C   UNL     1      45.014 -13.917   5.424  1.00  0.00     0.020 C 
HETATM   11  N   UNL     1      46.220 -13.559   5.510  1.00  0.00    -0.096 N 
HETATM   12  C   UNL     1      42.644 -13.776   6.147  1.00  0.00     0.139 C 
HETATM   13  O   UNL     1      41.263 -13.944   5.952  1.00  0.00    -0.277 OA
ENDROOT
BRANCH   8  14
HETATM   14  C   UNL     1      43.444 -16.708   4.419  1.00  0.00    -0.010 A 
HETATM   15  C   UNL     1      43.898 -17.553   3.396  1.00  0.00     0.076 A 
HETATM   16  C   UNL     1      44.198 -18.896   3.658  1.00  0.00     0.049 A 
HETATM   17  C   UNL     1      44.010 -19.442   4.938  1.00  0.00    -0.023 A 
HETATM   18  C   UNL     1      43.532 -18.614   5.974  1.00  0.00    -0.025 A 
HETATM   19  C   UNL     1      44.293 -20.789   5.216  1.00  0.00     0.012 A 
HETATM   20  C   UNL     1      43.272 -17.262   5.707  1.00  0.00     0.023 A 
HETATM   21  C   UNL     1      43.332 -19.155   7.255  1.00  0.00     0.012 A 
HETATM   22  C   UNL     1      43.608 -20.498   7.512  1.00  0.00     0.001 A 
HETATM   23  C   UNL     1      44.093 -21.313   6.495  1.00  0.00     0.001 A 
BRANCH  15  24
HETATM   24  O   UNL     1      44.111 -17.000   2.159  1.00  0.00    -0.355 OA
HETATM   25  C   UNL     1      43.854 -17.907   1.089  1.00  0.00     0.210 C 
ENDBRANCH  15  24
ENDBRANCH   8  14
BRANCH  12  26
HETATM   26  N   UNL     1      42.933 -12.951   7.212  1.00  0.00    -0.282 NA
HETATM   27  H   UNL     1      42.605 -11.992   7.140  1.00  0.00     0.126 HD
HETATM   28  H   UNL     1      42.707 -13.387   8.103  1.00  0.00     0.126 HD
ENDBRANCH  12  26
TORSDOF 3
ENDMDL
MODEL 10
REMARK VINA RESULT:      -6.2      2.315      5.575
REMARK  3 active torsions:
REMARK  status: ('A' for Active; 'I' for Inactive)
REMARK    1  A    between atoms: C_8  and  C_9 
REMARK    2  A    between atoms: C_10  and  O_11 
REMARK    3  A    between atoms: C_24  and  N_25 
ROOT
HETATM    1  C   UNL     1      41.189 -15.994   0.155  1.00  0.00     0.070 C 
HETATM    2  C   UNL     1      41.120 -15.414  -1.203  1.00  0.00     0.035 A 
HETATM    3  N   UNL     1      40.758 -16.151  -2.309  1.00  0.00    -0.280 N 
HETATM    4  H   UNL     1      40.501 -17.131  -2.350  1.00  0.00     0.189 HD
HETATM    5  N   UNL     1      40.779 -15.450  -3.461  1.00  0.00    -0.148 NA
HETATM    6  C   UNL     1      41.155 -14.245  -3.056  1.00  0.00     0.199 A 
HETATM    7  C   UNL     1      41.355 -14.138  -1.676  1.00  0.00     0.034 A 
HETATM    8  C   UNL     1      41.775 -12.844  -1.069  1.00  0.00     0.107 C 
HETATM    9  C   UNL     1      42.221 -11.880  -2.154  1.00  0.00     0.067 C 
HETATM   10  C   UNL     1      43.152 -10.753  -1.740  1.00  0.00     0.020 C 
HETATM   11  N   UNL     1      43.925  -9.817  -1.396  1.00  0.00    -0.096 N 
HETATM   12  C   UNL     1      41.993 -12.093  -3.478  1.00  0.00     0.139 C 
HETATM   13  O   UNL     1      41.344 -13.249  -3.942  1.00  0.00    -0.277 OA
ENDROOT
BRANCH   8  14
HETATM   14  C   UNL     1      40.566 -12.331  -0.295  1.00  0.00    -0.010 A 
HETATM   15  C   UNL     1      40.695 -11.920   1.039  1.00  0.00     0.076 A 
HETATM   16  C   UNL     1      39.600 -11.390   1.734  1.00  0.00     0.049 A 
HETATM   17  C   UNL     1      38.336 -11.299   1.129  1.00  0.00    -0.023 A 
HETATM   18  C   UNL     1      38.180 -11.730  -0.204  1.00  0.00    -0.025 A 
HETATM   19  C   UNL     1      37.224 -10.783   1.814  1.00  0.00     0.012 A 
HETATM   20  C   UNL     1      39.294 -12.222  -0.901  1.00  0.00     0.023 A 
HETATM   21  C   UNL     1      36.916 -11.652  -0.813  1.00  0.00     0.012 A 
HETATM   22  C   UNL     1      35.820 -11.146  -0.115  1.00  0.00     0.001 A 
HETATM   23  C   UNL     1      35.974 -10.708   1.196  1.00  0.00     0.001 A 
BRANCH  15  24
HETATM   24  O   UNL     1      41.942 -11.980   1.607  1.00  0.00    -0.355 OA
HETATM   25  C   UNL     1      42.064 -13.015   2.580  1.00  0.00     0.210 C 
ENDBRANCH  15  24
ENDBRANCH   8  14
BRANCH  12  26
HETATM   26  N   UNL     1      42.394 -11.262  -4.501  1.00  0.00    -0.282 NA
HETATM   27  H   UNL     1      43.262 -11.510  -4.968  1.00  0.00     0.126 HD
HETATM   28  H   UNL     1      41.634 -11.060  -5.147  1.00  0.00     0.126 HD
ENDBRANCH  12  26
TORSDOF 3
ENDMDL
