MODEL 1
REMARK VINA RESULT:      -8.3      0.000      0.000
REMARK  9 active torsions:
REMARK  status: ('A' for Active; 'I' for Inactive)
REMARK    1  A    between atoms: C_2  and  C_3 
REMARK    2  A    between atoms: C_6  and  N_7 
REMARK    3  A    between atoms: N_7  and  S_8 
REMARK    4  A    between atoms: S_8  and  C_9 
REMARK    5  A    between atoms: C_15  and  C_16 
REMARK       I    between atoms: C_16  and  N_17 
REMARK    6  A    between atoms: N_17  and  C_18 
REMARK    7  A    between atoms: C_18  and  C_19 
REMARK    8  A    between atoms: C_19  and  C_20 
REMARK    9  A    between atoms: C_20  and  O_21 
ROOT
HETATM    1  C   UNL     1      40.827 -15.030   4.485  1.00  0.00     0.081 A 
HETATM    2  C   UNL     1      40.687 -15.119   3.098  1.00  0.00     0.043 A 
HETATM    3  C   UNL     1      39.974 -14.125   2.423  1.00  0.00     0.043 A 
HETATM    4  C   UNL     1      39.419 -13.035   3.117  1.00  0.00     0.046 A 
HETATM    5  N   UNL     1      38.675 -12.076   2.421  1.00  0.00    -0.364 N 
HETATM    6  C   UNL     1      38.532 -12.149   1.059  1.00  0.00     0.109 A 
HETATM    7  C   UNL     1      39.017 -13.128   0.275  1.00  0.00     0.098 A 
HETATM    8  C   UNL     1      39.787 -14.211   0.949  1.00  0.00     0.201 A 
HETATM    9  O   UNL     1      40.257 -15.158   0.321  1.00  0.00    -0.286 OA
HETATM   10  C   UNL     1      39.573 -12.962   4.505  1.00  0.00     0.032 A 
HETATM   11  C   UNL     1      40.284 -13.952   5.191  1.00  0.00     0.027 A 
HETATM   12  H   UNL     1      38.382 -11.229   2.894  1.00  0.00     0.165 HD
ENDROOT
BRANCH   1  13
HETATM   13  S   UNL     1      41.752 -16.285   5.344  1.00  0.00     0.263 S 
HETATM   14  O   UNL     1      40.997 -17.517   5.283  1.00  0.00    -0.200 OA
HETATM   15  O   UNL     1      42.160 -15.717   6.612  1.00  0.00    -0.200 OA
BRANCH  13  16
HETATM   16  N   UNL     1      43.150 -16.420   4.409  1.00  0.00    -0.281 N 
HETATM   17  H   UNL     1      43.304 -15.607   3.814  1.00  0.00     0.179 HD
BRANCH  16  18
HETATM   18  C   UNL     1      43.528 -17.693   3.904  1.00  0.00     0.042 A 
HETATM   19  C   UNL     1      43.215 -18.040   2.593  1.00  0.00     0.030 A 
HETATM   20  C   UNL     1      43.574 -19.299   2.100  1.00  0.00     0.010 A 
HETATM   21  C   UNL     1      44.261 -20.218   2.909  1.00  0.00    -0.055 A 
HETATM   22  C   UNL     1      44.551 -19.857   4.234  1.00  0.00     0.010 A 
HETATM   23  C   UNL     1      44.183 -18.604   4.729  1.00  0.00     0.030 A 
BRANCH  21  24
HETATM   24  C   UNL     1      44.679 -21.586   2.400  1.00  0.00     0.010 C 
HETATM   25  C   UNL     1      43.833 -22.056   1.213  1.00  0.00     0.015 C 
HETATM   26  C   UNL     1      44.655 -22.619   3.528  1.00  0.00     0.015 C 
ENDBRANCH  21  24
ENDBRANCH  16  18
ENDBRANCH  13  16
ENDBRANCH   1  13
BRANCH   7  27
HETATM   27  C   UNL     1      38.748 -13.065  -1.191  1.00  0.00     0.257 C 
HETATM   28  N   UNL     1      38.154 -14.179  -1.727  1.00  0.00    -0.357 N 
HETATM   29  H   UNL     1      37.907 -14.944  -1.096  1.00  0.00     0.162 HD
HETATM   30  O   UNL     1      39.038 -12.074  -1.856  1.00  0.00    -0.267 OA
BRANCH  28  31
HETATM   31  C   UNL     1      37.762 -14.268  -3.117  1.00  0.00     0.125 C 
BRANCH  31  32
HETATM   32  C   UNL     1      37.904 -15.668  -3.703  1.00  0.00     0.046 C 
BRANCH  32  33
HETATM   33  C   UNL     1      39.358 -16.077  -3.906  1.00  0.00     0.168 C 
BRANCH  33  34
HETATM   34  O   UNL     1      40.161 -14.895  -3.886  1.00  0.00    -0.396 OA
HETATM   35  C   UNL     1      41.334 -15.068  -3.103  1.00  0.00     0.201 C 
ENDBRANCH  33  34
ENDBRANCH  32  33
ENDBRANCH  31  32
ENDBRANCH  28  31
ENDBRANCH   7  27
TORSDOF 9
ENDMDL
MODEL 2
REMARK VINA RESULT:      -8.2      4.588      8.438
REMARK  9 active torsions:
REMARK  status: ('A' for Active; 'I' for Inactive)
REMARK    1  A    between atoms: C_2  and  C_3 
REMARK    2  A    between atoms: C_6  and  N_7 
REMARK    3  A    between atoms: N_7  and  S_8 
REMARK    4  A    between atoms: S_8  and  C_9 
REMARK    5  A    between atoms: C_15  and  C_16 
REMARK       I    between atoms: C_16  and  N_17 
REMARK    6  A    between atoms: N_17  and  C_18 
REMARK    7  A    between atoms: C_18  and  C_19 
REMARK    8  A    between atoms: C_19  and  C_20 
REMARK    9  A    between atoms: C_20  and  O_21 
ROOT
HETATM    1  C   UNL     1      41.561 -13.409   4.149  1.00  0.00     0.081 A 
HETATM    2  C   UNL     1      41.857 -12.389   5.057  1.00  0.00     0.043 A 
HETATM    3  C   UNL     1      41.015 -12.194   6.154  1.00  0.00     0.043 A 
HETATM    4  C   UNL     1      39.896 -13.020   6.365  1.00  0.00     0.046 A 
HETATM    5  N   UNL     1      39.049 -12.775   7.451  1.00  0.00    -0.364 N 
HETATM    6  C   UNL     1      39.327 -11.779   8.352  1.00  0.00     0.109 A 
HETATM    7  C   UNL     1      40.365 -10.927   8.276  1.00  0.00     0.098 A 
HETATM    8  C   UNL     1      41.293 -11.097   7.122  1.00  0.00     0.201 A 
HETATM    9  O   UNL     1      42.261 -10.358   6.956  1.00  0.00    -0.286 OA
HETATM   10  C   UNL     1      39.619 -14.037   5.447  1.00  0.00     0.032 A 
HETATM   11  C   UNL     1      40.454 -14.241   4.343  1.00  0.00     0.027 A 
HETATM   12  H   UNL     1      38.317 -13.440   7.675  1.00  0.00     0.165 HD
ENDROOT
BRANCH   1  13
HETATM   13  S   UNL     1      42.643 -13.672   2.760  1.00  0.00     0.263 S 
HETATM   14  O   UNL     1      43.961 -13.978   3.272  1.00  0.00    -0.200 OA
HETATM   15  O   UNL     1      42.431 -12.571   1.844  1.00  0.00    -0.200 OA
BRANCH  13  16
HETATM   16  N   UNL     1      41.980 -15.038   2.026  1.00  0.00    -0.281 N 
HETATM   17  H   UNL     1      40.961 -15.014   2.001  1.00  0.00     0.179 HD
BRANCH  16  18
HETATM   18  C   UNL     1      42.610 -16.299   2.206  1.00  0.00     0.042 A 
HETATM   19  C   UNL     1      42.500 -16.962   3.426  1.00  0.00     0.030 A 
HETATM   20  C   UNL     1      43.132 -18.196   3.608  1.00  0.00     0.010 A 
HETATM   21  C   UNL     1      43.870 -18.785   2.569  1.00  0.00    -0.055 A 
HETATM   22  C   UNL     1      43.985 -18.093   1.354  1.00  0.00     0.010 A 
HETATM   23  C   UNL     1      43.362 -16.856   1.175  1.00  0.00     0.030 A 
BRANCH  21  24
HETATM   24  C   UNL     1      44.555 -20.131   2.729  1.00  0.00     0.010 C 
HETATM   25  C   UNL     1      43.842 -21.249   1.962  1.00  0.00     0.015 C 
HETATM   26  C   UNL     1      44.705 -20.494   4.207  1.00  0.00     0.015 C 
ENDBRANCH  21  24
ENDBRANCH  16  18
ENDBRANCH  13  16
ENDBRANCH   1  13
BRANCH   7  27
HETATM   27  C   UNL     1      40.507  -9.883   9.332  1.00  0.00     0.257 C 
HETATM   28  N   UNL     1      41.617 -10.003  10.129  1.00  0.00    -0.357 N 
HETATM   29  H   UNL     1      42.276 -10.757   9.928  1.00  0.00     0.162 HD
HETATM   30  O   UNL     1      39.682  -8.983   9.461  1.00  0.00    -0.267 OA
BRANCH  28  31
HETATM   31  C   UNL     1      41.948  -9.043  11.161  1.00  0.00     0.125 C 
BRANCH  31  32
HETATM   32  C   UNL     1      43.228  -9.380  11.919  1.00  0.00     0.046 C 
BRANCH  32  33
HETATM   33  C   UNL     1      43.039 -10.514  12.919  1.00  0.00     0.168 C 
BRANCH  33  34
HETATM   34  O   UNL     1      42.888 -11.732  12.188  1.00  0.00    -0.396 OA
HETATM   35  C   UNL     1      44.088 -12.098  11.521  1.00  0.00     0.201 C 
ENDBRANCH  33  34
ENDBRANCH  32  33
ENDBRANCH  31  32
ENDBRANCH  28  31
ENDBRANCH   7  27
TORSDOF 9
ENDMDL
MODEL 3
REMARK VINA RESULT:      -8.1      3.647      7.285
REMARK  9 active torsions:
REMARK  status: ('A' for Active; 'I' for Inactive)
REMARK    1  A    between atoms: C_2  and  C_3 
REMARK    2  A    between atoms: C_6  and  N_7 
REMARK    3  A    between atoms: N_7  and  S_8 
REMARK    4  A    between atoms: S_8  and  C_9 
REMARK    5  A    between atoms: C_15  and  C_16 
REMARK       I    between atoms: C_16  and  N_17 
REMARK    6  A    between atoms: N_17  and  C_18 
REMARK    7  A    between atoms: C_18  and  C_19 
REMARK    8  A    between atoms: C_19  and  C_20 
REMARK    9  A    between atoms: C_20  and  O_21 
ROOT
HETATM    1  C   UNL     1      40.353 -14.033   2.610  1.00  0.00     0.081 A 
HETATM    2  C   UNL     1      41.095 -13.668   3.736  1.00  0.00     0.043 A 
HETATM    3  C   UNL     1      40.708 -12.541   4.466  1.00  0.00     0.043 A 
HETATM    4  C   UNL     1      39.576 -11.792   4.096  1.00  0.00     0.046 A 
HETATM    5  N   UNL     1      39.236 -10.645   4.822  1.00  0.00    -0.364 N 
HETATM    6  C   UNL     1      39.953 -10.275   5.931  1.00  0.00     0.109 A 
HETATM    7  C   UNL     1      41.045 -10.905   6.399  1.00  0.00     0.098 A 
HETATM    8  C   UNL     1      41.497 -12.114   5.654  1.00  0.00     0.201 A 
HETATM    9  O   UNL     1      42.493 -12.749   5.994  1.00  0.00    -0.286 OA
HETATM   10  C   UNL     1      38.845 -12.177   2.967  1.00  0.00     0.032 A 
HETATM   11  C   UNL     1      39.224 -13.301   2.228  1.00  0.00     0.027 A 
HETATM   12  H   UNL     1      38.356 -10.178   4.635  1.00  0.00     0.165 HD
ENDROOT
BRANCH   1  13
HETATM   13  S   UNL     1      40.834 -15.479   1.690  1.00  0.00     0.263 S 
HETATM   14  O   UNL     1      40.622 -15.206   0.286  1.00  0.00    -0.200 OA
HETATM   15  O   UNL     1      40.214 -16.617   2.335  1.00  0.00    -0.200 OA
BRANCH  13  16
HETATM   16  N   UNL     1      42.486 -15.590   2.011  1.00  0.00    -0.281 N 
HETATM   17  H   UNL     1      43.035 -14.916   1.480  1.00  0.00     0.179 HD
BRANCH  16  18
HETATM   18  C   UNL     1      43.062 -16.866   2.259  1.00  0.00     0.042 A 
HETATM   19  C   UNL     1      43.266 -17.752   1.204  1.00  0.00     0.030 A 
HETATM   20  C   UNL     1      43.819 -19.012   1.451  1.00  0.00     0.010 A 
HETATM   21  C   UNL     1      44.185 -19.395   2.751  1.00  0.00    -0.055 A 
HETATM   22  C   UNL     1      43.954 -18.496   3.803  1.00  0.00     0.010 A 
HETATM   23  C   UNL     1      43.391 -17.241   3.559  1.00  0.00     0.030 A 
BRANCH  21  24
HETATM   24  C   UNL     1      44.802 -20.750   3.050  1.00  0.00     0.010 C 
HETATM   25  C   UNL     1      44.129 -21.887   2.274  1.00  0.00     0.015 C 
HETATM   26  C   UNL     1      44.790 -21.035   4.552  1.00  0.00     0.015 C 
ENDBRANCH  21  24
ENDBRANCH  16  18
ENDBRANCH  13  16
ENDBRANCH   1  13
BRANCH   7  27
HETATM   27  C   UNL     1      41.720 -10.353   7.609  1.00  0.00     0.257 C 
HETATM   28  N   UNL     1      41.992 -11.264   8.597  1.00  0.00    -0.357 N 
HETATM   29  H   UNL     1      41.755 -12.243   8.428  1.00  0.00     0.162 HD
HETATM   30  O   UNL     1      42.011  -9.162   7.695  1.00  0.00    -0.267 OA
BRANCH  28  31
HETATM   31  C   UNL     1      42.700 -10.917   9.811  1.00  0.00     0.125 C 
BRANCH  31  32
HETATM   32  C   UNL     1      44.041 -11.627   9.959  1.00  0.00     0.046 C 
BRANCH  32  33
HETATM   33  C   UNL     1      45.210 -10.658  10.091  1.00  0.00     0.168 C 
BRANCH  33  34
HETATM   34  O   UNL     1      46.100 -10.882   8.995  1.00  0.00    -0.396 OA
HETATM   35  C   UNL     1      45.994 -12.206   8.492  1.00  0.00     0.201 C 
ENDBRANCH  33  34
ENDBRANCH  32  33
ENDBRANCH  31  32
ENDBRANCH  28  31
ENDBRANCH   7  27
TORSDOF 9
ENDMDL
MODEL 4
REMARK VINA RESULT:      -8.1      3.845      9.035
REMARK  9 active torsions:
REMARK  status: ('A' for Active; 'I' for Inactive)
REMARK    1  A    between atoms: C_2  and  C_3 
REMARK    2  A    between atoms: C_6  and  N_7 
REMARK    3  A    between atoms: N_7  and  S_8 
REMARK    4  A    between atoms: S_8  and  C_9 
REMARK    5  A    between atoms: C_15  and  C_16 
REMARK       I    between atoms: C_16  and  N_17 
REMARK    6  A    between atoms: N_17  and  C_18 
REMARK    7  A    between atoms: C_18  and  C_19 
REMARK    8  A    between atoms: C_19  and  C_20 
REMARK    9  A    between atoms: C_20  and  O_21 
ROOT
HETATM    1  C   UNL     1      40.610 -14.776  -1.177  1.00  0.00     0.081 A 
HETATM    2  C   UNL     1      41.542 -15.540  -0.469  1.00  0.00     0.043 A 
HETATM    3  C   UNL     1      41.370 -15.714   0.907  1.00  0.00     0.043 A 
HETATM    4  C   UNL     1      40.267 -15.153   1.576  1.00  0.00     0.046 A 
HETATM    5  N   UNL     1      40.143 -15.310   2.960  1.00  0.00    -0.364 N 
HETATM    6  C   UNL     1      41.049 -16.059   3.668  1.00  0.00     0.109 A 
HETATM    7  C   UNL     1      42.138 -16.657   3.154  1.00  0.00     0.098 A 
HETATM    8  C   UNL     1      42.363 -16.500   1.689  1.00  0.00     0.201 A 
HETATM    9  O   UNL     1      43.338 -16.995   1.128  1.00  0.00    -0.286 OA
HETATM   10  C   UNL     1      39.344 -14.395   0.849  1.00  0.00     0.032 A 
HETATM   11  C   UNL     1      39.507 -14.212  -0.528  1.00  0.00     0.027 A 
HETATM   12  H   UNL     1      39.290 -15.016   3.423  1.00  0.00     0.165 HD
ENDROOT
BRANCH   1  13
HETATM   13  S   UNL     1      40.817 -14.568  -2.933  1.00  0.00     0.263 S 
HETATM   14  O   UNL     1      39.815 -13.633  -3.393  1.00  0.00    -0.200 OA
HETATM   15  O   UNL     1      40.926 -15.894  -3.505  1.00  0.00    -0.200 OA
BRANCH  13  16
HETATM   16  N   UNL     1      42.349 -13.872  -3.046  1.00  0.00    -0.281 N 
HETATM   17  H   UNL     1      43.092 -14.510  -2.764  1.00  0.00     0.179 HD
BRANCH  16  18
HETATM   18  C   UNL     1      42.509 -12.493  -2.745  1.00  0.00     0.042 A 
HETATM   19  C   UNL     1      42.405 -11.545  -3.760  1.00  0.00     0.030 A 
HETATM   20  C   UNL     1      42.578 -10.188  -3.467  1.00  0.00     0.010 A 
HETATM   21  C   UNL     1      42.843  -9.765  -2.154  1.00  0.00    -0.055 A 
HETATM   22  C   UNL     1      42.962 -10.737  -1.149  1.00  0.00     0.010 A 
HETATM   23  C   UNL     1      42.801 -12.092  -1.444  1.00  0.00     0.030 A 
BRANCH  21  24
HETATM   24  C   UNL     1      43.020  -8.299  -1.800  1.00  0.00     0.010 C 
HETATM   25  C   UNL     1      42.854  -7.377  -3.012  1.00  0.00     0.015 C 
HETATM   26  C   UNL     1      44.367  -8.062  -1.116  1.00  0.00     0.015 C 
ENDBRANCH  21  24
ENDBRANCH  16  18
ENDBRANCH  13  16
ENDBRANCH   1  13
BRANCH   7  27
HETATM   27  C   UNL     1      43.034 -17.416   4.073  1.00  0.00     0.257 C 
HETATM   28  N   UNL     1      43.179 -18.749   3.783  1.00  0.00    -0.357 N 
HETATM   29  H   UNL     1      42.706 -19.117   2.955  1.00  0.00     0.162 HD
HETATM   30  O   UNL     1      43.599 -16.869   5.016  1.00  0.00    -0.267 OA
BRANCH  28  31
HETATM   31  C   UNL     1      44.058 -19.623   4.529  1.00  0.00     0.125 C 
BRANCH  31  32
HETATM   32  C   UNL     1      44.920 -20.519   3.647  1.00  0.00     0.046 C 
BRANCH  32  33
HETATM   33  C   UNL     1      44.625 -22.001   3.845  1.00  0.00     0.168 C 
BRANCH  33  34
HETATM   34  O   UNL     1      44.626 -22.630   2.562  1.00  0.00    -0.396 OA
HETATM   35  C   UNL     1      43.902 -21.871   1.603  1.00  0.00     0.201 C 
ENDBRANCH  33  34
ENDBRANCH  32  33
ENDBRANCH  31  32
ENDBRANCH  28  31
ENDBRANCH   7  27
TORSDOF 9
ENDMDL
MODEL 5
REMARK VINA RESULT:      -8.0      2.743      3.939
REMARK  9 active torsions:
REMARK  status: ('A' for Active; 'I' for Inactive)
REMARK    1  A    between atoms: C_2  and  C_3 
REMARK    2  A    between atoms: C_6  and  N_7 
REMARK    3  A    between atoms: N_7  and  S_8 
REMARK    4  A    between atoms: S_8  and  C_9 
REMARK    5  A    between atoms: C_15  and  C_16 
REMARK       I    between atoms: C_16  and  N_17 
REMARK    6  A    between atoms: N_17  and  C_18 
REMARK    7  A    between atoms: C_18  and  C_19 
REMARK    8  A    between atoms: C_19  and  C_20 
REMARK    9  A    between atoms: C_20  and  O_21 
ROOT
HETATM    1  C   UNL     1      41.449 -15.767   3.672  1.00  0.00     0.081 A 
HETATM    2  C   UNL     1      41.794 -14.598   2.987  1.00  0.00     0.043 A 
HETATM    3  C   UNL     1      41.339 -14.420   1.679  1.00  0.00     0.043 A 
HETATM    4  C   UNL     1      40.526 -15.385   1.056  1.00  0.00     0.046 A 
HETATM    5  N   UNL     1      40.119 -15.199  -0.269  1.00  0.00    -0.364 N 
HETATM    6  C   UNL     1      40.448 -14.056  -0.953  1.00  0.00     0.109 A 
HETATM    7  C   UNL     1      41.206 -13.053  -0.476  1.00  0.00     0.098 A 
HETATM    8  C   UNL     1      41.715 -13.197   0.918  1.00  0.00     0.201 A 
HETATM    9  O   UNL     1      42.429 -12.343   1.437  1.00  0.00    -0.286 OA
HETATM   10  C   UNL     1      40.189 -16.546   1.760  1.00  0.00     0.032 A 
HETATM   11  C   UNL     1      40.640 -16.736   3.070  1.00  0.00     0.027 A 
HETATM   12  H   UNL     1      39.435 -15.827  -0.676  1.00  0.00     0.165 HD
ENDROOT
BRANCH   1  13
HETATM   13  S   UNL     1      42.012 -15.987   5.346  1.00  0.00     0.263 S 
HETATM   14  O   UNL     1      41.240 -17.055   5.940  1.00  0.00    -0.200 OA
HETATM   15  O   UNL     1      42.064 -14.672   5.951  1.00  0.00    -0.200 OA
BRANCH  13  16
HETATM   16  N   UNL     1      43.611 -16.480   5.138  1.00  0.00    -0.281 N 
HETATM   17  H   UNL     1      44.234 -15.707   4.907  1.00  0.00     0.179 HD
BRANCH  16  18
HETATM   18  C   UNL     1      43.877 -17.745   4.546  1.00  0.00     0.042 A 
HETATM   19  C   UNL     1      44.158 -18.843   5.355  1.00  0.00     0.030 A 
HETATM   20  C   UNL     1      44.435 -20.084   4.773  1.00  0.00     0.010 A 
HETATM   21  C   UNL     1      44.420 -20.243   3.378  1.00  0.00    -0.055 A 
HETATM   22  C   UNL     1      44.152 -19.120   2.580  1.00  0.00     0.010 A 
HETATM   23  C   UNL     1      43.887 -17.878   3.161  1.00  0.00     0.030 A 
BRANCH  21  24
HETATM   24  C   UNL     1      44.700 -21.581   2.716  1.00  0.00     0.010 C 
HETATM   25  C   UNL     1      43.783 -21.847   1.518  1.00  0.00     0.015 C 
HETATM   26  C   UNL     1      44.613 -22.721   3.731  1.00  0.00     0.015 C 
ENDBRANCH  21  24
ENDBRANCH  16  18
ENDBRANCH  13  16
ENDBRANCH   1  13
BRANCH   7  27
HETATM   27  C   UNL     1      41.488 -11.889  -1.365  1.00  0.00     0.257 C 
HETATM   28  N   UNL     1      42.755 -11.373  -1.273  1.00  0.00    -0.357 N 
HETATM   29  H   UNL     1      43.418 -11.832  -0.646  1.00  0.00     0.162 HD
HETATM   30  O   UNL     1      40.634 -11.440  -2.125  1.00  0.00    -0.267 OA
BRANCH  28  31
HETATM   31  C   UNL     1      43.222 -10.286  -2.107  1.00  0.00     0.125 C 
BRANCH  31  32
HETATM   32  C   UNL     1      43.967  -9.203  -1.336  1.00  0.00     0.046 C 
BRANCH  32  33
HETATM   33  C   UNL     1      43.195  -8.708  -0.118  1.00  0.00     0.168 C 
BRANCH  33  34
HETATM   34  O   UNL     1      41.831  -8.524  -0.502  1.00  0.00    -0.396 OA
HETATM   35  C   UNL     1      40.943  -8.751   0.585  1.00  0.00     0.201 C 
ENDBRANCH  33  34
ENDBRANCH  32  33
ENDBRANCH  31  32
ENDBRANCH  28  31
ENDBRANCH   7  27
TORSDOF 9
ENDMDL
MODEL 6
REMARK VINA RESULT:      -7.8      4.393      8.554
REMARK  9 active torsions:
REMARK  status: ('A' for Active; 'I' for Inactive)
REMARK    1  A    between atoms: C_2  and  C_3 
REMARK    2  A    between atoms: C_6  and  N_7 
REMARK    3  A    between atoms: N_7  and  S_8 
REMARK    4  A    between atoms: S_8  and  C_9 
REMARK    5  A    between atoms: C_15  and  C_16 
REMARK       I    between atoms: C_16  and  N_17 
REMARK    6  A    between atoms: N_17  and  C_18 
REMARK    7  A    between atoms: C_18  and  C_19 
REMARK    8  A    between atoms: C_19  and  C_20 
REMARK    9  A    between atoms: C_20  and  O_21 
ROOT
HETATM    1  C   UNL     1      41.385 -13.734   3.888  1.00  0.00     0.081 A 
HETATM    2  C   UNL     1      42.264 -13.665   4.972  1.00  0.00     0.043 A 
HETATM    3  C   UNL     1      42.073 -12.672   5.937  1.00  0.00     0.043 A 
HETATM    4  C   UNL     1      41.003 -11.764   5.840  1.00  0.00     0.046 A 
HETATM    5  N   UNL     1      40.861 -10.756   6.799  1.00  0.00    -0.364 N 
HETATM    6  C   UNL     1      41.714 -10.677   7.870  1.00  0.00     0.109 A 
HETATM    7  C   UNL     1      42.767 -11.484   8.089  1.00  0.00     0.098 A 
HETATM    8  C   UNL     1      43.011 -12.560   7.088  1.00  0.00     0.201 A 
HETATM    9  O   UNL     1      43.957 -13.337   7.190  1.00  0.00    -0.286 OA
HETATM   10  C   UNL     1      40.133 -11.853   4.749  1.00  0.00     0.032 A 
HETATM   11  C   UNL     1      40.315 -12.841   3.777  1.00  0.00     0.027 A 
HETATM   12  H   UNL     1      40.025 -10.182   6.802  1.00  0.00     0.165 HD
ENDROOT
BRANCH   1  13
HETATM   13  S   UNL     1      41.616 -15.010   2.668  1.00  0.00     0.263 S 
HETATM   14  O   UNL     1      41.485 -14.406   1.360  1.00  0.00    -0.200 OA
HETATM   15  O   UNL     1      40.786 -16.128   3.065  1.00  0.00    -0.200 OA
BRANCH  13  16
HETATM   16  N   UNL     1      43.213 -15.485   2.926  1.00  0.00    -0.281 N 
HETATM   17  H   UNL     1      43.886 -14.804   2.578  1.00  0.00     0.179 HD
BRANCH  16  18
HETATM   18  C   UNL     1      43.553 -16.862   2.831  1.00  0.00     0.042 A 
HETATM   19  C   UNL     1      43.627 -17.473   1.582  1.00  0.00     0.030 A 
HETATM   20  C   UNL     1      43.946 -18.831   1.489  1.00  0.00     0.010 A 
HETATM   21  C   UNL     1      44.208 -19.588   2.642  1.00  0.00    -0.055 A 
HETATM   22  C   UNL     1      44.110 -18.959   3.892  1.00  0.00     0.010 A 
HETATM   23  C   UNL     1      43.780 -17.605   3.986  1.00  0.00     0.030 A 
BRANCH  21  24
HETATM   24  C   UNL     1      44.573 -21.061   2.574  1.00  0.00     0.010 C 
HETATM   25  C   UNL     1      43.630 -21.860   1.669  1.00  0.00     0.015 C 
HETATM   26  C   UNL     1      44.632 -21.673   3.975  1.00  0.00     0.015 C 
ENDBRANCH  21  24
ENDBRANCH  16  18
ENDBRANCH  13  16
ENDBRANCH   1  13
BRANCH   7  27
HETATM   27  C   UNL     1      43.609 -11.243   9.297  1.00  0.00     0.257 C 
HETATM   28  N   UNL     1      43.079 -11.691  10.480  1.00  0.00    -0.357 N 
HETATM   29  H   UNL     1      42.184 -12.181  10.453  1.00  0.00     0.162 HD
HETATM   30  O   UNL     1      44.700 -10.685   9.218  1.00  0.00    -0.267 OA
BRANCH  28  31
HETATM   31  C   UNL     1      43.786 -11.599  11.740  1.00  0.00     0.125 C 
BRANCH  31  32
HETATM   32  C   UNL     1      43.384 -10.391  12.578  1.00  0.00     0.046 C 
BRANCH  32  33
HETATM   33  C   UNL     1      42.191 -10.672  13.483  1.00  0.00     0.168 C 
BRANCH  33  34
HETATM   34  O   UNL     1      41.001 -10.562  12.699  1.00  0.00    -0.396 OA
HETATM   35  C   UNL     1      40.229 -11.753  12.744  1.00  0.00     0.201 C 
ENDBRANCH  33  34
ENDBRANCH  32  33
ENDBRANCH  31  32
ENDBRANCH  28  31
ENDBRANCH   7  27
TORSDOF 9
ENDMDL
MODEL 7
REMARK VINA RESULT:      -7.7      3.621      7.430
REMARK  9 active torsions:
REMARK  status: ('A' for Active; 'I' for Inactive)
REMARK    1  A    between atoms: C_2  and  C_3 
REMARK    2  A    between atoms: C_6  and  N_7 
REMARK    3  A    between atoms: N_7  and  S_8 
REMARK    4  A    between atoms: S_8  and  C_9 
REMARK    5  A    between atoms: C_15  and  C_16 
REMARK       I    between atoms: C_16  and  N_17 
REMARK    6  A    between atoms: N_17  and  C_18 
REMARK    7  A    between atoms: C_18  and  C_19 
REMARK    8  A    between atoms: C_19  and  C_20 
REMARK    9  A    between atoms: C_20  and  O_21 
ROOT
HETATM    1  C   UNL     1      40.300 -14.008   2.534  1.00  0.00     0.081 A 
HETATM    2  C   UNL     1      41.052 -13.624   3.647  1.00  0.00     0.043 A 
HETATM    3  C   UNL     1      40.655 -12.501   4.378  1.00  0.00     0.043 A 
HETATM    4  C   UNL     1      39.504 -11.774   4.022  1.00  0.00     0.046 A 
HETATM    5  N   UNL     1      39.155 -10.631   4.748  1.00  0.00    -0.364 N 
HETATM    6  C   UNL     1      39.882 -10.242   5.844  1.00  0.00     0.109 A 
HETATM    7  C   UNL     1      40.992 -10.850   6.299  1.00  0.00     0.098 A 
HETATM    8  C   UNL     1      41.454 -12.054   5.552  1.00  0.00     0.201 A 
HETATM    9  O   UNL     1      42.467 -12.669   5.879  1.00  0.00    -0.286 OA
HETATM   10  C   UNL     1      38.764 -12.177   2.906  1.00  0.00     0.032 A 
HETATM   11  C   UNL     1      39.152 -13.298   2.166  1.00  0.00     0.027 A 
HETATM   12  H   UNL     1      38.263 -10.180   4.573  1.00  0.00     0.165 HD
ENDROOT
BRANCH   1  13
HETATM   13  S   UNL     1      40.793 -15.449   1.613  1.00  0.00     0.263 S 
HETATM   14  O   UNL     1      40.601 -15.168   0.207  1.00  0.00    -0.200 OA
HETATM   15  O   UNL     1      40.162 -16.590   2.243  1.00  0.00    -0.200 OA
BRANCH  13  16
HETATM   16  N   UNL     1      42.440 -15.564   1.958  1.00  0.00    -0.281 N 
HETATM   17  H   UNL     1      42.997 -14.886   1.440  1.00  0.00     0.179 HD
BRANCH  16  18
HETATM   18  C   UNL     1      43.011 -16.841   2.206  1.00  0.00     0.042 A 
HETATM   19  C   UNL     1      43.295 -17.232   3.512  1.00  0.00     0.030 A 
HETATM   20  C   UNL     1      43.870 -18.483   3.755  1.00  0.00     0.010 A 
HETATM   21  C   UNL     1      44.155 -19.361   2.697  1.00  0.00    -0.055 A 
HETATM   22  C   UNL     1      43.878 -18.942   1.387  1.00  0.00     0.010 A 
HETATM   23  C   UNL     1      43.314 -17.688   1.143  1.00  0.00     0.030 A 
BRANCH  21  24
HETATM   24  C   UNL     1      44.765 -20.732   2.929  1.00  0.00     0.010 C 
HETATM   25  C   UNL     1      44.055 -21.834   2.136  1.00  0.00     0.015 C 
HETATM   26  C   UNL     1      44.798 -21.070   4.420  1.00  0.00     0.015 C 
ENDBRANCH  21  24
ENDBRANCH  16  18
ENDBRANCH  13  16
ENDBRANCH   1  13
BRANCH   7  27
HETATM   27  C   UNL     1      41.676 -10.280   7.495  1.00  0.00     0.257 C 
HETATM   28  N   UNL     1      41.940 -11.173   8.501  1.00  0.00    -0.357 N 
HETATM   29  H   UNL     1      41.692 -12.153   8.354  1.00  0.00     0.162 HD
HETATM   30  O   UNL     1      41.979  -9.091   7.556  1.00  0.00    -0.267 OA
BRANCH  28  31
HETATM   31  C   UNL     1      42.654 -10.809   9.706  1.00  0.00     0.125 C 
BRANCH  31  32
HETATM   32  C   UNL     1      41.750 -10.289  10.818  1.00  0.00     0.046 C 
BRANCH  32  33
HETATM   33  C   UNL     1      40.475 -11.109  10.973  1.00  0.00     0.168 C 
BRANCH  33  34
HETATM   34  O   UNL     1      39.462 -10.516  10.156  1.00  0.00    -0.396 OA
HETATM   35  C   UNL     1      39.355  -9.118  10.383  1.00  0.00     0.201 C 
ENDBRANCH  33  34
ENDBRANCH  32  33
ENDBRANCH  31  32
ENDBRANCH  28  31
ENDBRANCH   7  27
TORSDOF 9
ENDMDL
MODEL 8
REMARK VINA RESULT:      -7.6      2.152      3.041
REMARK  9 active torsions:
REMARK  status: ('A' for Active; 'I' for Inactive)
REMARK    1  A    between atoms: C_2  and  C_3 
REMARK    2  A    between atoms: C_6  and  N_7 
REMARK    3  A    between atoms: N_7  and  S_8 
REMARK    4  A    between atoms: S_8  and  C_9 
REMARK    5  A    between atoms: C_15  and  C_16 
REMARK       I    between atoms: C_16  and  N_17 
REMARK    6  A    between atoms: N_17  and  C_18 
REMARK    7  A    between atoms: C_18  and  C_19 
REMARK    8  A    between atoms: C_19  and  C_20 
REMARK    9  A    between atoms: C_20  and  O_21 
ROOT
HETATM    1  C   UNL     1      41.431 -15.811   3.745  1.00  0.00     0.081 A 
HETATM    2  C   UNL     1      41.863 -14.686   3.037  1.00  0.00     0.043 A 
HETATM    3  C   UNL     1      41.433 -14.510   1.719  1.00  0.00     0.043 A 
HETATM    4  C   UNL     1      40.560 -15.431   1.112  1.00  0.00     0.046 A 
HETATM    5  N   UNL     1      40.179 -15.250  -0.222  1.00  0.00    -0.364 N 
HETATM    6  C   UNL     1      40.593 -14.150  -0.929  1.00  0.00     0.109 A 
HETATM    7  C   UNL     1      41.416 -13.191  -0.469  1.00  0.00     0.098 A 
HETATM    8  C   UNL     1      41.900 -13.335   0.933  1.00  0.00     0.201 A 
HETATM    9  O   UNL     1      42.668 -12.520   1.439  1.00  0.00    -0.286 OA
HETATM   10  C   UNL     1      40.137 -16.548   1.840  1.00  0.00     0.032 A 
HETATM   11  C   UNL     1      40.562 -16.736   3.158  1.00  0.00     0.027 A 
HETATM   12  H   UNL     1      39.457 -15.839  -0.620  1.00  0.00     0.165 HD
ENDROOT
BRANCH   1  13
HETATM   13  S   UNL     1      41.962 -16.027   5.431  1.00  0.00     0.263 S 
HETATM   14  O   UNL     1      41.187 -17.103   6.008  1.00  0.00    -0.200 OA
HETATM   15  O   UNL     1      41.990 -14.713   6.037  1.00  0.00    -0.200 OA
BRANCH  13  16
HETATM   16  N   UNL     1      43.569 -16.507   5.254  1.00  0.00    -0.281 N 
HETATM   17  H   UNL     1      44.190 -15.727   5.039  1.00  0.00     0.179 HD
BRANCH  16  18
HETATM   18  C   UNL     1      43.858 -17.767   4.664  1.00  0.00     0.042 A 
HETATM   19  C   UNL     1      44.163 -18.858   5.474  1.00  0.00     0.030 A 
HETATM   20  C   UNL     1      44.462 -20.095   4.894  1.00  0.00     0.010 A 
HETATM   21  C   UNL     1      44.445 -20.256   3.499  1.00  0.00    -0.055 A 
HETATM   22  C   UNL     1      44.153 -19.141   2.699  1.00  0.00     0.010 A 
HETATM   23  C   UNL     1      43.866 -17.903   3.279  1.00  0.00     0.030 A 
BRANCH  21  24
HETATM   24  C   UNL     1      44.749 -21.590   2.838  1.00  0.00     0.010 C 
HETATM   25  C   UNL     1      43.895 -21.835   1.590  1.00  0.00     0.015 C 
HETATM   26  C   UNL     1      44.599 -22.739   3.835  1.00  0.00     0.015 C 
ENDBRANCH  21  24
ENDBRANCH  16  18
ENDBRANCH  13  16
ENDBRANCH   1  13
BRANCH   7  27
HETATM   27  C   UNL     1      41.786 -12.072  -1.383  1.00  0.00     0.257 C 
HETATM   28  N   UNL     1      40.762 -11.222  -1.715  1.00  0.00    -0.357 N 
HETATM   29  H   UNL     1      39.845 -11.384  -1.294  1.00  0.00     0.162 HD
HETATM   30  O   UNL     1      42.934 -11.933  -1.797  1.00  0.00    -0.267 OA
BRANCH  28  31
HETATM   31  C   UNL     1      40.953 -10.047  -2.538  1.00  0.00     0.125 C 
BRANCH  31  32
HETATM   32  C   UNL     1      39.961  -9.942  -3.691  1.00  0.00     0.046 C 
BRANCH  32  33
HETATM   33  C   UNL     1      38.697 -10.760  -3.457  1.00  0.00     0.168 C 
BRANCH  33  34
HETATM   34  O   UNL     1      38.990 -12.127  -3.754  1.00  0.00    -0.396 OA
HETATM   35  C   UNL     1      37.944 -12.993  -3.337  1.00  0.00     0.201 C 
ENDBRANCH  33  34
ENDBRANCH  32  33
ENDBRANCH  31  32
ENDBRANCH  28  31
ENDBRANCH   7  27
TORSDOF 9
ENDMDL
MODEL 9
REMARK VINA RESULT:      -7.5      2.331      3.192
REMARK  9 active torsions:
REMARK  status: ('A' for Active; 'I' for Inactive)
REMARK    1  A    between atoms: C_2  and  C_3 
REMARK    2  A    between atoms: C_6  and  N_7 
REMARK    3  A    between atoms: N_7  and  S_8 
REMARK    4  A    between atoms: S_8  and  C_9 
REMARK    5  A    between atoms: C_15  and  C_16 
REMARK       I    between atoms: C_16  and  N_17 
REMARK    6  A    between atoms: N_17  and  C_18 
REMARK    7  A    between atoms: C_18  and  C_19 
REMARK    8  A    between atoms: C_19  and  C_20 
REMARK    9  A    between atoms: C_20  and  O_21 
ROOT
HETATM    1  C   UNL     1      41.214 -15.630   3.714  1.00  0.00     0.081 A 
HETATM    2  C   UNL     1      41.313 -14.325   3.224  1.00  0.00     0.043 A 
HETATM    3  C   UNL     1      40.734 -14.019   1.989  1.00  0.00     0.043 A 
HETATM    4  C   UNL     1      40.040 -14.997   1.252  1.00  0.00     0.046 A 
HETATM    5  N   UNL     1      39.506 -14.672   0.001  1.00  0.00    -0.364 N 
HETATM    6  C   UNL     1      39.593 -13.395  -0.492  1.00  0.00     0.109 A 
HETATM    7  C   UNL     1      40.216 -12.367   0.111  1.00  0.00     0.098 A 
HETATM    8  C   UNL     1      40.848 -12.644   1.432  1.00  0.00     0.201 A 
HETATM    9  O   UNL     1      41.455 -11.774   2.053  1.00  0.00    -0.286 OA
HETATM   10  C   UNL     1      39.950 -16.296   1.762  1.00  0.00     0.032 A 
HETATM   11  C   UNL     1      40.526 -16.614   2.996  1.00  0.00     0.027 A 
HETATM   12  H   UNL     1      38.902 -15.334  -0.473  1.00  0.00     0.165 HD
ENDROOT
BRANCH   1  13
HETATM   13  S   UNL     1      41.934 -16.016   5.295  1.00  0.00     0.263 S 
HETATM   14  O   UNL     1      41.261 -17.184   5.819  1.00  0.00    -0.200 OA
HETATM   15  O   UNL     1      41.988 -14.781   6.049  1.00  0.00    -0.200 OA
BRANCH  13  16
HETATM   16  N   UNL     1      43.526 -16.400   4.894  1.00  0.00    -0.281 N 
HETATM   17  H   UNL     1      44.045 -15.599   4.535  1.00  0.00     0.179 HD
BRANCH  16  18
HETATM   18  C   UNL     1      43.815 -17.678   4.343  1.00  0.00     0.042 A 
HETATM   19  C   UNL     1      44.141 -18.738   5.185  1.00  0.00     0.030 A 
HETATM   20  C   UNL     1      44.440 -19.992   4.643  1.00  0.00     0.010 A 
HETATM   21  C   UNL     1      44.404 -20.202   3.256  1.00  0.00    -0.055 A 
HETATM   22  C   UNL     1      44.091 -19.117   2.423  1.00  0.00     0.010 A 
HETATM   23  C   UNL     1      43.803 -17.862   2.963  1.00  0.00     0.030 A 
BRANCH  21  24
HETATM   24  C   UNL     1      44.707 -21.555   2.636  1.00  0.00     0.010 C 
HETATM   25  C   UNL     1      43.822 -21.859   1.424  1.00  0.00     0.015 C 
HETATM   26  C   UNL     1      44.603 -22.668   3.680  1.00  0.00     0.015 C 
ENDBRANCH  21  24
ENDBRANCH  16  18
ENDBRANCH  13  16
ENDBRANCH   1  13
BRANCH   7  27
HETATM   27  C   UNL     1      40.236 -11.045  -0.579  1.00  0.00     0.257 C 
HETATM   28  N   UNL     1      41.454 -10.413  -0.601  1.00  0.00    -0.357 N 
HETATM   29  H   UNL     1      42.255 -10.895  -0.188  1.00  0.00     0.162 HD
HETATM   30  O   UNL     1      39.225 -10.571  -1.091  1.00  0.00    -0.267 OA
BRANCH  28  31
HETATM   31  C   UNL     1      41.672  -9.155  -1.282  1.00  0.00     0.125 C 
BRANCH  31  32
HETATM   32  C   UNL     1      42.767  -9.216  -2.341  1.00  0.00     0.046 C 
BRANCH  32  33
HETATM   33  C   UNL     1      42.431 -10.170  -3.481  1.00  0.00     0.168 C 
BRANCH  33  34
HETATM   34  O   UNL     1      42.611 -11.508  -3.010  1.00  0.00    -0.396 OA
HETATM   35  C   UNL     1      41.761 -12.423  -3.686  1.00  0.00     0.201 C 
ENDBRANCH  33  34
ENDBRANCH  32  33
ENDBRANCH  31  32
ENDBRANCH  28  31
ENDBRANCH   7  27
TORSDOF 9
ENDMDL
MODEL 10
REMARK VINA RESULT:      -7.5      3.486      4.672
REMARK  9 active torsions:
REMARK  status: ('A' for Active; 'I' for Inactive)
REMARK    1  A    between atoms: C_2  and  C_3 
REMARK    2  A    between atoms: C_6  and  N_7 
REMARK    3  A    between atoms: N_7  and  S_8 
REMARK    4  A    between atoms: S_8  and  C_9 
REMARK    5  A    between atoms: C_15  and  C_16 
REMARK       I    between atoms: C_16  and  N_17 
REMARK    6  A    between atoms: N_17  and  C_18 
REMARK    7  A    between atoms: C_18  and  C_19 
REMARK    8  A    between atoms: C_19  and  C_20 
REMARK    9  A    between atoms: C_20  and  O_21 
ROOT
HETATM    1  C   UNL     1      41.619 -15.122   1.756  1.00  0.00     0.081 A 
HETATM    2  C   UNL     1      41.949 -13.894   1.175  1.00  0.00     0.043 A 
HETATM    3  C   UNL     1      41.841 -13.749  -0.210  1.00  0.00     0.043 A 
HETATM    4  C   UNL     1      41.386 -14.809  -1.016  1.00  0.00     0.046 A 
HETATM    5  N   UNL     1      41.327 -14.647  -2.404  1.00  0.00    -0.364 N 
HETATM    6  C   UNL     1      41.645 -13.448  -2.989  1.00  0.00     0.109 A 
HETATM    7  C   UNL     1      42.081 -12.355  -2.338  1.00  0.00     0.098 A 
HETATM    8  C   UNL     1      42.212 -12.460  -0.857  1.00  0.00     0.201 A 
HETATM    9  O   UNL     1      42.617 -11.522  -0.174  1.00  0.00    -0.286 OA
HETATM   10  C   UNL     1      41.058 -16.028  -0.415  1.00  0.00     0.032 A 
HETATM   11  C   UNL     1      41.164 -16.185   0.970  1.00  0.00     0.027 A 
HETATM   12  H   UNL     1      40.885 -15.361  -2.973  1.00  0.00     0.165 HD
ENDROOT
BRANCH   1  13
HETATM   13  S   UNL     1      41.738 -15.302   3.523  1.00  0.00     0.263 S 
HETATM   14  O   UNL     1      40.827 -16.351   3.927  1.00  0.00    -0.200 OA
HETATM   15  O   UNL     1      41.650 -13.973   4.091  1.00  0.00    -0.200 OA
BRANCH  13  16
HETATM   16  N   UNL     1      43.331 -15.810   3.738  1.00  0.00    -0.281 N 
HETATM   17  H   UNL     1      44.009 -15.092   3.483  1.00  0.00     0.179 HD
BRANCH  16  18
HETATM   18  C   UNL     1      43.670 -17.165   3.477  1.00  0.00     0.042 A 
HETATM   19  C   UNL     1      43.923 -17.578   2.172  1.00  0.00     0.030 A 
HETATM   20  C   UNL     1      44.242 -18.915   1.914  1.00  0.00     0.010 A 
HETATM   21  C   UNL     1      44.325 -19.849   2.959  1.00  0.00    -0.055 A 
HETATM   22  C   UNL     1      44.048 -19.417   4.265  1.00  0.00     0.010 A 
HETATM   23  C   UNL     1      43.719 -18.084   4.522  1.00  0.00     0.030 A 
BRANCH  21  24
HETATM   24  C   UNL     1      44.684 -21.304   2.714  1.00  0.00     0.010 C 
HETATM   25  C   UNL     1      43.826 -21.946   1.620  1.00  0.00     0.015 C 
HETATM   26  C   UNL     1      44.605 -22.111   4.011  1.00  0.00     0.015 C 
ENDBRANCH  21  24
ENDBRANCH  16  18
ENDBRANCH  13  16
ENDBRANCH   1  13
BRANCH   7  27
HETATM   27  C   UNL     1      42.406 -11.136  -3.133  1.00  0.00     0.257 C 
HETATM   28  N   UNL     1      42.157  -9.942  -2.505  1.00  0.00    -0.357 N 
HETATM   29  H   UNL     1      41.810  -9.966  -1.544  1.00  0.00     0.162 HD
HETATM   30  O   UNL     1      42.870 -11.214  -4.268  1.00  0.00    -0.267 OA
BRANCH  28  31
HETATM   31  C   UNL     1      42.472  -8.662  -3.101  1.00  0.00     0.125 C 
BRANCH  31  32
HETATM   32  C   UNL     1      43.109  -7.676  -2.128  1.00  0.00     0.046 C 
BRANCH  32  33
HETATM   33  C   UNL     1      44.154  -8.326  -1.230  1.00  0.00     0.168 C 
BRANCH  33  34
HETATM   34  O   UNL     1      43.588  -8.479   0.073  1.00  0.00    -0.396 OA
HETATM   35  C   UNL     1      42.670  -7.437   0.374  1.00  0.00     0.201 C 
ENDBRANCH  33  34
ENDBRANCH  32  33
ENDBRANCH  31  32
ENDBRANCH  28  31
ENDBRANCH   7  27
TORSDOF 9
ENDMDL
