MODEL 1
REMARK VINA RESULT:      -9.8      0.000      0.000
REMARK  6 active torsions:
REMARK  status: ('A' for Active; 'I' for Inactive)
REMARK    1  A    between atoms: C_2  and  O_3 
REMARK    2  A    between atoms: C_2  and  C_4 
REMARK    3  A    between atoms: C_6  and  N_7 
REMARK       I    between atoms: N_7  and  C_8 
REMARK    4  A    between atoms: C_8  and  C_9 
REMARK    5  A    between atoms: C_12  and  C_13 
REMARK    6  A    between atoms: C_18  and  C_19 
ROOT
HETATM    1  C   UNL     1      42.824 -14.868   3.936  1.00  0.00     0.096 C 
HETATM    2  C   UNL     1      43.203 -16.171   4.205  1.00  0.00     0.138 C 
HETATM    3  N   UNL     1      43.403 -16.232   5.566  1.00  0.00    -0.240 N 
HETATM    4  C   UNL     1      43.868 -17.411   6.274  1.00  0.00     0.221 C 
HETATM    5  C   UNL     1      43.691 -18.666   5.401  1.00  0.00     0.068 C 
HETATM    6  C   UNL     1      44.165 -18.397   3.969  1.00  0.00     0.143 C 
HETATM    7  N   UNL     1      43.401 -17.264   3.415  1.00  0.00    -0.363 N 
HETATM    8  N   UNL     1      43.341 -15.034   6.165  1.00  0.00    -0.181 NA
HETATM    9  C   UNL     1      42.958 -14.213   5.184  1.00  0.00     0.160 C 
HETATM   10  H   UNL     1      43.668 -17.096   2.441  1.00  0.00     0.162 HD
ENDROOT
BRANCH   1  11
HETATM   11  C   UNL     1      42.430 -14.256   2.676  1.00  0.00     0.261 C 
HETATM   12  N   UNL     1      41.376 -14.901   2.061  1.00  0.00    -0.323 N 
HETATM   13  H   UNL     1      40.935 -15.631   2.610  1.00  0.00     0.169 HD
HETATM   14  O   UNL     1      42.999 -13.250   2.269  1.00  0.00    -0.267 OA
BRANCH  12  15
HETATM   15  C   UNL     1      40.804 -14.626   0.804  1.00  0.00     0.035 A 
HETATM   16  C   UNL     1      41.161 -15.285  -0.375  1.00  0.00     0.039 A 
HETATM   17  C   UNL     1      40.538 -14.979  -1.600  1.00  0.00    -0.028 A 
HETATM   18  C   UNL     1      39.537 -13.999  -1.619  1.00  0.00     0.010 A 
HETATM   19  C   UNL     1      39.176 -13.333  -0.450  1.00  0.00     0.003 A 
HETATM   20  C   UNL     1      39.806 -13.646   0.755  1.00  0.00     0.029 A 
BRANCH  17  21
HETATM   21  C   UNL     1      40.937 -15.739  -2.847  1.00  0.00     0.147 C 
HETATM   22  C   UNL     1      39.757 -15.911  -3.796  1.00  0.00     0.044 C 
BRANCH  21  23
HETATM   23  O   UNL     1      41.986 -15.058  -3.535  1.00  0.00    -0.391 OA
HETATM   24  H   UNL     1      42.490 -14.567  -2.866  1.00  0.00     0.210 HD
ENDBRANCH  21  23
ENDBRANCH  17  21
ENDBRANCH  12  15
ENDBRANCH   1  11
BRANCH   4  25
HETATM   25  C   UNL     1      43.148 -17.601   7.591  1.00  0.00     0.409 C 
HETATM   26  F   UNL     1      41.815 -17.402   7.481  1.00  0.00    -0.169 F 
HETATM   27  F   UNL     1      43.311 -18.886   8.014  1.00  0.00    -0.169 F 
HETATM   28  F   UNL     1      43.615 -16.819   8.584  1.00  0.00    -0.169 F 
ENDBRANCH   4  25
BRANCH   6  29
HETATM   29  C   UNL     1      44.038 -19.640   3.148  1.00  0.00     0.075 A 
HETATM   30  O   UNL     1      44.735 -20.729   3.585  1.00  0.00    -0.325 OA
HETATM   31  C   UNL     1      44.478 -21.740   2.715  1.00  0.00     0.142 A 
HETATM   32  C   UNL     1      43.623 -21.316   1.723  1.00  0.00     0.027 A 
HETATM   33  C   UNL     1      43.339 -19.958   2.002  1.00  0.00     0.037 A 
ENDBRANCH   6  29
TORSDOF 6
ENDMDL
MODEL 2
REMARK VINA RESULT:      -9.3      1.410      1.562
REMARK  6 active torsions:
REMARK  status: ('A' for Active; 'I' for Inactive)
REMARK    1  A    between atoms: C_2  and  O_3 
REMARK    2  A    between atoms: C_2  and  C_4 
REMARK    3  A    between atoms: C_6  and  N_7 
REMARK       I    between atoms: N_7  and  C_8 
REMARK    4  A    between atoms: C_8  and  C_9 
REMARK    5  A    between atoms: C_12  and  C_13 
REMARK    6  A    between atoms: C_18  and  C_19 
ROOT
HETATM    1  C   UNL     1      42.019 -16.122   3.244  1.00  0.00     0.096 C 
HETATM    2  C   UNL     1      42.743 -17.123   3.867  1.00  0.00     0.138 C 
HETATM    3  N   UNL     1      43.012 -16.661   5.135  1.00  0.00    -0.240 N 
HETATM    4  C   UNL     1      43.806 -17.376   6.118  1.00  0.00     0.221 C 
HETATM    5  C   UNL     1      43.932 -18.860   5.729  1.00  0.00     0.068 C 
HETATM    6  C   UNL     1      44.253 -18.999   4.237  1.00  0.00     0.143 C 
HETATM    7  N   UNL     1      43.190 -18.342   3.453  1.00  0.00    -0.363 N 
HETATM    8  N   UNL     1      42.659 -15.380   5.319  1.00  0.00    -0.181 NA
HETATM    9  C   UNL     1      42.028 -15.065   4.185  1.00  0.00     0.160 C 
HETATM   10  H   UNL     1      43.359 -18.464   2.451  1.00  0.00     0.162 HD
ENDROOT
BRANCH   1  11
HETATM   11  C   UNL     1      41.420 -16.096   1.918  1.00  0.00     0.261 C 
HETATM   12  N   UNL     1      41.097 -14.823   1.490  1.00  0.00    -0.323 N 
HETATM   13  H   UNL     1      41.423 -14.069   2.085  1.00  0.00     0.169 HD
HETATM   14  O   UNL     1      41.270 -17.133   1.284  1.00  0.00    -0.267 OA
BRANCH  12  15
HETATM   15  C   UNL     1      40.435 -14.449   0.305  1.00  0.00     0.035 A 
HETATM   16  C   UNL     1      41.054 -14.379  -0.946  1.00  0.00     0.039 A 
HETATM   17  C   UNL     1      40.332 -14.017  -2.099  1.00  0.00    -0.028 A 
HETATM   18  C   UNL     1      38.965 -13.736  -1.976  1.00  0.00     0.010 A 
HETATM   19  C   UNL     1      38.338 -13.801  -0.734  1.00  0.00     0.003 A 
HETATM   20  C   UNL     1      39.069 -14.156   0.401  1.00  0.00     0.029 A 
BRANCH  17  21
HETATM   21  C   UNL     1      41.039 -13.981  -3.437  1.00  0.00     0.147 C 
HETATM   22  C   UNL     1      41.715 -12.636  -3.673  1.00  0.00     0.044 C 
BRANCH  21  23
HETATM   23  O   UNL     1      42.024 -15.011  -3.512  1.00  0.00    -0.391 OA
HETATM   24  H   UNL     1      42.160 -15.337  -2.608  1.00  0.00     0.210 HD
ENDBRANCH  21  23
ENDBRANCH  17  21
ENDBRANCH  12  15
ENDBRANCH   1  11
BRANCH   4  25
HETATM   25  C   UNL     1      43.221 -17.264   7.509  1.00  0.00     0.409 C 
HETATM   26  F   UNL     1      41.870 -17.324   7.505  1.00  0.00    -0.169 F 
HETATM   27  F   UNL     1      43.651 -18.311   8.266  1.00  0.00    -0.169 F 
HETATM   28  F   UNL     1      43.596 -16.149   8.167  1.00  0.00    -0.169 F 
ENDBRANCH   4  25
BRANCH   6  29
HETATM   29  C   UNL     1      44.426 -20.442   3.885  1.00  0.00     0.075 A 
HETATM   30  O   UNL     1      44.697 -21.291   4.919  1.00  0.00    -0.325 OA
HETATM   31  C   UNL     1      44.806 -22.537   4.392  1.00  0.00     0.142 A 
HETATM   32  C   UNL     1      44.608 -22.503   3.031  1.00  0.00     0.027 A 
HETATM   33  C   UNL     1      44.362 -21.149   2.702  1.00  0.00     0.037 A 
ENDBRANCH   6  29
TORSDOF 6
ENDMDL
MODEL 3
REMARK VINA RESULT:      -8.9      3.952      8.155
REMARK  6 active torsions:
REMARK  status: ('A' for Active; 'I' for Inactive)
REMARK    1  A    between atoms: C_2  and  O_3 
REMARK    2  A    between atoms: C_2  and  C_4 
REMARK    3  A    between atoms: C_6  and  N_7 
REMARK       I    between atoms: N_7  and  C_8 
REMARK    4  A    between atoms: C_8  and  C_9 
REMARK    5  A    between atoms: C_12  and  C_13 
REMARK    6  A    between atoms: C_18  and  C_19 
ROOT
HETATM    1  C   UNL     1      42.079 -14.826   1.789  1.00  0.00     0.096 C 
HETATM    2  C   UNL     1      41.514 -14.384   0.607  1.00  0.00     0.138 C 
HETATM    3  N   UNL     1      41.855 -13.055   0.500  1.00  0.00    -0.240 N 
HETATM    4  C   UNL     1      41.418 -12.179  -0.572  1.00  0.00     0.221 C 
HETATM    5  C   UNL     1      40.908 -13.006  -1.766  1.00  0.00     0.068 C 
HETATM    6  C   UNL     1      39.997 -14.141  -1.285  1.00  0.00     0.143 C 
HETATM    7  N   UNL     1      40.747 -14.992  -0.342  1.00  0.00    -0.363 N 
HETATM    8  N   UNL     1      42.454 -12.571   1.598  1.00  0.00    -0.181 NA
HETATM    9  C   UNL     1      42.620 -13.652   2.365  1.00  0.00     0.160 C 
HETATM   10  H   UNL     1      40.173 -15.785  -0.043  1.00  0.00     0.162 HD
ENDROOT
BRANCH   1  11
HETATM   11  C   UNL     1      42.092 -16.160   2.372  1.00  0.00     0.261 C 
HETATM   12  N   UNL     1      43.322 -16.520   2.885  1.00  0.00    -0.323 N 
HETATM   13  H   UNL     1      44.018 -15.783   2.903  1.00  0.00     0.169 HD
HETATM   14  O   UNL     1      41.070 -16.835   2.399  1.00  0.00    -0.267 OA
BRANCH  12  15
HETATM   15  C   UNL     1      43.702 -17.759   3.438  1.00  0.00     0.035 A 
HETATM   16  C   UNL     1      43.876 -18.926   2.690  1.00  0.00     0.039 A 
HETATM   17  C   UNL     1      44.277 -20.130   3.300  1.00  0.00    -0.028 A 
HETATM   18  C   UNL     1      44.511 -20.140   4.681  1.00  0.00     0.010 A 
HETATM   19  C   UNL     1      44.337 -18.982   5.436  1.00  0.00     0.003 A 
HETATM   20  C   UNL     1      43.935 -17.798   4.818  1.00  0.00     0.029 A 
BRANCH  17  21
HETATM   21  C   UNL     1      44.480 -21.363   2.445  1.00  0.00     0.147 C 
HETATM   22  C   UNL     1      44.643 -22.614   3.302  1.00  0.00     0.044 C 
BRANCH  21  23
HETATM   23  O   UNL     1      43.375 -21.549   1.562  1.00  0.00    -0.391 OA
HETATM   24  H   UNL     1      43.256 -22.507   1.457  1.00  0.00     0.210 HD
ENDBRANCH  21  23
ENDBRANCH  17  21
ENDBRANCH  12  15
ENDBRANCH   1  11
BRANCH   4  25
HETATM   25  C   UNL     1      42.521 -11.251  -1.031  1.00  0.00     0.409 C 
HETATM   26  F   UNL     1      43.580 -11.922  -1.537  1.00  0.00    -0.169 F 
HETATM   27  F   UNL     1      42.054 -10.455  -2.034  1.00  0.00    -0.169 F 
HETATM   28  F   UNL     1      42.965 -10.417  -0.069  1.00  0.00    -0.169 F 
ENDBRANCH   4  25
BRANCH   6  29
HETATM   29  C   UNL     1      39.466 -14.901  -2.457  1.00  0.00     0.075 A 
HETATM   30  O   UNL     1      38.165 -14.666  -2.794  1.00  0.00    -0.325 OA
HETATM   31  C   UNL     1      37.889 -15.439  -3.876  1.00  0.00     0.142 A 
HETATM   32  C   UNL     1      38.997 -16.167  -4.243  1.00  0.00     0.027 A 
HETATM   33  C   UNL     1      40.018 -15.821  -3.326  1.00  0.00     0.037 A 
ENDBRANCH   6  29
TORSDOF 6
ENDMDL
MODEL 4
REMARK VINA RESULT:      -8.6      1.719      2.161
REMARK  6 active torsions:
REMARK  status: ('A' for Active; 'I' for Inactive)
REMARK    1  A    between atoms: C_2  and  O_3 
REMARK    2  A    between atoms: C_2  and  C_4 
REMARK    3  A    between atoms: C_6  and  N_7 
REMARK       I    between atoms: N_7  and  C_8 
REMARK    4  A    between atoms: C_8  and  C_9 
REMARK    5  A    between atoms: C_12  and  C_13 
REMARK    6  A    between atoms: C_18  and  C_19 
ROOT
HETATM    1  C   UNL     1      42.280 -15.850   2.594  1.00  0.00     0.096 C 
HETATM    2  C   UNL     1      42.854 -16.896   3.295  1.00  0.00     0.138 C 
HETATM    3  N   UNL     1      42.959 -16.464   4.598  1.00  0.00    -0.240 N 
HETATM    4  C   UNL     1      43.565 -17.233   5.670  1.00  0.00     0.221 C 
HETATM    5  C   UNL     1      43.670 -18.717   5.274  1.00  0.00     0.068 C 
HETATM    6  C   UNL     1      44.197 -18.854   3.841  1.00  0.00     0.143 C 
HETATM    7  N   UNL     1      43.295 -18.132   2.925  1.00  0.00    -0.363 N 
HETATM    8  N   UNL     1      42.649 -15.169   4.754  1.00  0.00    -0.181 NA
HETATM    9  C   UNL     1      42.206 -14.806   3.547  1.00  0.00     0.160 C 
HETATM   10  H   UNL     1      43.601 -18.250   1.956  1.00  0.00     0.162 HD
ENDROOT
BRANCH   1  11
HETATM   11  C   UNL     1      41.883 -15.775   1.197  1.00  0.00     0.261 C 
HETATM   12  N   UNL     1      41.555 -14.497   0.789  1.00  0.00    -0.323 N 
HETATM   13  H   UNL     1      41.746 -13.764   1.464  1.00  0.00     0.169 HD
HETATM   14  O   UNL     1      41.887 -16.779   0.495  1.00  0.00    -0.267 OA
BRANCH  12  15
HETATM   15  C   UNL     1      41.054 -14.087  -0.462  1.00  0.00     0.035 A 
HETATM   16  C   UNL     1      39.731 -14.272  -0.870  1.00  0.00     0.039 A 
HETATM   17  C   UNL     1      39.285 -13.820  -2.126  1.00  0.00    -0.028 A 
HETATM   18  C   UNL     1      40.194 -13.166  -2.968  1.00  0.00     0.010 A 
HETATM   19  C   UNL     1      41.517 -12.980  -2.572  1.00  0.00     0.003 A 
HETATM   20  C   UNL     1      41.944 -13.437  -1.325  1.00  0.00     0.029 A 
BRANCH  17  21
HETATM   21  C   UNL     1      37.835 -14.018  -2.515  1.00  0.00     0.147 C 
HETATM   22  C   UNL     1      37.450 -13.136  -3.696  1.00  0.00     0.044 C 
BRANCH  21  23
HETATM   23  O   UNL     1      37.590 -15.381  -2.858  1.00  0.00    -0.391 OA
HETATM   24  H   UNL     1      38.162 -15.922  -2.291  1.00  0.00     0.210 HD
ENDBRANCH  21  23
ENDBRANCH  17  21
ENDBRANCH  12  15
ENDBRANCH   1  11
BRANCH   4  25
HETATM   25  C   UNL     1      42.790 -17.107   6.964  1.00  0.00     0.409 C 
HETATM   26  F   UNL     1      42.893 -18.214   7.734  1.00  0.00    -0.169 F 
HETATM   27  F   UNL     1      43.300 -16.078   7.698  1.00  0.00    -0.169 F 
HETATM   28  F   UNL     1      41.483 -16.829   6.790  1.00  0.00    -0.169 F 
ENDBRANCH   4  25
BRANCH   6  29
HETATM   29  C   UNL     1      44.346 -20.300   3.489  1.00  0.00     0.075 A 
HETATM   30  O   UNL     1      44.612 -21.152   4.522  1.00  0.00    -0.325 OA
HETATM   31  C   UNL     1      44.698 -22.400   3.995  1.00  0.00     0.142 A 
HETATM   32  C   UNL     1      44.490 -22.364   2.636  1.00  0.00     0.027 A 
HETATM   33  C   UNL     1      44.262 -21.007   2.307  1.00  0.00     0.037 A 
ENDBRANCH   6  29
TORSDOF 6
ENDMDL
MODEL 5
REMARK VINA RESULT:      -8.4      2.468      4.372
REMARK  6 active torsions:
REMARK  status: ('A' for Active; 'I' for Inactive)
REMARK    1  A    between atoms: C_2  and  O_3 
REMARK    2  A    between atoms: C_2  and  C_4 
REMARK    3  A    between atoms: C_6  and  N_7 
REMARK       I    between atoms: N_7  and  C_8 
REMARK    4  A    between atoms: C_8  and  C_9 
REMARK    5  A    between atoms: C_12  and  C_13 
REMARK    6  A    between atoms: C_18  and  C_19 
ROOT
HETATM    1  C   UNL     1      42.095 -16.019   3.519  1.00  0.00     0.096 C 
HETATM    2  C   UNL     1      42.837 -15.935   4.683  1.00  0.00     0.138 C 
HETATM    3  N   UNL     1      42.849 -17.205   5.215  1.00  0.00    -0.240 N 
HETATM    4  C   UNL     1      43.472 -17.560   6.477  1.00  0.00     0.221 C 
HETATM    5  C   UNL     1      44.464 -16.466   6.911  1.00  0.00     0.068 C 
HETATM    6  C   UNL     1      43.847 -15.076   6.727  1.00  0.00     0.143 C 
HETATM    7  N   UNL     1      43.466 -14.902   5.313  1.00  0.00    -0.363 N 
HETATM    8  N   UNL     1      42.038 -18.057   4.571  1.00  0.00    -0.181 NA
HETATM    9  C   UNL     1      41.608 -17.348   3.524  1.00  0.00     0.160 C 
HETATM   10  H   UNL     1      43.094 -13.962   5.156  1.00  0.00     0.162 HD
ENDROOT
BRANCH   1  11
HETATM   11  C   UNL     1      41.808 -14.996   2.524  1.00  0.00     0.261 C 
HETATM   12  N   UNL     1      40.909 -15.408   1.560  1.00  0.00    -0.323 N 
HETATM   13  H   UNL     1      40.474 -16.309   1.730  1.00  0.00     0.169 HD
HETATM   14  O   UNL     1      42.325 -13.889   2.605  1.00  0.00    -0.267 OA
BRANCH  12  15
HETATM   15  C   UNL     1      40.480 -14.706   0.417  1.00  0.00     0.035 A 
HETATM   16  C   UNL     1      41.259 -14.532  -0.729  1.00  0.00     0.039 A 
HETATM   17  C   UNL     1      40.766 -13.837  -1.849  1.00  0.00    -0.028 A 
HETATM   18  C   UNL     1      39.463 -13.323  -1.802  1.00  0.00     0.010 A 
HETATM   19  C   UNL     1      38.679 -13.488  -0.663  1.00  0.00     0.003 A 
HETATM   20  C   UNL     1      39.184 -14.177   0.441  1.00  0.00     0.029 A 
BRANCH  17  21
HETATM   21  C   UNL     1      41.637 -13.697  -3.079  1.00  0.00     0.147 C 
HETATM   22  C   UNL     1      42.850 -12.817  -2.805  1.00  0.00     0.044 C 
BRANCH  21  23
HETATM   23  O   UNL     1      42.086 -14.977  -3.523  1.00  0.00    -0.391 OA
HETATM   24  H   UNL     1      42.901 -14.829  -4.030  1.00  0.00     0.210 HD
ENDBRANCH  21  23
ENDBRANCH  17  21
ENDBRANCH  12  15
ENDBRANCH   1  11
BRANCH   4  25
HETATM   25  C   UNL     1      44.186 -18.892   6.401  1.00  0.00     0.409 C 
HETATM   26  F   UNL     1      45.145 -19.016   7.346  1.00  0.00    -0.169 F 
HETATM   27  F   UNL     1      43.293 -19.897   6.624  1.00  0.00    -0.169 F 
HETATM   28  F   UNL     1      44.738 -19.144   5.198  1.00  0.00    -0.169 F 
ENDBRANCH   4  25
BRANCH   6  29
HETATM   29  C   UNL     1      44.800 -14.027   7.204  1.00  0.00     0.075 A 
HETATM   30  O   UNL     1      44.555 -13.500   8.439  1.00  0.00    -0.325 OA
HETATM   31  C   UNL     1      45.529 -12.586   8.681  1.00  0.00     0.142 A 
HETATM   32  C   UNL     1      46.401 -12.518   7.619  1.00  0.00     0.027 A 
HETATM   33  C   UNL     1      45.931 -13.449   6.663  1.00  0.00     0.037 A 
ENDBRANCH   6  29
TORSDOF 6
ENDMDL
MODEL 6
REMARK VINA RESULT:      -8.1      3.428      5.298
REMARK  6 active torsions:
REMARK  status: ('A' for Active; 'I' for Inactive)
REMARK    1  A    between atoms: C_2  and  O_3 
REMARK    2  A    between atoms: C_2  and  C_4 
REMARK    3  A    between atoms: C_6  and  N_7 
REMARK       I    between atoms: N_7  and  C_8 
REMARK    4  A    between atoms: C_8  and  C_9 
REMARK    5  A    between atoms: C_12  and  C_13 
REMARK    6  A    between atoms: C_18  and  C_19 
ROOT
HETATM    1  C   UNL     1      41.789 -15.668   0.947  1.00  0.00     0.096 C 
HETATM    2  C   UNL     1      42.258 -16.070   2.185  1.00  0.00     0.138 C 
HETATM    3  N   UNL     1      42.296 -17.445   2.145  1.00  0.00    -0.240 N 
HETATM    4  C   UNL     1      42.676 -18.289   3.264  1.00  0.00     0.221 C 
HETATM    5  C   UNL     1      43.432 -17.466   4.322  1.00  0.00     0.068 C 
HETATM    6  C   UNL     1      42.720 -16.133   4.576  1.00  0.00     0.143 C 
HETATM    7  N   UNL     1      42.626 -15.388   3.306  1.00  0.00    -0.363 N 
HETATM    8  N   UNL     1      41.734 -17.960   1.040  1.00  0.00    -0.181 NA
HETATM    9  C   UNL     1      41.458 -16.882   0.301  1.00  0.00     0.160 C 
HETATM   10  H   UNL     1      42.196 -14.472   3.460  1.00  0.00     0.162 HD
ENDROOT
BRANCH   1  11
HETATM   11  C   UNL     1      41.607 -14.326   0.413  1.00  0.00     0.261 C 
HETATM   12  N   UNL     1      42.148 -14.162  -0.846  1.00  0.00    -0.323 N 
HETATM   13  H   UNL     1      42.489 -15.009  -1.286  1.00  0.00     0.169 HD
HETATM   14  O   UNL     1      41.000 -13.479   1.056  1.00  0.00    -0.267 OA
BRANCH  12  15
HETATM   15  C   UNL     1      42.223 -12.981  -1.611  1.00  0.00     0.035 A 
HETATM   16  C   UNL     1      42.874 -11.819  -1.188  1.00  0.00     0.039 A 
HETATM   17  C   UNL     1      42.931 -10.676  -2.008  1.00  0.00    -0.028 A 
HETATM   18  C   UNL     1      42.330 -10.722  -3.272  1.00  0.00     0.010 A 
HETATM   19  C   UNL     1      41.676 -11.875  -3.701  1.00  0.00     0.003 A 
HETATM   20  C   UNL     1      41.623 -12.999  -2.875  1.00  0.00     0.029 A 
BRANCH  17  21
HETATM   21  C   UNL     1      43.671  -9.448  -1.519  1.00  0.00     0.147 C 
HETATM   22  C   UNL     1      43.006  -8.166  -2.006  1.00  0.00     0.044 C 
BRANCH  21  23
HETATM   23  O   UNL     1      43.723  -9.429  -0.093  1.00  0.00    -0.391 OA
HETATM   24  H   UNL     1      43.137 -10.136   0.220  1.00  0.00     0.210 HD
ENDBRANCH  21  23
ENDBRANCH  17  21
ENDBRANCH  12  15
ENDBRANCH   1  11
BRANCH   4  25
HETATM   25  C   UNL     1      43.530 -19.459   2.826  1.00  0.00     0.409 C 
HETATM   26  F   UNL     1      44.595 -19.071   2.089  1.00  0.00    -0.169 F 
HETATM   27  F   UNL     1      44.031 -20.089   3.925  1.00  0.00    -0.169 F 
HETATM   28  F   UNL     1      42.852 -20.397   2.135  1.00  0.00    -0.169 F 
ENDBRANCH   4  25
BRANCH   6  29
HETATM   29  C   UNL     1      43.434 -15.369   5.646  1.00  0.00     0.075 A 
HETATM   30  O   UNL     1      43.419 -14.009   5.533  1.00  0.00    -0.325 OA
HETATM   31  C   UNL     1      44.105 -13.515   6.595  1.00  0.00     0.142 A 
HETATM   32  C   UNL     1      44.560 -14.540   7.393  1.00  0.00     0.027 A 
HETATM   33  C   UNL     1      44.127 -15.739   6.780  1.00  0.00     0.037 A 
ENDBRANCH   6  29
TORSDOF 6
ENDMDL
MODEL 7
REMARK VINA RESULT:      -8.1      4.314      8.708
REMARK  6 active torsions:
REMARK  status: ('A' for Active; 'I' for Inactive)
REMARK    1  A    between atoms: C_2  and  O_3 
REMARK    2  A    between atoms: C_2  and  C_4 
REMARK    3  A    between atoms: C_6  and  N_7 
REMARK       I    between atoms: N_7  and  C_8 
REMARK    4  A    between atoms: C_8  and  C_9 
REMARK    5  A    between atoms: C_12  and  C_13 
REMARK    6  A    between atoms: C_18  and  C_19 
ROOT
HETATM    1  C   UNL     1      41.846 -14.094   1.553  1.00  0.00     0.096 C 
HETATM    2  C   UNL     1      41.344 -13.814   0.295  1.00  0.00     0.138 C 
HETATM    3  N   UNL     1      41.744 -12.529   0.006  1.00  0.00    -0.240 N 
HETATM    4  C   UNL     1      41.382 -11.810  -1.202  1.00  0.00     0.221 C 
HETATM    5  C   UNL     1      40.883 -12.788  -2.280  1.00  0.00     0.068 C 
HETATM    6  C   UNL     1      39.909 -13.805  -1.675  1.00  0.00     0.143 C 
HETATM    7  N   UNL     1      40.588 -14.531  -0.585  1.00  0.00    -0.363 N 
HETATM    8  N   UNL     1      42.322 -11.907   1.044  1.00  0.00    -0.181 NA
HETATM    9  C   UNL     1      42.413 -12.866   1.970  1.00  0.00     0.160 C 
HETATM   10  H   UNL     1      39.971 -15.249  -0.196  1.00  0.00     0.162 HD
ENDROOT
BRANCH   1  11
HETATM   11  C   UNL     1      41.782 -15.324   2.327  1.00  0.00     0.261 C 
HETATM   12  N   UNL     1      42.900 -15.537   3.109  1.00  0.00    -0.323 N 
HETATM   13  H   UNL     1      43.559 -14.767   3.143  1.00  0.00     0.169 HD
HETATM   14  O   UNL     1      40.792 -16.044   2.269  1.00  0.00    -0.267 OA
BRANCH  12  15
HETATM   15  C   UNL     1      43.199 -16.657   3.909  1.00  0.00     0.035 A 
HETATM   16  C   UNL     1      43.056 -16.683   5.299  1.00  0.00     0.039 A 
HETATM   17  C   UNL     1      43.352 -17.841   6.042  1.00  0.00    -0.028 A 
HETATM   18  C   UNL     1      43.787 -18.985   5.360  1.00  0.00     0.010 A 
HETATM   19  C   UNL     1      43.935 -18.969   3.974  1.00  0.00     0.003 A 
HETATM   20  C   UNL     1      43.642 -17.811   3.253  1.00  0.00     0.029 A 
BRANCH  17  21
HETATM   21  C   UNL     1      43.157 -17.831   7.543  1.00  0.00     0.147 C 
HETATM   22  C   UNL     1      44.209 -18.680   8.247  1.00  0.00     0.044 C 
BRANCH  21  23
HETATM   23  O   UNL     1      43.225 -16.498   8.048  1.00  0.00    -0.391 OA
HETATM   24  H   UNL     1      42.381 -16.071   7.832  1.00  0.00     0.210 HD
ENDBRANCH  21  23
ENDBRANCH  17  21
ENDBRANCH  12  15
ENDBRANCH   1  11
BRANCH   4  25
HETATM   25  C   UNL     1      42.539 -11.001  -1.747  1.00  0.00     0.409 C 
HETATM   26  F   UNL     1      42.492 -10.879  -3.093  1.00  0.00    -0.169 F 
HETATM   27  F   UNL     1      42.484  -9.736  -1.243  1.00  0.00    -0.169 F 
HETATM   28  F   UNL     1      43.750 -11.486  -1.405  1.00  0.00    -0.169 F 
ENDBRANCH   4  25
BRANCH   6  29
HETATM   29  C   UNL     1      39.391 -14.713  -2.743  1.00  0.00     0.075 A 
HETATM   30  O   UNL     1      38.111 -14.490  -3.161  1.00  0.00    -0.325 OA
HETATM   31  C   UNL     1      37.844 -15.405  -4.127  1.00  0.00     0.142 A 
HETATM   32  C   UNL     1      38.936 -16.214  -4.340  1.00  0.00     0.027 A 
HETATM   33  C   UNL     1      39.937 -15.768  -3.445  1.00  0.00     0.037 A 
ENDBRANCH   6  29
TORSDOF 6
ENDMDL
MODEL 8
REMARK VINA RESULT:      -8.1      4.326      8.833
REMARK  6 active torsions:
REMARK  status: ('A' for Active; 'I' for Inactive)
REMARK    1  A    between atoms: C_2  and  O_3 
REMARK    2  A    between atoms: C_2  and  C_4 
REMARK    3  A    between atoms: C_6  and  N_7 
REMARK       I    between atoms: N_7  and  C_8 
REMARK    4  A    between atoms: C_8  and  C_9 
REMARK    5  A    between atoms: C_12  and  C_13 
REMARK    6  A    between atoms: C_18  and  C_19 
ROOT
HETATM    1  C   UNL     1      43.392 -14.663   5.864  1.00  0.00     0.096 C 
HETATM    2  C   UNL     1      43.014 -14.757   4.537  1.00  0.00     0.138 C 
HETATM    3  N   UNL     1      43.084 -16.094   4.219  1.00  0.00    -0.240 N 
HETATM    4  C   UNL     1      42.823 -16.638   2.898  1.00  0.00     0.221 C 
HETATM    5  C   UNL     1      42.055 -15.617   2.040  1.00  0.00     0.068 C 
HETATM    6  C   UNL     1      42.670 -14.221   2.185  1.00  0.00     0.143 C 
HETATM    7  N   UNL     1      42.645 -13.830   3.607  1.00  0.00    -0.363 N 
HETATM    8  N   UNL     1      43.633 -16.842   5.187  1.00  0.00    -0.181 NA
HETATM    9  C   UNL     1      43.788 -15.981   6.196  1.00  0.00     0.160 C 
HETATM   10  H   UNL     1      43.009 -12.880   3.723  1.00  0.00     0.162 HD
ENDROOT
BRANCH   1  11
HETATM   11  C   UNL     1      43.442 -13.499   6.737  1.00  0.00     0.261 C 
HETATM   12  N   UNL     1      44.450 -13.565   7.678  1.00  0.00    -0.323 N 
HETATM   13  H   UNL     1      45.095 -14.340   7.570  1.00  0.00     0.169 HD
HETATM   14  O   UNL     1      42.656 -12.572   6.581  1.00  0.00    -0.267 OA
BRANCH  12  15
HETATM   15  C   UNL     1      44.724 -12.657   8.720  1.00  0.00     0.035 A 
HETATM   16  C   UNL     1      43.929 -12.515   9.860  1.00  0.00     0.039 A 
HETATM   17  C   UNL     1      44.268 -11.603  10.877  1.00  0.00    -0.028 A 
HETATM   18  C   UNL     1      45.432 -10.838  10.735  1.00  0.00     0.010 A 
HETATM   19  C   UNL     1      46.230 -10.969   9.600  1.00  0.00     0.003 A 
HETATM   20  C   UNL     1      45.879 -11.874   8.599  1.00  0.00     0.029 A 
BRANCH  17  21
HETATM   21  C   UNL     1      43.391 -11.504  12.107  1.00  0.00     0.147 C 
HETATM   22  C   UNL     1      43.471 -10.119  12.738  1.00  0.00     0.044 C 
BRANCH  21  23
HETATM   23  O   UNL     1      42.031 -11.782  11.777  1.00  0.00    -0.391 OA
HETATM   24  H   UNL     1      42.022 -12.100  10.860  1.00  0.00     0.210 HD
ENDBRANCH  21  23
ENDBRANCH  17  21
ENDBRANCH  12  15
ENDBRANCH   1  11
BRANCH   4  25
HETATM   25  C   UNL     1      42.046 -17.934   2.963  1.00  0.00     0.409 C 
HETATM   26  F   UNL     1      41.043 -17.888   3.868  1.00  0.00    -0.169 F 
HETATM   27  F   UNL     1      41.463 -18.173   1.754  1.00  0.00    -0.169 F 
HETATM   28  F   UNL     1      42.810 -19.013   3.228  1.00  0.00    -0.169 F 
ENDBRANCH   4  25
BRANCH   6  29
HETATM   29  C   UNL     1      41.948 -13.251   1.305  1.00  0.00     0.075 A 
HETATM   30  O   UNL     1      42.665 -12.173   0.874  1.00  0.00    -0.325 OA
HETATM   31  C   UNL     1      41.838 -11.434   0.090  1.00  0.00     0.142 A 
HETATM   32  C   UNL     1      40.598 -12.023   0.009  1.00  0.00     0.027 A 
HETATM   33  C   UNL     1      40.667 -13.198   0.794  1.00  0.00     0.037 A 
ENDBRANCH   6  29
TORSDOF 6
ENDMDL
MODEL 9
REMARK VINA RESULT:      -8.0      3.827      8.441
REMARK  6 active torsions:
REMARK  status: ('A' for Active; 'I' for Inactive)
REMARK    1  A    between atoms: C_2  and  O_3 
REMARK    2  A    between atoms: C_2  and  C_4 
REMARK    3  A    between atoms: C_6  and  N_7 
REMARK       I    between atoms: N_7  and  C_8 
REMARK    4  A    between atoms: C_8  and  C_9 
REMARK    5  A    between atoms: C_12  and  C_13 
REMARK    6  A    between atoms: C_18  and  C_19 
ROOT
HETATM    1  C   UNL     1      41.803 -15.866   1.402  1.00  0.00     0.096 C 
HETATM    2  C   UNL     1      41.082 -14.812   1.933  1.00  0.00     0.138 C 
HETATM    3  N   UNL     1      40.163 -14.461   0.970  1.00  0.00    -0.240 N 
HETATM    4  C   UNL     1      39.232 -13.353   1.089  1.00  0.00     0.221 C 
HETATM    5  C   UNL     1      39.107 -12.914   2.559  1.00  0.00     0.068 C 
HETATM    6  C   UNL     1      40.490 -12.826   3.214  1.00  0.00     0.143 C 
HETATM    7  N   UNL     1      41.153 -14.140   3.117  1.00  0.00    -0.363 N 
HETATM    8  N   UNL     1      40.346 -15.098  -0.196  1.00  0.00    -0.181 NA
HETATM    9  C   UNL     1      41.318 -15.973   0.076  1.00  0.00     0.160 C 
HETATM   10  H   UNL     1      42.060 -14.118   3.590  1.00  0.00     0.162 HD
ENDROOT
BRANCH   1  11
HETATM   11  C   UNL     1      42.858 -16.668   2.004  1.00  0.00     0.261 C 
HETATM   12  N   UNL     1      42.406 -17.503   3.006  1.00  0.00    -0.323 N 
HETATM   13  H   UNL     1      41.398 -17.545   3.113  1.00  0.00     0.169 HD
HETATM   14  O   UNL     1      44.011 -16.584   1.597  1.00  0.00    -0.267 OA
BRANCH  12  15
HETATM   15  C   UNL     1      43.165 -18.343   3.844  1.00  0.00     0.035 A 
HETATM   16  C   UNL     1      43.291 -18.159   5.223  1.00  0.00     0.039 A 
HETATM   17  C   UNL     1      44.049 -19.047   6.011  1.00  0.00    -0.028 A 
HETATM   18  C   UNL     1      44.674 -20.134   5.388  1.00  0.00     0.010 A 
HETATM   19  C   UNL     1      44.557 -20.324   4.012  1.00  0.00     0.003 A 
HETATM   20  C   UNL     1      43.806 -19.433   3.245  1.00  0.00     0.029 A 
BRANCH  17  21
HETATM   21  C   UNL     1      44.135 -18.824   7.506  1.00  0.00     0.147 C 
HETATM   22  C   UNL     1      43.301 -17.623   7.939  1.00  0.00     0.044 C 
BRANCH  21  23
HETATM   23  O   UNL     1      43.682 -19.978   8.212  1.00  0.00    -0.391 OA
HETATM   24  H   UNL     1      42.801 -19.767   8.562  1.00  0.00     0.210 HD
ENDBRANCH  21  23
ENDBRANCH  17  21
ENDBRANCH  12  15
ENDBRANCH   1  11
BRANCH   4  25
HETATM   25  C   UNL     1      37.864 -13.702   0.545  1.00  0.00     0.409 C 
HETATM   26  F   UNL     1      37.895 -13.994  -0.775  1.00  0.00    -0.169 F 
HETATM   27  F   UNL     1      37.397 -14.816   1.175  1.00  0.00    -0.169 F 
HETATM   28  F   UNL     1      36.939 -12.743   0.748  1.00  0.00    -0.169 F 
ENDBRANCH   4  25
BRANCH   6  29
HETATM   29  C   UNL     1      40.357 -12.346   4.624  1.00  0.00     0.075 A 
HETATM   30  O   UNL     1      41.521 -12.129   5.303  1.00  0.00    -0.325 OA
HETATM   31  C   UNL     1      41.181 -11.693   6.543  1.00  0.00     0.142 A 
HETATM   32  C   UNL     1      39.813 -11.624   6.672  1.00  0.00     0.027 A 
HETATM   33  C   UNL     1      39.279 -12.046   5.431  1.00  0.00     0.037 A 
ENDBRANCH   6  29
TORSDOF 6
ENDMDL
MODEL 10
REMARK VINA RESULT:      -7.7      5.663      9.418
REMARK  6 active torsions:
REMARK  status: ('A' for Active; 'I' for Inactive)
REMARK    1  A    between atoms: C_2  and  O_3 
REMARK    2  A    between atoms: C_2  and  C_4 
REMARK    3  A    between atoms: C_6  and  N_7 
REMARK       I    between atoms: N_7  and  C_8 
REMARK    4  A    between atoms: C_8  and  C_9 
REMARK    5  A    between atoms: C_12  and  C_13 
REMARK    6  A    between atoms: C_18  and  C_19 
ROOT
HETATM    1  C   UNL     1      40.966 -11.323   6.333  1.00  0.00     0.096 C 
HETATM    2  C   UNL     1      41.129 -12.621   5.883  1.00  0.00     0.138 C 
HETATM    3  N   UNL     1      40.228 -12.779   4.854  1.00  0.00    -0.240 N 
HETATM    4  C   UNL     1      40.021 -14.020   4.128  1.00  0.00     0.221 C 
HETATM    5  C   UNL     1      41.207 -14.975   4.351  1.00  0.00     0.068 C 
HETATM    6  C   UNL     1      41.599 -15.011   5.832  1.00  0.00     0.143 C 
HETATM    7  N   UNL     1      41.939 -13.645   6.273  1.00  0.00    -0.363 N 
HETATM    8  N   UNL     1      39.390 -11.741   4.718  1.00  0.00    -0.181 NA
HETATM    9  C   UNL     1      39.858 -10.846   5.592  1.00  0.00     0.160 C 
HETATM   10  H   UNL     1      42.250 -13.652   7.248  1.00  0.00     0.162 HD
ENDROOT
BRANCH   1  11
HETATM   11  C   UNL     1      41.696 -10.597   7.360  1.00  0.00     0.261 C 
HETATM   12  N   UNL     1      41.988 -11.365   8.470  1.00  0.00    -0.323 N 
HETATM   13  H   UNL     1      41.772 -12.352   8.383  1.00  0.00     0.169 HD
HETATM   14  O   UNL     1      42.016  -9.427   7.186  1.00  0.00    -0.267 OA
BRANCH  12  15
HETATM   15  C   UNL     1      42.604 -10.958   9.669  1.00  0.00     0.035 A 
HETATM   16  C   UNL     1      41.902 -10.581  10.817  1.00  0.00     0.039 A 
HETATM   17  C   UNL     1      42.576 -10.203  11.994  1.00  0.00    -0.028 A 
HETATM   18  C   UNL     1      43.976 -10.219  12.002  1.00  0.00     0.010 A 
HETATM   19  C   UNL     1      44.686 -10.589  10.862  1.00  0.00     0.003 A 
HETATM   20  C   UNL     1      44.003 -10.958   9.702  1.00  0.00     0.029 A 
BRANCH  17  21
HETATM   21  C   UNL     1      41.773  -9.830  13.222  1.00  0.00     0.147 C 
HETATM   22  C   UNL     1      42.679  -9.533  14.411  1.00  0.00     0.044 C 
BRANCH  21  23
HETATM   23  O   UNL     1      40.963  -8.684  12.962  1.00  0.00    -0.391 OA
HETATM   24  H   UNL     1      40.063  -8.904  13.250  1.00  0.00     0.210 HD
ENDBRANCH  21  23
ENDBRANCH  17  21
ENDBRANCH  12  15
ENDBRANCH   1  11
BRANCH   4  25
HETATM   25  C   UNL     1      39.831 -13.784   2.646  1.00  0.00     0.409 C 
HETATM   26  F   UNL     1      40.741 -12.920   2.142  1.00  0.00    -0.169 F 
HETATM   27  F   UNL     1      40.001 -14.957   1.975  1.00  0.00    -0.169 F 
HETATM   28  F   UNL     1      38.599 -13.343   2.320  1.00  0.00    -0.169 F 
ENDBRANCH   4  25
BRANCH   6  29
HETATM   29  C   UNL     1      42.715 -15.984   6.042  1.00  0.00     0.075 A 
HETATM   30  O   UNL     1      42.555 -17.220   5.485  1.00  0.00    -0.325 OA
HETATM   31  C   UNL     1      43.670 -17.935   5.780  1.00  0.00     0.142 A 
HETATM   32  C   UNL     1      44.548 -17.176   6.520  1.00  0.00     0.027 A 
HETATM   33  C   UNL     1      43.931 -15.914   6.690  1.00  0.00     0.037 A 
ENDBRANCH   6  29
TORSDOF 6
ENDMDL
