MODEL 1
REMARK VINA RESULT:      -8.2      0.000      0.000
REMARK  9 active torsions:
REMARK  status: ('A' for Active; 'I' for Inactive)
REMARK    1  A    between atoms: N_2  and  C_4 
REMARK    2  A    between atoms: N_2  and  C_10 
REMARK    3  A    between atoms: C_10  and  C_11 
REMARK    4  A    between atoms: N_12  and  C_13 
REMARK    5  A    between atoms: C_17  and  N_18 
REMARK    6  A    between atoms: C_21  and  C_22 
REMARK       I    between atoms: C_22  and  N_23 
REMARK    7  A    between atoms: N_23  and  N_24 
REMARK    8  A    between atoms: C_25  and  C_26 
REMARK    9  A    between atoms: C_27  and  O_28 
ROOT
HETATM    1  C   UNL     1      43.477 -18.638   4.245  1.00  0.00     0.102 A 
HETATM    2  N   UNL     1      44.370 -19.719   4.301  1.00  0.00    -0.191 N 
HETATM    3  N   UNL     1      45.200 -19.542   5.364  1.00  0.00    -0.058 NA
HETATM    4  N   UNL     1      44.806 -18.492   6.058  1.00  0.00    -0.124 NA
HETATM    5  C   UNL     1      43.741 -17.932   5.416  1.00  0.00     0.176 A 
ENDROOT
BRANCH   5   6
HETATM    6  C   UNL     1      43.056 -16.757   5.934  1.00  0.00     0.294 C 
HETATM    7  N   UNL     1      43.475 -15.560   5.385  1.00  0.00    -0.242 N 
HETATM    8  H   UNL     1      44.222 -15.545   4.692  1.00  0.00     0.192 HD
HETATM    9  O   UNL     1      42.162 -16.872   6.771  1.00  0.00    -0.264 OA
BRANCH   7  10
HETATM   10  N   UNL     1      42.829 -14.414   5.729  1.00  0.00    -0.183 NA
HETATM   11  C   UNL     1      41.994 -13.940   4.857  1.00  0.00     0.153 C 
BRANCH  11  12
HETATM   12  C   UNL     1      41.222 -12.713   5.148  1.00  0.00     0.018 A 
HETATM   13  C   UNL     1      40.229 -12.675   6.136  1.00  0.00     0.077 A 
HETATM   14  C   UNL     1      39.512 -11.504   6.369  1.00  0.00     0.039 A 
HETATM   15  C   UNL     1      39.785 -10.362   5.616  1.00  0.00     0.026 A 
HETATM   16  C   UNL     1      40.775 -10.400   4.634  1.00  0.00     0.035 A 
HETATM   17 CL   UNL     1      41.109  -8.991   3.706  1.00  0.00    -0.084 Cl
HETATM   18  C   UNL     1      41.497 -11.569   4.393  1.00  0.00     0.039 A 
BRANCH  13  19
HETATM   19  O   UNL     1      39.902 -13.752   6.915  1.00  0.00    -0.360 OA
HETATM   20  H   UNL     1      40.616 -14.419   6.819  1.00  0.00     0.217 HD
ENDBRANCH  13  19
ENDBRANCH  11  12
ENDBRANCH   7  10
ENDBRANCH   5   6
BRANCH   1  21
HETATM   21  C   UNL     1      42.466 -18.477   3.159  1.00  0.00     0.296 C 
BRANCH  21  22
HETATM   22  N   UNL     1      42.616 -17.269   2.245  1.00  0.00    -0.065 N 
HETATM   23  C   UNL     1      44.006 -17.232   1.644  1.00  0.00     0.270 C 
HETATM   24  H   UNL     1      42.546 -16.422   2.845  1.00  0.00     0.280 HD
BRANCH  22  25
HETATM   25  C   UNL     1      41.512 -17.158   1.177  1.00  0.00     0.188 C 
HETATM   26  C   UNL     1      40.113 -16.981   1.798  1.00  0.00     0.033 C 
HETATM   27  C   UNL     1      39.932 -15.641   2.512  1.00  0.00     0.002 C 
HETATM   28  C   UNL     1      40.259 -14.465   1.596  1.00  0.00     0.000 C 
HETATM   29  C   UNL     1      41.618 -14.613   0.916  1.00  0.00     0.002 C 
HETATM   30  C   UNL     1      41.759 -15.970   0.226  1.00  0.00     0.033 C 
ENDBRANCH  22  25
ENDBRANCH  21  22
ENDBRANCH   1  21
BRANCH   2  31
HETATM   31  C   UNL     1      44.463 -20.858   3.462  1.00  0.00     0.229 A 
HETATM   32  N   UNL     1      44.225 -20.750   2.154  1.00  0.00    -0.081 NA
HETATM   33  O   UNL     1      44.393 -22.053   1.675  1.00  0.00    -0.103 OA
HETATM   34  N   UNL     1      44.729 -22.924   2.702  1.00  0.00    -0.083 NA
HETATM   35  C   UNL     1      44.767 -22.186   3.810  1.00  0.00     0.201 A 
BRANCH  35  36
HETATM   36  N   UNL     1      45.062 -22.663   5.031  1.00  0.00    -0.379 N 
HETATM   37  H   UNL     1      46.030 -22.690   5.339  1.00  0.00     0.158 HD
HETATM   38  H   UNL     1      44.432 -23.257   5.566  1.00  0.00     0.158 HD
ENDBRANCH  35  36
ENDBRANCH   2  31
TORSDOF 9
ENDMDL
MODEL 2
REMARK VINA RESULT:      -8.1      5.410      9.138
REMARK  9 active torsions:
REMARK  status: ('A' for Active; 'I' for Inactive)
REMARK    1  A    between atoms: N_2  and  C_4 
REMARK    2  A    between atoms: N_2  and  C_10 
REMARK    3  A    between atoms: C_10  and  C_11 
REMARK    4  A    between atoms: N_12  and  C_13 
REMARK    5  A    between atoms: C_17  and  N_18 
REMARK    6  A    between atoms: C_21  and  C_22 
REMARK       I    between atoms: C_22  and  N_23 
REMARK    7  A    between atoms: N_23  and  N_24 
REMARK    8  A    between atoms: C_25  and  C_26 
REMARK    9  A    between atoms: C_27  and  O_28 
ROOT
HETATM    1  C   UNL     1      39.683 -13.736  -0.158  1.00  0.00     0.102 A 
HETATM    2  N   UNL     1      38.591 -13.034  -0.693  1.00  0.00    -0.191 N 
HETATM    3  N   UNL     1      37.459 -13.448  -0.064  1.00  0.00    -0.058 NA
HETATM    4  N   UNL     1      37.779 -14.264   0.922  1.00  0.00    -0.124 NA
HETATM    5  C   UNL     1      39.131 -14.441   0.908  1.00  0.00     0.176 A 
ENDROOT
BRANCH   5   6
HETATM    6  C   UNL     1      39.811 -15.280   1.883  1.00  0.00     0.294 C 
HETATM    7  N   UNL     1      40.231 -16.503   1.395  1.00  0.00    -0.242 N 
HETATM    8  H   UNL     1      40.038 -16.765   0.430  1.00  0.00     0.192 HD
HETATM    9  O   UNL     1      40.002 -14.878   3.030  1.00  0.00    -0.264 OA
BRANCH   7  10
HETATM   10  N   UNL     1      40.964 -17.318   2.200  1.00  0.00    -0.183 NA
HETATM   11  C   UNL     1      42.088 -17.746   1.715  1.00  0.00     0.153 C 
BRANCH  11  12
HETATM   12  C   UNL     1      42.971 -18.616   2.521  1.00  0.00     0.018 A 
HETATM   13  C   UNL     1      43.425 -18.241   3.794  1.00  0.00     0.077 A 
HETATM   14  C   UNL     1      44.268 -19.081   4.516  1.00  0.00     0.039 A 
HETATM   15  C   UNL     1      44.663 -20.304   3.971  1.00  0.00     0.026 A 
HETATM   16  C   UNL     1      44.208 -20.677   2.706  1.00  0.00     0.035 A 
HETATM   17 CL   UNL     1      44.696 -22.184   2.036  1.00  0.00    -0.084 Cl
HETATM   18  C   UNL     1      43.364 -19.841   1.974  1.00  0.00     0.039 A 
BRANCH  13  19
HETATM   19  O   UNL     1      43.085 -17.060   4.395  1.00  0.00    -0.360 OA
HETATM   20  H   UNL     1      42.171 -16.834   4.117  1.00  0.00     0.217 HD
ENDBRANCH  13  19
ENDBRANCH  11  12
ENDBRANCH   7  10
ENDBRANCH   5   6
BRANCH   1  21
HETATM   21  C   UNL     1      41.077 -13.576  -0.667  1.00  0.00     0.296 C 
BRANCH  21  22
HETATM   22  N   UNL     1      41.660 -12.170  -0.664  1.00  0.00    -0.065 N 
HETATM   23  C   UNL     1      41.830 -11.673   0.757  1.00  0.00     0.270 C 
HETATM   24  H   UNL     1      40.952 -11.545  -1.098  1.00  0.00     0.280 HD
BRANCH  22  25
HETATM   25  C   UNL     1      42.952 -12.032  -1.492  1.00  0.00     0.188 C 
HETATM   26  C   UNL     1      42.825 -12.678  -2.884  1.00  0.00     0.033 C 
HETATM   27  C   UNL     1      41.839 -11.955  -3.802  1.00  0.00     0.002 C 
HETATM   28  C   UNL     1      42.175 -10.472  -3.933  1.00  0.00     0.000 C 
HETATM   29  C   UNL     1      42.358  -9.791  -2.579  1.00  0.00     0.002 C 
HETATM   30  C   UNL     1      43.342 -10.554  -1.693  1.00  0.00     0.033 C 
ENDBRANCH  22  25
ENDBRANCH  21  22
ENDBRANCH   1  21
BRANCH   2  31
HETATM   31  C   UNL     1      38.565 -12.035  -1.698  1.00  0.00     0.229 A 
HETATM   32  N   UNL     1      38.801 -10.760  -1.385  1.00  0.00    -0.081 NA
HETATM   33  O   UNL     1      38.673 -10.087  -2.603  1.00  0.00    -0.103 OA
HETATM   34  N   UNL     1      38.362 -10.967  -3.630  1.00  0.00    -0.083 NA
HETATM   35  C   UNL     1      38.289 -12.172  -3.070  1.00  0.00     0.201 A 
BRANCH  35  36
HETATM   36  N   UNL     1      38.010 -13.305  -3.737  1.00  0.00    -0.379 N 
HETATM   37  H   UNL     1      38.126 -14.202  -3.274  1.00  0.00     0.158 HD
HETATM   38  H   UNL     1      37.959 -13.357  -4.752  1.00  0.00     0.158 HD
ENDBRANCH  35  36
ENDBRANCH   2  31
TORSDOF 9
ENDMDL
MODEL 3
REMARK VINA RESULT:      -8.0      4.748      8.480
REMARK  9 active torsions:
REMARK  status: ('A' for Active; 'I' for Inactive)
REMARK    1  A    between atoms: N_2  and  C_4 
REMARK    2  A    between atoms: N_2  and  C_10 
REMARK    3  A    between atoms: C_10  and  C_11 
REMARK    4  A    between atoms: N_12  and  C_13 
REMARK    5  A    between atoms: C_17  and  N_18 
REMARK    6  A    between atoms: C_21  and  C_22 
REMARK       I    between atoms: C_22  and  N_23 
REMARK    7  A    between atoms: N_23  and  N_24 
REMARK    8  A    between atoms: C_25  and  C_26 
REMARK    9  A    between atoms: C_27  and  O_28 
ROOT
HETATM    1  C   UNL     1      41.692 -14.065   0.482  1.00  0.00     0.102 A 
HETATM    2  N   UNL     1      42.070 -12.751   0.165  1.00  0.00    -0.191 N 
HETATM    3  N   UNL     1      42.537 -12.150   1.293  1.00  0.00    -0.058 NA
HETATM    4  N   UNL     1      42.603 -13.037   2.267  1.00  0.00    -0.124 NA
HETATM    5  C   UNL     1      42.118 -14.223   1.798  1.00  0.00     0.176 A 
ENDROOT
BRANCH   5   6
HETATM    6  C   UNL     1      42.067 -15.418   2.626  1.00  0.00     0.294 C 
HETATM    7  N   UNL     1      43.283 -16.055   2.792  1.00  0.00    -0.242 N 
HETATM    8  H   UNL     1      44.118 -15.695   2.335  1.00  0.00     0.192 HD
HETATM    9  O   UNL     1      41.009 -15.778   3.140  1.00  0.00    -0.264 OA
BRANCH   7  10
HETATM   10  N   UNL     1      43.358 -17.124   3.629  1.00  0.00    -0.183 NA
HETATM   11  C   UNL     1      44.028 -18.147   3.197  1.00  0.00     0.153 C 
BRANCH  11  12
HETATM   12  C   UNL     1      44.191 -19.349   4.043  1.00  0.00     0.018 A 
HETATM   13  C   UNL     1      44.604 -20.580   3.516  1.00  0.00     0.077 A 
HETATM   14  C   UNL     1      44.729 -21.693   4.342  1.00  0.00     0.039 A 
HETATM   15  C   UNL     1      44.444 -21.583   5.703  1.00  0.00     0.026 A 
HETATM   16  C   UNL     1      44.036 -20.356   6.228  1.00  0.00     0.035 A 
HETATM   17 CL   UNL     1      43.683 -20.223   7.906  1.00  0.00    -0.084 Cl
HETATM   18  C   UNL     1      43.905 -19.236   5.407  1.00  0.00     0.039 A 
BRANCH  13  19
HETATM   19  O   UNL     1      44.900 -20.769   2.193  1.00  0.00    -0.360 OA
HETATM   20  H   UNL     1      45.567 -21.488   2.135  1.00  0.00     0.217 HD
ENDBRANCH  13  19
ENDBRANCH  11  12
ENDBRANCH   7  10
ENDBRANCH   5   6
BRANCH   1  21
HETATM   21  C   UNL     1      41.073 -14.992  -0.510  1.00  0.00     0.296 C 
BRANCH  21  22
HETATM   22  N   UNL     1      39.649 -14.685  -0.953  1.00  0.00    -0.065 N 
HETATM   23  C   UNL     1      38.892 -13.982   0.156  1.00  0.00     0.270 C 
HETATM   24  H   UNL     1      39.168 -15.596  -1.088  1.00  0.00     0.280 HD
BRANCH  22  25
HETATM   25  C   UNL     1      39.565 -13.926  -2.291  1.00  0.00     0.188 C 
HETATM   26  C   UNL     1      40.350 -14.633  -3.412  1.00  0.00     0.033 C 
HETATM   27  C   UNL     1      39.746 -15.974  -3.825  1.00  0.00     0.002 C 
HETATM   28  C   UNL     1      38.276 -15.836  -4.212  1.00  0.00     0.000 C 
HETATM   29  C   UNL     1      37.458 -15.100  -3.154  1.00  0.00     0.002 C 
HETATM   30  C   UNL     1      38.105 -13.771  -2.765  1.00  0.00     0.033 C 
ENDBRANCH  22  25
ENDBRANCH  21  22
ENDBRANCH   1  21
BRANCH   2  31
HETATM   31  C   UNL     1      42.034 -12.076  -1.080  1.00  0.00     0.229 A 
HETATM   32  N   UNL     1      42.858 -12.440  -2.066  1.00  0.00    -0.081 NA
HETATM   33  O   UNL     1      42.547 -11.555  -3.103  1.00  0.00    -0.103 OA
HETATM   34  N   UNL     1      41.543 -10.675  -2.727  1.00  0.00    -0.083 NA
HETATM   35  C   UNL     1      41.228 -10.993  -1.473  1.00  0.00     0.201 A 
BRANCH  35  36
HETATM   36  N   UNL     1      40.287 -10.370  -0.744  1.00  0.00    -0.379 N 
HETATM   37  H   UNL     1      39.331 -10.329  -1.088  1.00  0.00     0.158 HD
HETATM   38  H   UNL     1      40.502  -9.696  -0.013  1.00  0.00     0.158 HD
ENDBRANCH  35  36
ENDBRANCH   2  31
TORSDOF 9
ENDMDL
MODEL 4
REMARK VINA RESULT:      -7.9      5.374      9.053
REMARK  9 active torsions:
REMARK  status: ('A' for Active; 'I' for Inactive)
REMARK    1  A    between atoms: N_2  and  C_4 
REMARK    2  A    between atoms: N_2  and  C_10 
REMARK    3  A    between atoms: C_10  and  C_11 
REMARK    4  A    between atoms: N_12  and  C_13 
REMARK    5  A    between atoms: C_17  and  N_18 
REMARK    6  A    between atoms: C_21  and  C_22 
REMARK       I    between atoms: C_22  and  N_23 
REMARK    7  A    between atoms: N_23  and  N_24 
REMARK    8  A    between atoms: C_25  and  C_26 
REMARK    9  A    between atoms: C_27  and  O_28 
ROOT
HETATM    1  C   UNL     1      41.561 -13.811  -1.509  1.00  0.00     0.102 A 
HETATM    2  N   UNL     1      41.263 -13.654  -2.871  1.00  0.00    -0.191 N 
HETATM    3  N   UNL     1      41.030 -14.881  -3.409  1.00  0.00    -0.058 NA
HETATM    4  N   UNL     1      41.030 -15.787  -2.451  1.00  0.00    -0.124 NA
HETATM    5  C   UNL     1      41.326 -15.163  -1.274  1.00  0.00     0.176 A 
ENDROOT
BRANCH   5   6
HETATM    6  C   UNL     1      41.391 -15.884  -0.012  1.00  0.00     0.294 C 
HETATM    7  N   UNL     1      42.516 -16.672   0.142  1.00  0.00    -0.242 N 
HETATM    8  H   UNL     1      43.208 -16.732  -0.603  1.00  0.00     0.192 HD
HETATM    9  O   UNL     1      40.507 -15.748   0.833  1.00  0.00    -0.264 OA
BRANCH   7  10
HETATM   10  N   UNL     1      42.720 -17.307   1.327  1.00  0.00    -0.183 NA
HETATM   11  C   UNL     1      43.594 -18.265   1.324  1.00  0.00     0.153 C 
BRANCH  11  12
HETATM   12  C   UNL     1      43.906 -19.000   2.569  1.00  0.00     0.018 A 
HETATM   13  C   UNL     1      43.958 -18.363   3.817  1.00  0.00     0.077 A 
HETATM   14  C   UNL     1      44.272 -19.086   4.964  1.00  0.00     0.039 A 
HETATM   15  C   UNL     1      44.534 -20.454   4.872  1.00  0.00     0.026 A 
HETATM   16  C   UNL     1      44.478 -21.087   3.630  1.00  0.00     0.035 A 
HETATM   17 CL   UNL     1      44.803 -22.773   3.519  1.00  0.00    -0.084 Cl
HETATM   18  C   UNL     1      44.167 -20.370   2.475  1.00  0.00     0.039 A 
BRANCH  13  19
HETATM   19  O   UNL     1      43.716 -17.027   3.989  1.00  0.00    -0.360 OA
HETATM   20  H   UNL     1      43.458 -16.654   3.118  1.00  0.00     0.217 HD
ENDBRANCH  13  19
ENDBRANCH  11  12
ENDBRANCH   7  10
ENDBRANCH   5   6
BRANCH   1  21
HETATM   21  C   UNL     1      41.934 -12.669  -0.624  1.00  0.00     0.296 C 
BRANCH  21  22
HETATM   22  N   UNL     1      41.147 -12.507   0.669  1.00  0.00    -0.065 N 
HETATM   23  C   UNL     1      42.062 -12.662   1.866  1.00  0.00     0.270 C 
HETATM   24  H   UNL     1      40.478 -13.301   0.721  1.00  0.00     0.280 HD
BRANCH  22  25
HETATM   25  C   UNL     1      40.315 -11.212   0.732  1.00  0.00     0.188 C 
HETATM   26  C   UNL     1      39.350 -11.080  -0.462  1.00  0.00     0.033 C 
HETATM   27  C   UNL     1      38.230 -12.119  -0.455  1.00  0.00     0.002 C 
HETATM   28  C   UNL     1      37.455 -12.104   0.860  1.00  0.00     0.000 C 
HETATM   29  C   UNL     1      38.368 -12.186   2.080  1.00  0.00     0.002 C 
HETATM   30  C   UNL     1      39.478 -11.136   2.024  1.00  0.00     0.033 C 
ENDBRANCH  22  25
ENDBRANCH  21  22
ENDBRANCH   1  21
BRANCH   2  31
HETATM   31  C   UNL     1      41.172 -12.470  -3.645  1.00  0.00     0.229 A 
HETATM   32  N   UNL     1      42.275 -11.790  -3.965  1.00  0.00    -0.081 NA
HETATM   33  O   UNL     1      41.795 -10.701  -4.698  1.00  0.00    -0.103 OA
HETATM   34  N   UNL     1      40.412 -10.742  -4.809  1.00  0.00    -0.083 NA
HETATM   35  C   UNL     1      40.026 -11.834  -4.153  1.00  0.00     0.201 A 
BRANCH  35  36
HETATM   36  N   UNL     1      38.749 -12.234  -4.029  1.00  0.00    -0.379 N 
HETATM   37  H   UNL     1      38.502 -12.913  -3.314  1.00  0.00     0.158 HD
HETATM   38  H   UNL     1      38.056 -12.128  -4.767  1.00  0.00     0.158 HD
ENDBRANCH  35  36
ENDBRANCH   2  31
TORSDOF 9
ENDMDL
MODEL 5
REMARK VINA RESULT:      -7.8      4.511      8.515
REMARK  9 active torsions:
REMARK  status: ('A' for Active; 'I' for Inactive)
REMARK    1  A    between atoms: N_2  and  C_4 
REMARK    2  A    between atoms: N_2  and  C_10 
REMARK    3  A    between atoms: C_10  and  C_11 
REMARK    4  A    between atoms: N_12  and  C_13 
REMARK    5  A    between atoms: C_17  and  N_18 
REMARK    6  A    between atoms: C_21  and  C_22 
REMARK       I    between atoms: C_22  and  N_23 
REMARK    7  A    between atoms: N_23  and  N_24 
REMARK    8  A    between atoms: C_25  and  C_26 
REMARK    9  A    between atoms: C_27  and  O_28 
ROOT
HETATM    1  C   UNL     1      40.832 -12.389   5.397  1.00  0.00     0.102 A 
HETATM    2  N   UNL     1      40.352 -11.414   6.285  1.00  0.00    -0.191 N 
HETATM    3  N   UNL     1      39.146 -10.975   5.836  1.00  0.00    -0.058 NA
HETATM    4  N   UNL     1      38.773 -11.701   4.800  1.00  0.00    -0.124 NA
HETATM    5  C   UNL     1      39.768 -12.591   4.522  1.00  0.00     0.176 A 
ENDROOT
BRANCH   5   6
HETATM    6  C   UNL     1      39.663 -13.554   3.437  1.00  0.00     0.294 C 
HETATM    7  N   UNL     1      39.688 -12.999   2.171  1.00  0.00    -0.242 N 
HETATM    8  H   UNL     1      39.752 -11.989   2.053  1.00  0.00     0.192 HD
HETATM    9  O   UNL     1      39.591 -14.759   3.674  1.00  0.00    -0.264 OA
BRANCH   7  10
HETATM   10  N   UNL     1      39.696 -13.823   1.089  1.00  0.00    -0.183 NA
HETATM   11  C   UNL     1      39.514 -13.260  -0.064  1.00  0.00     0.153 C 
BRANCH  11  12
HETATM   12  C   UNL     1      39.532 -14.066  -1.304  1.00  0.00     0.018 A 
HETATM   13  C   UNL     1      40.650 -14.821  -1.686  1.00  0.00     0.077 A 
HETATM   14  C   UNL     1      40.634 -15.554  -2.869  1.00  0.00     0.039 A 
HETATM   15  C   UNL     1      39.498 -15.540  -3.679  1.00  0.00     0.026 A 
HETATM   16  C   UNL     1      38.385 -14.791  -3.297  1.00  0.00     0.035 A 
HETATM   17 CL   UNL     1      36.986 -14.774  -4.298  1.00  0.00    -0.084 Cl
HETATM   18  C   UNL     1      38.393 -14.052  -2.114  1.00  0.00     0.039 A 
BRANCH  13  19
HETATM   19  O   UNL     1      41.801 -14.884  -0.947  1.00  0.00    -0.360 OA
HETATM   20  H   UNL     1      42.554 -14.704  -1.550  1.00  0.00     0.217 HD
ENDBRANCH  13  19
ENDBRANCH  11  12
ENDBRANCH   7  10
ENDBRANCH   5   6
BRANCH   1  21
HETATM   21  C   UNL     1      42.167 -13.039   5.551  1.00  0.00     0.296 C 
BRANCH  21  22
HETATM   22  N   UNL     1      42.486 -14.199   4.618  1.00  0.00    -0.065 N 
HETATM   23  C   UNL     1      43.265 -13.709   3.415  1.00  0.00     0.270 C 
HETATM   24  H   UNL     1      41.581 -14.548   4.245  1.00  0.00     0.280 HD
BRANCH  22  25
HETATM   25  C   UNL     1      43.174 -15.387   5.318  1.00  0.00     0.188 C 
HETATM   26  C   UNL     1      42.374 -15.890   6.535  1.00  0.00     0.033 C 
HETATM   27  C   UNL     1      41.040 -16.535   6.160  1.00  0.00     0.002 C 
HETATM   28  C   UNL     1      41.222 -17.657   5.142  1.00  0.00     0.000 C 
HETATM   29  C   UNL     1      42.048 -17.225   3.934  1.00  0.00     0.002 C 
HETATM   30  C   UNL     1      43.367 -16.577   4.356  1.00  0.00     0.033 C 
ENDBRANCH  22  25
ENDBRANCH  21  22
ENDBRANCH   1  21
BRANCH   2  31
HETATM   31  C   UNL     1      40.930 -10.917   7.479  1.00  0.00     0.229 A 
HETATM   32  N   UNL     1      42.074 -10.230   7.437  1.00  0.00    -0.081 NA
HETATM   33  O   UNL     1      42.333  -9.930   8.778  1.00  0.00    -0.103 OA
HETATM   34  N   UNL     1      41.342 -10.439   9.605  1.00  0.00    -0.083 NA
HETATM   35  C   UNL     1      40.476 -11.055   8.803  1.00  0.00     0.201 A 
BRANCH  35  36
HETATM   36  N   UNL     1      39.364 -11.681   9.222  1.00  0.00    -0.379 N 
HETATM   37  H   UNL     1      39.211 -12.655   8.975  1.00  0.00     0.158 HD
HETATM   38  H   UNL     1      38.529 -11.188   9.531  1.00  0.00     0.158 HD
ENDBRANCH  35  36
ENDBRANCH   2  31
TORSDOF 9
ENDMDL
MODEL 6
REMARK VINA RESULT:      -7.8      3.018      3.332
REMARK  9 active torsions:
REMARK  status: ('A' for Active; 'I' for Inactive)
REMARK    1  A    between atoms: N_2  and  C_4 
REMARK    2  A    between atoms: N_2  and  C_10 
REMARK    3  A    between atoms: C_10  and  C_11 
REMARK    4  A    between atoms: N_12  and  C_13 
REMARK    5  A    between atoms: C_17  and  N_18 
REMARK    6  A    between atoms: C_21  and  C_22 
REMARK       I    between atoms: C_22  and  N_23 
REMARK    7  A    between atoms: N_23  and  N_24 
REMARK    8  A    between atoms: C_25  and  C_26 
REMARK    9  A    between atoms: C_27  and  O_28 
ROOT
HETATM    1  C   UNL     1      43.720 -18.315   5.211  1.00  0.00     0.102 A 
HETATM    2  N   UNL     1      44.656 -19.274   4.795  1.00  0.00    -0.191 N 
HETATM    3  N   UNL     1      45.834 -19.036   5.431  1.00  0.00    -0.058 NA
HETATM    4  N   UNL     1      45.667 -18.075   6.319  1.00  0.00    -0.124 NA
HETATM    5  C   UNL     1      44.381 -17.630   6.228  1.00  0.00     0.176 A 
ENDROOT
BRANCH   5   6
HETATM    6  C   UNL     1      43.865 -16.574   7.087  1.00  0.00     0.294 C 
HETATM    7  N   UNL     1      44.377 -15.318   6.822  1.00  0.00    -0.242 N 
HETATM    8  H   UNL     1      45.074 -15.190   6.091  1.00  0.00     0.192 HD
HETATM    9  O   UNL     1      43.020 -16.823   7.945  1.00  0.00    -0.264 OA
BRANCH   7  10
HETATM   10  N   UNL     1      43.884 -14.248   7.503  1.00  0.00    -0.183 NA
HETATM   11  C   UNL     1      44.738 -13.570   8.204  1.00  0.00     0.153 C 
BRANCH  11  12
HETATM   12  C   UNL     1      44.307 -12.374   8.960  1.00  0.00     0.018 A 
HETATM   13  C   UNL     1      44.848 -12.049  10.211  1.00  0.00     0.077 A 
HETATM   14  C   UNL     1      44.404 -10.923  10.899  1.00  0.00     0.039 A 
HETATM   15  C   UNL     1      43.415 -10.113  10.340  1.00  0.00     0.026 A 
HETATM   16  C   UNL     1      42.879 -10.436   9.093  1.00  0.00     0.035 A 
HETATM   17 CL   UNL     1      41.659  -9.437   8.406  1.00  0.00    -0.084 Cl
HETATM   18  C   UNL     1      43.317 -11.563   8.397  1.00  0.00     0.039 A 
BRANCH  13  19
HETATM   19  O   UNL     1      45.818 -12.793  10.827  1.00  0.00    -0.360 OA
HETATM   20  H   UNL     1      45.657 -12.754  11.795  1.00  0.00     0.217 HD
ENDBRANCH  13  19
ENDBRANCH  11  12
ENDBRANCH   7  10
ENDBRANCH   5   6
BRANCH   1  21
HETATM   21  C   UNL     1      42.336 -18.240   4.660  1.00  0.00     0.296 C 
BRANCH  21  22
HETATM   22  N   UNL     1      41.955 -16.972   3.908  1.00  0.00    -0.065 N 
HETATM   23  C   UNL     1      41.255 -16.000   4.836  1.00  0.00     0.270 C 
HETATM   24  H   UNL     1      41.248 -17.241   3.195  1.00  0.00     0.280 HD
BRANCH  22  25
HETATM   25  C   UNL     1      43.131 -16.320   3.156  1.00  0.00     0.188 C 
HETATM   26  C   UNL     1      43.442 -17.036   1.827  1.00  0.00     0.033 C 
HETATM   27  C   UNL     1      42.336 -16.884   0.783  1.00  0.00     0.002 C 
HETATM   28  C   UNL     1      41.997 -15.418   0.530  1.00  0.00     0.000 C 
HETATM   29  C   UNL     1      41.725 -14.648   1.820  1.00  0.00     0.002 C 
HETATM   30  C   UNL     1      42.849 -14.838   2.838  1.00  0.00     0.033 C 
ENDBRANCH  22  25
ENDBRANCH  21  22
ENDBRANCH   1  21
BRANCH   2  31
HETATM   31  C   UNL     1      44.500 -20.357   3.893  1.00  0.00     0.229 A 
HETATM   32  N   UNL     1      44.072 -20.138   2.648  1.00  0.00    -0.081 NA
HETATM   33  O   UNL     1      44.029 -21.414   2.081  1.00  0.00    -0.103 OA
HETATM   34  N   UNL     1      44.431 -22.381   2.992  1.00  0.00    -0.083 NA
HETATM   35  C   UNL     1      44.717 -21.727   4.116  1.00  0.00     0.201 A 
BRANCH  35  36
HETATM   36  N   UNL     1      45.150 -22.312   5.246  1.00  0.00    -0.379 N 
HETATM   37  H   UNL     1      45.644 -21.759   5.940  1.00  0.00     0.158 HD
HETATM   38  H   UNL     1      45.271 -23.318   5.343  1.00  0.00     0.158 HD
ENDBRANCH  35  36
ENDBRANCH   2  31
TORSDOF 9
ENDMDL
MODEL 7
REMARK VINA RESULT:      -7.7      3.723      8.565
REMARK  9 active torsions:
REMARK  status: ('A' for Active; 'I' for Inactive)
REMARK    1  A    between atoms: N_2  and  C_4 
REMARK    2  A    between atoms: N_2  and  C_10 
REMARK    3  A    between atoms: C_10  and  C_11 
REMARK    4  A    between atoms: N_12  and  C_13 
REMARK    5  A    between atoms: C_17  and  N_18 
REMARK    6  A    between atoms: C_21  and  C_22 
REMARK       I    between atoms: C_22  and  N_23 
REMARK    7  A    between atoms: N_23  and  N_24 
REMARK    8  A    between atoms: C_25  and  C_26 
REMARK    9  A    between atoms: C_27  and  O_28 
ROOT
HETATM    1  C   UNL     1      40.929 -13.014   4.825  1.00  0.00     0.102 A 
HETATM    2  N   UNL     1      41.100 -11.938   5.710  1.00  0.00    -0.191 N 
HETATM    3  N   UNL     1      42.194 -12.181   6.481  1.00  0.00    -0.058 NA
HETATM    4  N   UNL     1      42.800 -13.271   6.052  1.00  0.00    -0.124 NA
HETATM    5  C   UNL     1      42.068 -13.790   5.025  1.00  0.00     0.176 A 
ENDROOT
BRANCH   5   6
HETATM    6  C   UNL     1      42.475 -14.994   4.317  1.00  0.00     0.294 C 
HETATM    7  N   UNL     1      42.058 -16.174   4.904  1.00  0.00    -0.242 N 
HETATM    8  H   UNL     1      41.531 -16.157   5.775  1.00  0.00     0.192 HD
HETATM    9  O   UNL     1      43.111 -14.918   3.267  1.00  0.00    -0.264 OA
BRANCH   7  10
HETATM   10  N   UNL     1      42.302 -17.350   4.266  1.00  0.00    -0.183 NA
HETATM   11  C   UNL     1      43.436 -17.922   4.527  1.00  0.00     0.153 C 
BRANCH  11  12
HETATM   12  C   UNL     1      43.784 -19.217   3.904  1.00  0.00     0.018 A 
HETATM   13  C   UNL     1      43.507 -19.494   2.558  1.00  0.00     0.077 A 
HETATM   14  C   UNL     1      43.835 -20.732   2.013  1.00  0.00     0.039 A 
HETATM   15  C   UNL     1      44.446 -21.702   2.809  1.00  0.00     0.026 A 
HETATM   16  C   UNL     1      44.724 -21.424   4.147  1.00  0.00     0.035 A 
HETATM   17 CL   UNL     1      45.476 -22.621   5.128  1.00  0.00    -0.084 Cl
HETATM   18  C   UNL     1      44.397 -20.187   4.703  1.00  0.00     0.039 A 
BRANCH  13  19
HETATM   19  O   UNL     1      42.909 -18.598   1.714  1.00  0.00    -0.360 OA
HETATM   20  H   UNL     1      42.535 -17.874   2.262  1.00  0.00     0.217 HD
ENDBRANCH  13  19
ENDBRANCH  11  12
ENDBRANCH   7  10
ENDBRANCH   5   6
BRANCH   1  21
HETATM   21  C   UNL     1      39.782 -13.108   3.875  1.00  0.00     0.296 C 
BRANCH  21  22
HETATM   22  N   UNL     1      40.074 -12.842   2.405  1.00  0.00    -0.065 N 
HETATM   23  C   UNL     1      41.322 -11.996   2.261  1.00  0.00     0.270 C 
HETATM   24  H   UNL     1      39.295 -12.259   2.040  1.00  0.00     0.280 HD
BRANCH  22  25
HETATM   25  C   UNL     1      40.127 -14.117   1.542  1.00  0.00     0.188 C 
HETATM   26  C   UNL     1      38.807 -14.910   1.591  1.00  0.00     0.033 C 
HETATM   27  C   UNL     1      37.638 -14.184   0.926  1.00  0.00     0.002 C 
HETATM   28  C   UNL     1      37.966 -13.784  -0.510  1.00  0.00     0.000 C 
HETATM   29  C   UNL     1      39.290 -13.034  -0.622  1.00  0.00     0.002 C 
HETATM   30  C   UNL     1      40.427 -13.790   0.065  1.00  0.00     0.033 C 
ENDBRANCH  22  25
ENDBRANCH  21  22
ENDBRANCH   1  21
BRANCH   2  31
HETATM   31  C   UNL     1      40.339 -10.751   5.846  1.00  0.00     0.229 A 
HETATM   32  N   UNL     1      39.181 -10.766   6.510  1.00  0.00    -0.081 NA
HETATM   33  O   UNL     1      38.726  -9.448   6.418  1.00  0.00    -0.103 OA
HETATM   34  N   UNL     1      39.615  -8.660   5.701  1.00  0.00    -0.083 NA
HETATM   35  C   UNL     1      40.611  -9.467   5.342  1.00  0.00     0.201 A 
BRANCH  35  36
HETATM   36  N   UNL     1      41.683  -9.080   4.630  1.00  0.00    -0.379 N 
HETATM   37  H   UNL     1      42.479  -8.664   5.106  1.00  0.00     0.158 HD
HETATM   38  H   UNL     1      41.657  -8.913   3.627  1.00  0.00     0.158 HD
ENDBRANCH  35  36
ENDBRANCH   2  31
TORSDOF 9
ENDMDL
MODEL 8
REMARK VINA RESULT:      -7.7      1.841      2.296
REMARK  9 active torsions:
REMARK  status: ('A' for Active; 'I' for Inactive)
REMARK    1  A    between atoms: N_2  and  C_4 
REMARK    2  A    between atoms: N_2  and  C_10 
REMARK    3  A    between atoms: C_10  and  C_11 
REMARK    4  A    between atoms: N_12  and  C_13 
REMARK    5  A    between atoms: C_17  and  N_18 
REMARK    6  A    between atoms: C_21  and  C_22 
REMARK       I    between atoms: C_22  and  N_23 
REMARK    7  A    between atoms: N_23  and  N_24 
REMARK    8  A    between atoms: C_25  and  C_26 
REMARK    9  A    between atoms: C_27  and  O_28 
ROOT
HETATM    1  C   UNL     1      43.448 -17.405   4.786  1.00  0.00     0.102 A 
HETATM    2  N   UNL     1      44.188 -18.248   5.631  1.00  0.00    -0.191 N 
HETATM    3  N   UNL     1      44.803 -17.486   6.574  1.00  0.00    -0.058 NA
HETATM    4  N   UNL     1      44.396 -16.236   6.462  1.00  0.00    -0.124 NA
HETATM    5  C   UNL     1      43.549 -16.158   5.396  1.00  0.00     0.176 A 
ENDROOT
BRANCH   5   6
HETATM    6  C   UNL     1      42.908 -14.910   5.008  1.00  0.00     0.294 C 
HETATM    7  N   UNL     1      42.136 -14.329   5.997  1.00  0.00    -0.242 N 
HETATM    8  H   UNL     1      42.032 -14.784   6.902  1.00  0.00     0.192 HD
HETATM    9  O   UNL     1      43.093 -14.433   3.889  1.00  0.00    -0.264 OA
BRANCH   7  10
HETATM   10  N   UNL     1      41.576 -13.111   5.766  1.00  0.00    -0.183 NA
HETATM   11  C   UNL     1      40.376 -13.113   5.277  1.00  0.00     0.153 C 
BRANCH  11  12
HETATM   12  C   UNL     1      39.670 -11.840   5.015  1.00  0.00     0.018 A 
HETATM   13  C   UNL     1      39.758 -10.746   5.887  1.00  0.00     0.077 A 
HETATM   14  C   UNL     1      39.066  -9.570   5.614  1.00  0.00     0.039 A 
HETATM   15  C   UNL     1      38.281  -9.478   4.464  1.00  0.00     0.026 A 
HETATM   16  C   UNL     1      38.197 -10.565   3.595  1.00  0.00     0.035 A 
HETATM   17 CL   UNL     1      37.228 -10.449   2.178  1.00  0.00    -0.084 Cl
HETATM   18  C   UNL     1      38.886 -11.749   3.861  1.00  0.00     0.039 A 
BRANCH  13  19
HETATM   19  O   UNL     1      40.504 -10.759   7.035  1.00  0.00    -0.360 OA
HETATM   20  H   UNL     1      40.676 -11.697   7.270  1.00  0.00     0.217 HD
ENDBRANCH  13  19
ENDBRANCH  11  12
ENDBRANCH   7  10
ENDBRANCH   5   6
BRANCH   1  21
HETATM   21  C   UNL     1      42.698 -17.905   3.597  1.00  0.00     0.296 C 
BRANCH  21  22
HETATM   22  N   UNL     1      42.791 -17.080   2.321  1.00  0.00    -0.065 N 
HETATM   23  C   UNL     1      44.113 -17.331   1.626  1.00  0.00     0.270 C 
HETATM   24  H   UNL     1      42.807 -16.080   2.604  1.00  0.00     0.280 HD
BRANCH  22  25
HETATM   25  C   UNL     1      41.588 -17.262   1.375  1.00  0.00     0.188 C 
HETATM   26  C   UNL     1      40.248 -16.955   2.070  1.00  0.00     0.033 C 
HETATM   27  C   UNL     1      40.079 -15.482   2.439  1.00  0.00     0.002 C 
HETATM   28  C   UNL     1      40.272 -14.571   1.229  1.00  0.00     0.000 C 
HETATM   29  C   UNL     1      41.566 -14.865   0.475  1.00  0.00     0.002 C 
HETATM   30  C   UNL     1      41.697 -16.350   0.137  1.00  0.00     0.033 C 
ENDBRANCH  22  25
ENDBRANCH  21  22
ENDBRANCH   1  21
BRANCH   2  31
HETATM   31  C   UNL     1      44.320 -19.659   5.607  1.00  0.00     0.229 A 
HETATM   32  N   UNL     1      44.786 -20.272   4.517  1.00  0.00    -0.081 NA
HETATM   33  O   UNL     1      44.757 -21.627   4.859  1.00  0.00    -0.103 OA
HETATM   34  N   UNL     1      44.275 -21.809   6.148  1.00  0.00    -0.083 NA
HETATM   35  C   UNL     1      43.999 -20.591   6.610  1.00  0.00     0.201 A 
BRANCH  35  36
HETATM   36  N   UNL     1      43.510 -20.336   7.835  1.00  0.00    -0.379 N 
HETATM   37  H   UNL     1      42.780 -19.637   7.949  1.00  0.00     0.158 HD
HETATM   38  H   UNL     1      43.998 -20.580   8.693  1.00  0.00     0.158 HD
ENDBRANCH  35  36
ENDBRANCH   2  31
TORSDOF 9
ENDMDL
MODEL 9
REMARK VINA RESULT:      -7.7      3.962      8.512
REMARK  9 active torsions:
REMARK  status: ('A' for Active; 'I' for Inactive)
REMARK    1  A    between atoms: N_2  and  C_4 
REMARK    2  A    between atoms: N_2  and  C_10 
REMARK    3  A    between atoms: C_10  and  C_11 
REMARK    4  A    between atoms: N_12  and  C_13 
REMARK    5  A    between atoms: C_17  and  N_18 
REMARK    6  A    between atoms: C_21  and  C_22 
REMARK       I    between atoms: C_22  and  N_23 
REMARK    7  A    between atoms: N_23  and  N_24 
REMARK    8  A    between atoms: C_25  and  C_26 
REMARK    9  A    between atoms: C_27  and  O_28 
ROOT
HETATM    1  C   UNL     1      41.210 -14.387   1.252  1.00  0.00     0.102 A 
HETATM    2  N   UNL     1      41.022 -13.586   0.115  1.00  0.00    -0.191 N 
HETATM    3  N   UNL     1      41.224 -14.349  -0.992  1.00  0.00    -0.058 NA
HETATM    4  N   UNL     1      41.396 -15.606  -0.633  1.00  0.00    -0.124 NA
HETATM    5  C   UNL     1      41.367 -15.668   0.730  1.00  0.00     0.176 A 
ENDROOT
BRANCH   5   6
HETATM    6  C   UNL     1      41.514 -16.924   1.450  1.00  0.00     0.294 C 
HETATM    7  N   UNL     1      42.776 -17.485   1.375  1.00  0.00    -0.242 N 
HETATM    8  H   UNL     1      43.507 -17.034   0.828  1.00  0.00     0.192 HD
HETATM    9  O   UNL     1      40.573 -17.394   2.087  1.00  0.00    -0.264 OA
BRANCH   7  10
HETATM   10  N   UNL     1      43.042 -18.607   2.096  1.00  0.00    -0.183 NA
HETATM   11  C   UNL     1      43.719 -18.440   3.189  1.00  0.00     0.153 C 
BRANCH  11  12
HETATM   12  C   UNL     1      44.038 -19.594   4.058  1.00  0.00     0.018 A 
HETATM   13  C   UNL     1      44.583 -20.781   3.549  1.00  0.00     0.077 A 
HETATM   14  C   UNL     1      44.854 -21.851   4.397  1.00  0.00     0.039 A 
HETATM   15  C   UNL     1      44.583 -21.742   5.761  1.00  0.00     0.026 A 
HETATM   16  C   UNL     1      44.043 -20.559   6.267  1.00  0.00     0.035 A 
HETATM   17 CL   UNL     1      43.708 -20.427   7.949  1.00  0.00    -0.084 Cl
HETATM   18  C   UNL     1      43.767 -19.482   5.424  1.00  0.00     0.039 A 
BRANCH  13  19
HETATM   19  O   UNL     1      44.875 -20.966   2.225  1.00  0.00    -0.360 OA
HETATM   20  H   UNL     1      44.117 -21.435   1.813  1.00  0.00     0.217 HD
ENDBRANCH  13  19
ENDBRANCH  11  12
ENDBRANCH   7  10
ENDBRANCH   5   6
BRANCH   1  21
HETATM   21  C   UNL     1      41.130 -13.852   2.643  1.00  0.00     0.296 C 
BRANCH  21  22
HETATM   22  N   UNL     1      42.130 -14.396   3.654  1.00  0.00    -0.065 N 
HETATM   23  C   UNL     1      43.539 -13.996   3.269  1.00  0.00     0.270 C 
HETATM   24  H   UNL     1      42.101 -15.432   3.584  1.00  0.00     0.280 HD
BRANCH  22  25
HETATM   25  C   UNL     1      41.796 -14.032   5.113  1.00  0.00     0.188 C 
HETATM   26  C   UNL     1      40.589 -14.824   5.651  1.00  0.00     0.033 C 
HETATM   27  C   UNL     1      40.862 -16.320   5.802  1.00  0.00     0.002 C 
HETATM   28  C   UNL     1      42.096 -16.584   6.661  1.00  0.00     0.000 C 
HETATM   29  C   UNL     1      43.313 -15.787   6.200  1.00  0.00     0.002 C 
HETATM   30  C   UNL     1      42.990 -14.300   6.052  1.00  0.00     0.033 C 
ENDBRANCH  22  25
ENDBRANCH  21  22
ENDBRANCH   1  21
BRANCH   2  31
HETATM   31  C   UNL     1      40.661 -12.218   0.023  1.00  0.00     0.229 A 
HETATM   32  N   UNL     1      41.491 -11.273   0.471  1.00  0.00    -0.081 NA
HETATM   33  O   UNL     1      40.799 -10.082   0.232  1.00  0.00    -0.103 OA
HETATM   34  N   UNL     1      39.566 -10.328  -0.355  1.00  0.00    -0.083 NA
HETATM   35  C   UNL     1      39.478 -11.650  -0.479  1.00  0.00     0.201 A 
BRANCH  35  36
HETATM   36  N   UNL     1      38.425 -12.295  -1.011  1.00  0.00    -0.379 N 
HETATM   37  H   UNL     1      38.095 -13.156  -0.584  1.00  0.00     0.158 HD
HETATM   38  H   UNL     1      38.103 -12.146  -1.965  1.00  0.00     0.158 HD
ENDBRANCH  35  36
ENDBRANCH   2  31
TORSDOF 9
ENDMDL
MODEL 10
REMARK VINA RESULT:      -7.5      4.053      6.619
REMARK  9 active torsions:
REMARK  status: ('A' for Active; 'I' for Inactive)
REMARK    1  A    between atoms: N_2  and  C_4 
REMARK    2  A    between atoms: N_2  and  C_10 
REMARK    3  A    between atoms: C_10  and  C_11 
REMARK    4  A    between atoms: N_12  and  C_13 
REMARK    5  A    between atoms: C_17  and  N_18 
REMARK    6  A    between atoms: C_21  and  C_22 
REMARK       I    between atoms: C_22  and  N_23 
REMARK    7  A    between atoms: N_23  and  N_24 
REMARK    8  A    between atoms: C_25  and  C_26 
REMARK    9  A    between atoms: C_27  and  O_28 
ROOT
HETATM    1  C   UNL     1      40.607 -13.305   4.641  1.00  0.00     0.102 A 
HETATM    2  N   UNL     1      40.632 -13.591   3.267  1.00  0.00    -0.191 N 
HETATM    3  N   UNL     1      40.197 -12.495   2.588  1.00  0.00    -0.058 NA
HETATM    4  N   UNL     1      40.027 -11.496   3.432  1.00  0.00    -0.124 NA
HETATM    5  C   UNL     1      40.294 -11.950   4.690  1.00  0.00     0.176 A 
ENDROOT
BRANCH   5   6
HETATM    6  C   UNL     1      40.212 -11.085   5.858  1.00  0.00     0.294 C 
HETATM    7  N   UNL     1      41.435 -10.735   6.400  1.00  0.00    -0.242 N 
HETATM    8  H   UNL     1      42.298 -11.095   5.996  1.00  0.00     0.192 HD
HETATM    9  O   UNL     1      39.122 -10.698   6.275  1.00  0.00    -0.264 OA
BRANCH   7  10
HETATM   10  N   UNL     1      41.469  -9.850   7.432  1.00  0.00    -0.183 NA
HETATM   11  C   UNL     1      41.622 -10.354   8.617  1.00  0.00     0.153 C 
BRANCH  11  12
HETATM   12  C   UNL     1      41.698  -9.473   9.802  1.00  0.00     0.018 A 
HETATM   13  C   UNL     1      41.016  -8.251   9.867  1.00  0.00     0.077 A 
HETATM   14  C   UNL     1      41.126  -7.442  10.995  1.00  0.00     0.039 A 
HETATM   15  C   UNL     1      41.919  -7.851  12.067  1.00  0.00     0.026 A 
HETATM   16  C   UNL     1      42.596  -9.069  12.003  1.00  0.00     0.035 A 
HETATM   17 CL   UNL     1      43.575  -9.570  13.326  1.00  0.00    -0.084 Cl
HETATM   18  C   UNL     1      42.493  -9.885  10.876  1.00  0.00     0.039 A 
BRANCH  13  19
HETATM   19  O   UNL     1      40.221  -7.779   8.858  1.00  0.00    -0.360 OA
HETATM   20  H   UNL     1      39.837  -6.925   9.152  1.00  0.00     0.217 HD
ENDBRANCH  13  19
ENDBRANCH  11  12
ENDBRANCH   7  10
ENDBRANCH   5   6
BRANCH   1  21
HETATM   21  C   UNL     1      40.960 -14.312   5.684  1.00  0.00     0.296 C 
BRANCH  21  22
HETATM   22  N   UNL     1      42.374 -14.876   5.655  1.00  0.00    -0.065 N 
HETATM   23  C   UNL     1      43.379 -13.796   5.996  1.00  0.00     0.270 C 
HETATM   24  H   UNL     1      42.574 -15.147   4.671  1.00  0.00     0.280 HD
BRANCH  22  25
HETATM   25  C   UNL     1      42.556 -16.140   6.516  1.00  0.00     0.188 C 
HETATM   26  C   UNL     1      41.379 -17.123   6.368  1.00  0.00     0.033 C 
HETATM   27  C   UNL     1      41.287 -17.755   4.980  1.00  0.00     0.002 C 
HETATM   28  C   UNL     1      42.596 -18.430   4.579  1.00  0.00     0.000 C 
HETATM   29  C   UNL     1      43.804 -17.513   4.752  1.00  0.00     0.002 C 
HETATM   30  C   UNL     1      43.849 -16.896   6.149  1.00  0.00     0.033 C 
ENDBRANCH  22  25
ENDBRANCH  21  22
ENDBRANCH   1  21
BRANCH   2  31
HETATM   31  C   UNL     1      41.041 -14.771   2.597  1.00  0.00     0.229 A 
HETATM   32  N   UNL     1      42.338 -15.040   2.441  1.00  0.00    -0.081 NA
HETATM   33  O   UNL     1      42.346 -16.247   1.736  1.00  0.00    -0.103 OA
HETATM   34  N   UNL     1      41.055 -16.685   1.479  1.00  0.00    -0.083 NA
HETATM   35  C   UNL     1      40.246 -15.769   2.006  1.00  0.00     0.201 A 
BRANCH  35  36
HETATM   36  N   UNL     1      38.904 -15.829   1.971  1.00  0.00    -0.379 N 
HETATM   37  H   UNL     1      38.364 -15.468   2.753  1.00  0.00     0.158 HD
HETATM   38  H   UNL     1      38.389 -16.455   1.356  1.00  0.00     0.158 HD
ENDBRANCH  35  36
ENDBRANCH   2  31
TORSDOF 9
ENDMDL
