MODEL 1
REMARK VINA RESULT:      -9.2      0.000      0.000
REMARK  8 active torsions:
REMARK  status: ('A' for Active; 'I' for Inactive)
REMARK    1  A    between atoms: C_2  and  C_3 
REMARK    2  A    between atoms: C_3  and  C_4 
REMARK       I    between atoms: C_4  and  N_5 
REMARK    3  A    between atoms: N_8  and  C_9 
REMARK    4  A    between atoms: C_12  and  N_13 
REMARK    5  A    between atoms: N_13  and  C_14 
REMARK    6  A    between atoms: C_14  and  N_15 
REMARK       I    between atoms: N_15  and  C_16 
REMARK    7  A    between atoms: C_16  and  C_17 
REMARK    8  A    between atoms: C_19  and  C_20 
ROOT
HETATM    1  N   UNL     1      42.079 -15.496   6.415  1.00  0.00    -0.333 N 
HETATM    2  H   UNL     1      41.428 -15.019   7.039  1.00  0.00     0.168 HD
ENDROOT
BRANCH   1   3
HETATM    3  C   UNL     1      41.797 -15.420   5.037  1.00  0.00     0.034 A 
HETATM    4  C   UNL     1      42.753 -15.705   4.068  1.00  0.00     0.031 A 
HETATM    5  C   UNL     1      42.461 -15.532   2.714  1.00  0.00     0.026 A 
HETATM    6  C   UNL     1      41.219 -15.046   2.280  1.00  0.00     0.010 A 
HETATM    7  C   UNL     1      40.230 -14.885   3.261  1.00  0.00     0.026 A 
HETATM    8  C   UNL     1      40.509 -15.083   4.625  1.00  0.00     0.031 A 
BRANCH   6   9
HETATM    9  N   UNL     1      41.037 -14.756   0.914  1.00  0.00    -0.280 NA
HETATM   10  C   UNL     1      39.703 -14.156   0.646  1.00  0.00     0.115 C 
HETATM   11  C   UNL     1      39.618 -13.610  -0.788  1.00  0.00     0.140 C 
HETATM   12  N   UNL     1      39.996 -14.612  -1.789  1.00  0.00    -0.350 N 
HETATM   13  C   UNL     1      39.471 -14.703  -3.067  1.00  0.00     0.219 C 
HETATM   14  C   UNL     1      41.281 -15.269  -1.513  1.00  0.00     0.140 C 
HETATM   15  O   UNL     1      39.988 -15.414  -3.933  1.00  0.00    -0.273 OA
HETATM   16  C   UNL     1      41.378 -15.809  -0.072  1.00  0.00     0.115 C 
BRANCH  13  17
HETATM   17  C   UNL     1      38.184 -13.962  -3.394  1.00  0.00     0.103 C 
BRANCH  17  18
HETATM   18  C   UNL     1      37.105 -14.890  -3.951  1.00  0.00     0.005 C 
HETATM   19  C   UNL     1      35.992 -14.175  -4.699  1.00  0.00     0.005 C 
ENDBRANCH  17  18
ENDBRANCH  13  17
ENDBRANCH   6   9
ENDBRANCH   1   3
BRANCH   1  20
HETATM   20  C   UNL     1      43.255 -15.892   7.008  1.00  0.00     0.179 C 
HETATM   21  S   UNL     1      43.910 -17.433   7.114  1.00  0.00    -0.040 SA
BRANCH  20  22
HETATM   22  N   UNL     1      44.010 -14.895   7.574  1.00  0.00    -0.298 N 
HETATM   23  C   UNL     1      44.661 -13.805   7.012  1.00  0.00     0.281 C 
HETATM   24  O   UNL     1      44.922 -13.711   5.816  1.00  0.00    -0.265 OA
HETATM   25  H   UNL     1      43.957 -14.880   8.586  1.00  0.00     0.171 HD
BRANCH  23  26
HETATM   26  C   UNL     1      45.030 -12.833   8.021  1.00  0.00     0.144 A 
HETATM   27  O   UNL     1      44.034 -12.366   8.838  1.00  0.00    -0.304 OA
HETATM   28  C   UNL     1      44.574 -11.457   9.698  1.00  0.00     0.086 A 
HETATM   29  C   UNL     1      45.928 -11.345   9.441  1.00  0.00     0.041 A 
HETATM   30  C   UNL     1      46.219 -12.227   8.364  1.00  0.00     0.046 A 
BRANCH  28  31
HETATM   31  C   UNL     1      43.635 -10.853  10.641  1.00  0.00    -0.002 A 
HETATM   32  C   UNL     1      44.070 -10.379  11.887  1.00  0.00     0.016 A 
HETATM   33  C   UNL     1      43.165  -9.809  12.793  1.00  0.00     0.024 A 
HETATM   34  C   UNL     1      41.818  -9.705  12.458  1.00  0.00     0.034 A 
HETATM   35 CL   UNL     1      40.708  -9.009  13.572  1.00  0.00    -0.084 Cl
HETATM   36  C   UNL     1      41.365 -10.166  11.227  1.00  0.00     0.024 A 
HETATM   37  C   UNL     1      42.270 -10.735  10.325  1.00  0.00     0.016 A 
ENDBRANCH  28  31
ENDBRANCH  23  26
ENDBRANCH  20  22
ENDBRANCH   1  20
TORSDOF 8
ENDMDL
MODEL 2
REMARK VINA RESULT:      -9.0      1.497      2.168
REMARK  8 active torsions:
REMARK  status: ('A' for Active; 'I' for Inactive)
REMARK    1  A    between atoms: C_2  and  C_3 
REMARK    2  A    between atoms: C_3  and  C_4 
REMARK       I    between atoms: C_4  and  N_5 
REMARK    3  A    between atoms: N_8  and  C_9 
REMARK    4  A    between atoms: C_12  and  N_13 
REMARK    5  A    between atoms: N_13  and  C_14 
REMARK    6  A    between atoms: C_14  and  N_15 
REMARK       I    between atoms: N_15  and  C_16 
REMARK    7  A    between atoms: C_16  and  C_17 
REMARK    8  A    between atoms: C_19  and  C_20 
ROOT
HETATM    1  N   UNL     1      41.907 -15.821   6.632  1.00  0.00    -0.333 N 
HETATM    2  H   UNL     1      41.378 -15.379   7.383  1.00  0.00     0.168 HD
ENDROOT
BRANCH   1   3
HETATM    3  C   UNL     1      41.365 -15.715   5.336  1.00  0.00     0.034 A 
HETATM    4  C   UNL     1      41.696 -16.604   4.319  1.00  0.00     0.031 A 
HETATM    5  C   UNL     1      41.207 -16.413   3.026  1.00  0.00     0.026 A 
HETATM    6  C   UNL     1      40.394 -15.319   2.696  1.00  0.00     0.010 A 
HETATM    7  C   UNL     1      39.971 -14.507   3.758  1.00  0.00     0.026 A 
HETATM    8  C   UNL     1      40.438 -14.710   5.068  1.00  0.00     0.031 A 
BRANCH   6   9
HETATM    9  N   UNL     1      40.053 -15.103   1.346  1.00  0.00    -0.280 NA
HETATM   10  C   UNL     1      41.249 -15.125   0.461  1.00  0.00     0.115 C 
HETATM   11  C   UNL     1      40.841 -15.149  -1.021  1.00  0.00     0.140 C 
HETATM   12  N   UNL     1      39.909 -14.071  -1.360  1.00  0.00    -0.350 N 
HETATM   13  C   UNL     1      39.840 -13.429  -2.585  1.00  0.00     0.219 C 
HETATM   14  C   UNL     1      38.750 -13.985  -0.460  1.00  0.00     0.140 C 
HETATM   15  O   UNL     1      38.892 -12.696  -2.883  1.00  0.00    -0.273 OA
HETATM   16  C   UNL     1      39.151 -13.972   1.028  1.00  0.00     0.115 C 
BRANCH  13  17
HETATM   17  C   UNL     1      40.994 -13.573  -3.563  1.00  0.00     0.103 C 
BRANCH  17  18
HETATM   18  C   UNL     1      41.906 -12.347  -3.571  1.00  0.00     0.005 C 
HETATM   19  C   UNL     1      42.839 -12.255  -2.374  1.00  0.00     0.005 C 
ENDBRANCH  17  18
ENDBRANCH  13  17
ENDBRANCH   6   9
ENDBRANCH   1   3
BRANCH   1  20
HETATM   20  C   UNL     1      43.183 -16.202   6.977  1.00  0.00     0.179 C 
HETATM   21  S   UNL     1      43.878 -17.727   6.912  1.00  0.00    -0.040 SA
BRANCH  20  22
HETATM   22  N   UNL     1      44.013 -15.199   7.415  1.00  0.00    -0.298 N 
HETATM   23  C   UNL     1      44.450 -14.034   6.800  1.00  0.00     0.281 C 
HETATM   24  O   UNL     1      44.392 -13.841   5.589  1.00  0.00    -0.265 OA
HETATM   25  H   UNL     1      44.220 -15.258   8.406  1.00  0.00     0.171 HD
BRANCH  23  26
HETATM   26  C   UNL     1      45.021 -13.112   7.761  1.00  0.00     0.144 A 
HETATM   27  O   UNL     1      44.245 -12.763   8.835  1.00  0.00    -0.304 OA
HETATM   28  C   UNL     1      44.947 -11.883   9.604  1.00  0.00     0.086 A 
HETATM   29  C   UNL     1      46.185 -11.672   9.029  1.00  0.00     0.041 A 
HETATM   30  C   UNL     1      46.232 -12.459   7.845  1.00  0.00     0.046 A 
BRANCH  28  31
HETATM   31  C   UNL     1      44.252 -11.402  10.797  1.00  0.00    -0.002 A 
HETATM   32  C   UNL     1      44.148 -10.031  11.067  1.00  0.00     0.016 A 
HETATM   33  C   UNL     1      43.490  -9.574  12.216  1.00  0.00     0.024 A 
HETATM   34  C   UNL     1      42.927 -10.486  13.105  1.00  0.00     0.034 A 
HETATM   35 CL   UNL     1      42.123  -9.925  14.518  1.00  0.00    -0.084 Cl
HETATM   36  C   UNL     1      43.015 -11.852  12.856  1.00  0.00     0.024 A 
HETATM   37  C   UNL     1      43.673 -12.304  11.708  1.00  0.00     0.016 A 
ENDBRANCH  28  31
ENDBRANCH  23  26
ENDBRANCH  20  22
ENDBRANCH   1  20
TORSDOF 8
ENDMDL
MODEL 3
REMARK VINA RESULT:      -9.0      4.918     11.494
REMARK  8 active torsions:
REMARK  status: ('A' for Active; 'I' for Inactive)
REMARK    1  A    between atoms: C_2  and  C_3 
REMARK    2  A    between atoms: C_3  and  C_4 
REMARK       I    between atoms: C_4  and  N_5 
REMARK    3  A    between atoms: N_8  and  C_9 
REMARK    4  A    between atoms: C_12  and  N_13 
REMARK    5  A    between atoms: N_13  and  C_14 
REMARK    6  A    between atoms: C_14  and  N_15 
REMARK       I    between atoms: N_15  and  C_16 
REMARK    7  A    between atoms: C_16  and  C_17 
REMARK    8  A    between atoms: C_19  and  C_20 
ROOT
HETATM    1  N   UNL     1      41.444 -11.364   2.919  1.00  0.00    -0.333 N 
HETATM    2  H   UNL     1      42.160 -10.790   2.475  1.00  0.00     0.168 HD
ENDROOT
BRANCH   1   3
HETATM    3  C   UNL     1      41.203 -11.120   4.286  1.00  0.00     0.034 A 
HETATM    4  C   UNL     1      41.333  -9.853   4.846  1.00  0.00     0.031 A 
HETATM    5  C   UNL     1      41.172  -9.668   6.220  1.00  0.00     0.026 A 
HETATM    6  C   UNL     1      40.902 -10.738   7.085  1.00  0.00     0.010 A 
HETATM    7  C   UNL     1      40.651 -11.982   6.487  1.00  0.00     0.026 A 
HETATM    8  C   UNL     1      40.785 -12.170   5.100  1.00  0.00     0.031 A 
BRANCH   6   9
HETATM    9  N   UNL     1      40.895 -10.509   8.475  1.00  0.00    -0.280 NA
HETATM   10  C   UNL     1      42.269 -10.506   9.044  1.00  0.00     0.115 C 
HETATM   11  C   UNL     1      42.267 -10.001  10.496  1.00  0.00     0.140 C 
HETATM   12  N   UNL     1      41.310 -10.728  11.336  1.00  0.00    -0.350 N 
HETATM   13  C   UNL     1      41.470 -10.990  12.686  1.00  0.00     0.219 C 
HETATM   14  C   UNL     1      39.958 -10.803  10.765  1.00  0.00     0.140 C 
HETATM   15  O   UNL     1      40.538 -11.398  13.385  1.00  0.00    -0.273 OA
HETATM   16  C   UNL     1      39.954 -11.297   9.305  1.00  0.00     0.115 C 
BRANCH  13  17
HETATM   17  C   UNL     1      42.847 -10.838  13.313  1.00  0.00     0.103 C 
BRANCH  17  18
HETATM   18  C   UNL     1      43.041  -9.469  13.965  1.00  0.00     0.005 C 
HETATM   19  C   UNL     1      42.400  -9.334  15.336  1.00  0.00     0.005 C 
ENDBRANCH  17  18
ENDBRANCH  13  17
ENDBRANCH   6   9
ENDBRANCH   1   3
BRANCH   1  20
HETATM   20  C   UNL     1      40.658 -12.079   2.045  1.00  0.00     0.179 C 
HETATM   21  S   UNL     1      39.222 -11.620   1.309  1.00  0.00    -0.040 SA
BRANCH  20  22
HETATM   22  N   UNL     1      41.114 -13.329   1.709  1.00  0.00    -0.298 N 
HETATM   23  C   UNL     1      42.233 -14.041   2.121  1.00  0.00     0.281 C 
HETATM   24  O   UNL     1      43.205 -13.524   2.665  1.00  0.00    -0.265 OA
HETATM   25  H   UNL     1      40.438 -13.872   1.183  1.00  0.00     0.171 HD
BRANCH  23  26
HETATM   26  C   UNL     1      42.120 -15.445   1.781  1.00  0.00     0.144 A 
HETATM   27  O   UNL     1      42.819 -16.336   2.550  1.00  0.00    -0.304 OA
HETATM   28  C   UNL     1      42.598 -17.590   2.063  1.00  0.00     0.086 A 
HETATM   29  C   UNL     1      41.744 -17.507   0.980  1.00  0.00     0.041 A 
HETATM   30  C   UNL     1      41.439 -16.130   0.798  1.00  0.00     0.046 A 
BRANCH  28  31
HETATM   31  C   UNL     1      43.284 -18.668   2.774  1.00  0.00    -0.002 A 
HETATM   32  C   UNL     1      43.671 -19.838   2.108  1.00  0.00     0.016 A 
HETATM   33  C   UNL     1      44.319 -20.874   2.795  1.00  0.00     0.024 A 
HETATM   34  C   UNL     1      44.589 -20.744   4.155  1.00  0.00     0.034 A 
HETATM   35 CL   UNL     1      45.382 -22.017   4.998  1.00  0.00    -0.084 Cl
HETATM   36  C   UNL     1      44.218 -19.590   4.836  1.00  0.00     0.024 A 
HETATM   37  C   UNL     1      43.570 -18.559   4.147  1.00  0.00     0.016 A 
ENDBRANCH  28  31
ENDBRANCH  23  26
ENDBRANCH  20  22
ENDBRANCH   1  20
TORSDOF 8
ENDMDL
MODEL 4
REMARK VINA RESULT:      -9.0      5.094     11.201
REMARK  8 active torsions:
REMARK  status: ('A' for Active; 'I' for Inactive)
REMARK    1  A    between atoms: C_2  and  C_3 
REMARK    2  A    between atoms: C_3  and  C_4 
REMARK       I    between atoms: C_4  and  N_5 
REMARK    3  A    between atoms: N_8  and  C_9 
REMARK    4  A    between atoms: C_12  and  N_13 
REMARK    5  A    between atoms: N_13  and  C_14 
REMARK    6  A    between atoms: C_14  and  N_15 
REMARK       I    between atoms: N_15  and  C_16 
REMARK    7  A    between atoms: C_16  and  C_17 
REMARK    8  A    between atoms: C_19  and  C_20 
ROOT
HETATM    1  N   UNL     1      39.140 -12.171   3.143  1.00  0.00    -0.333 N 
HETATM    2  H   UNL     1      38.151 -12.024   2.941  1.00  0.00     0.168 HD
ENDROOT
BRANCH   1   3
HETATM    3  C   UNL     1      39.564 -11.874   4.454  1.00  0.00     0.034 A 
HETATM    4  C   UNL     1      39.146 -12.616   5.553  1.00  0.00     0.031 A 
HETATM    5  C   UNL     1      39.516 -12.237   6.844  1.00  0.00     0.026 A 
HETATM    6  C   UNL     1      40.292 -11.094   7.087  1.00  0.00     0.010 A 
HETATM    7  C   UNL     1      40.806 -10.434   5.962  1.00  0.00     0.026 A 
HETATM    8  C   UNL     1      40.459 -10.827   4.657  1.00  0.00     0.031 A 
BRANCH   6   9
HETATM    9  N   UNL     1      40.510 -10.685   8.417  1.00  0.00    -0.280 NA
HETATM   10  C   UNL     1      41.952 -10.714   8.779  1.00  0.00     0.115 C 
HETATM   11  C   UNL     1      42.200 -10.024  10.129  1.00  0.00     0.140 C 
HETATM   12  N   UNL     1      41.342 -10.556  11.192  1.00  0.00    -0.350 N 
HETATM   13  C   UNL     1      41.689 -10.650  12.529  1.00  0.00     0.219 C 
HETATM   14  C   UNL     1      39.917 -10.600  10.836  1.00  0.00     0.140 C 
HETATM   15  O   UNL     1      40.852 -10.889  13.403  1.00  0.00    -0.273 OA
HETATM   16  C   UNL     1      39.662 -11.280   9.476  1.00  0.00     0.115 C 
BRANCH  13  17
HETATM   17  C   UNL     1      43.152 -10.525  12.925  1.00  0.00     0.103 C 
BRANCH  17  18
HETATM   18  C   UNL     1      43.413  -9.303  13.804  1.00  0.00     0.005 C 
HETATM   19  C   UNL     1      42.676  -8.049  13.365  1.00  0.00     0.005 C 
ENDBRANCH  17  18
ENDBRANCH  13  17
ENDBRANCH   6   9
ENDBRANCH   1   3
BRANCH   1  20
HETATM   20  C   UNL     1      39.820 -12.887   2.185  1.00  0.00     0.179 C 
HETATM   21  S   UNL     1      39.712 -12.772   0.515  1.00  0.00    -0.040 SA
BRANCH  20  22
HETATM   22  N   UNL     1      40.727 -13.806   2.651  1.00  0.00    -0.298 N 
HETATM   23  C   UNL     1      42.107 -13.747   2.792  1.00  0.00     0.281 C 
HETATM   24  O   UNL     1      42.814 -12.920   2.221  1.00  0.00    -0.265 OA
HETATM   25  H   UNL     1      40.290 -14.604   3.100  1.00  0.00     0.171 HD
BRANCH  23  26
HETATM   26  C   UNL     1      42.596 -14.806   3.650  1.00  0.00     0.144 A 
HETATM   27  O   UNL     1      42.870 -16.013   3.065  1.00  0.00    -0.304 OA
HETATM   28  C   UNL     1      43.296 -16.874   4.032  1.00  0.00     0.086 A 
HETATM   29  C   UNL     1      43.305 -16.215   5.247  1.00  0.00     0.041 A 
HETATM   30  C   UNL     1      42.854 -14.889   5.002  1.00  0.00     0.046 A 
BRANCH  28  31
HETATM   31  C   UNL     1      43.628 -18.221   3.570  1.00  0.00    -0.002 A 
HETATM   32  C   UNL     1      43.198 -18.679   2.318  1.00  0.00     0.016 A 
HETATM   33  C   UNL     1      43.510 -19.974   1.883  1.00  0.00     0.024 A 
HETATM   34  C   UNL     1      44.258 -20.821   2.696  1.00  0.00     0.034 A 
HETATM   35 CL   UNL     1      44.637 -22.411   2.162  1.00  0.00    -0.084 Cl
HETATM   36  C   UNL     1      44.699 -20.386   3.941  1.00  0.00     0.024 A 
HETATM   37  C   UNL     1      44.385 -19.093   4.373  1.00  0.00     0.016 A 
ENDBRANCH  28  31
ENDBRANCH  23  26
ENDBRANCH  20  22
ENDBRANCH   1  20
TORSDOF 8
ENDMDL
MODEL 5
REMARK VINA RESULT:      -8.8      1.435      1.955
REMARK  8 active torsions:
REMARK  status: ('A' for Active; 'I' for Inactive)
REMARK    1  A    between atoms: C_2  and  C_3 
REMARK    2  A    between atoms: C_3  and  C_4 
REMARK       I    between atoms: C_4  and  N_5 
REMARK    3  A    between atoms: N_8  and  C_9 
REMARK    4  A    between atoms: C_12  and  N_13 
REMARK    5  A    between atoms: N_13  and  C_14 
REMARK    6  A    between atoms: C_14  and  N_15 
REMARK       I    between atoms: N_15  and  C_16 
REMARK    7  A    between atoms: C_16  and  C_17 
REMARK    8  A    between atoms: C_19  and  C_20 
ROOT
HETATM    1  N   UNL     1      43.168 -14.645   4.443  1.00  0.00    -0.333 N 
HETATM    2  H   UNL     1      44.056 -15.122   4.599  1.00  0.00     0.168 HD
ENDROOT
BRANCH   1   3
HETATM    3  C   UNL     1      42.713 -14.588   3.111  1.00  0.00     0.034 A 
HETATM    4  C   UNL     1      42.284 -13.402   2.525  1.00  0.00     0.031 A 
HETATM    5  C   UNL     1      41.758 -13.402   1.232  1.00  0.00     0.026 A 
HETATM    6  C   UNL     1      41.617 -14.583   0.490  1.00  0.00     0.010 A 
HETATM    7  C   UNL     1      42.170 -15.745   1.047  1.00  0.00     0.026 A 
HETATM    8  C   UNL     1      42.726 -15.747   2.338  1.00  0.00     0.031 A 
BRANCH   6   9
HETATM    9  N   UNL     1      40.947 -14.538  -0.748  1.00  0.00    -0.280 NA
HETATM   10  C   UNL     1      39.521 -14.142  -0.594  1.00  0.00     0.115 C 
HETATM   11  C   UNL     1      38.878 -13.844  -1.957  1.00  0.00     0.140 C 
HETATM   12  N   UNL     1      39.057 -14.944  -2.909  1.00  0.00    -0.350 N 
HETATM   13  C   UNL     1      38.158 -15.296  -3.902  1.00  0.00     0.219 C 
HETATM   14  C   UNL     1      40.448 -15.400  -3.033  1.00  0.00     0.140 C 
HETATM   15  O   UNL     1      38.464 -16.074  -4.810  1.00  0.00    -0.273 OA
HETATM   16  C   UNL     1      41.104 -15.689  -1.668  1.00  0.00     0.115 C 
BRANCH  13  17
HETATM   17  C   UNL     1      36.734 -14.767  -3.835  1.00  0.00     0.103 C 
BRANCH  17  18
HETATM   18  C   UNL     1      36.285 -14.140  -5.155  1.00  0.00     0.005 C 
HETATM   19  C   UNL     1      34.875 -13.572  -5.127  1.00  0.00     0.005 C 
ENDBRANCH  17  18
ENDBRANCH  13  17
ENDBRANCH   6   9
ENDBRANCH   1   3
BRANCH   1  20
HETATM   20  C   UNL     1      42.447 -14.388   5.586  1.00  0.00     0.179 C 
HETATM   21  S   UNL     1      40.824 -14.683   5.892  1.00  0.00    -0.040 SA
BRANCH  20  22
HETATM   22  N   UNL     1      43.147 -13.833   6.628  1.00  0.00    -0.298 N 
HETATM   23  C   UNL     1      44.408 -14.111   7.139  1.00  0.00     0.281 C 
HETATM   24  O   UNL     1      45.020 -15.152   6.912  1.00  0.00    -0.265 OA
HETATM   25  H   UNL     1      42.724 -12.984   6.985  1.00  0.00     0.171 HD
BRANCH  23  26
HETATM   26  C   UNL     1      44.873 -13.046   8.004  1.00  0.00     0.144 A 
HETATM   27  O   UNL     1      43.936 -12.397   8.763  1.00  0.00    -0.304 OA
HETATM   28  C   UNL     1      44.564 -11.427   9.486  1.00  0.00     0.086 A 
HETATM   29  C   UNL     1      45.915 -11.458   9.199  1.00  0.00     0.041 A 
HETATM   30  C   UNL     1      46.113 -12.495   8.246  1.00  0.00     0.046 A 
BRANCH  28  31
HETATM   31  C   UNL     1      43.696 -10.631  10.352  1.00  0.00    -0.002 A 
HETATM   32  C   UNL     1      42.490 -10.101   9.872  1.00  0.00     0.016 A 
HETATM   33  C   UNL     1      41.666  -9.330  10.702  1.00  0.00     0.024 A 
HETATM   34  C   UNL     1      42.039  -9.085  12.021  1.00  0.00     0.034 A 
HETATM   35 CL   UNL     1      41.028  -8.136  13.038  1.00  0.00    -0.084 Cl
HETATM   36  C   UNL     1      43.229  -9.604  12.519  1.00  0.00     0.024 A 
HETATM   37  C   UNL     1      44.050 -10.373  11.688  1.00  0.00     0.016 A 
ENDBRANCH  28  31
ENDBRANCH  23  26
ENDBRANCH  20  22
ENDBRANCH   1  20
TORSDOF 8
ENDMDL
MODEL 6
REMARK VINA RESULT:      -8.7      4.593      5.607
REMARK  8 active torsions:
REMARK  status: ('A' for Active; 'I' for Inactive)
REMARK    1  A    between atoms: C_2  and  C_3 
REMARK    2  A    between atoms: C_3  and  C_4 
REMARK       I    between atoms: C_4  and  N_5 
REMARK    3  A    between atoms: N_8  and  C_9 
REMARK    4  A    between atoms: C_12  and  N_13 
REMARK    5  A    between atoms: N_13  and  C_14 
REMARK    6  A    between atoms: C_14  and  N_15 
REMARK       I    between atoms: N_15  and  C_16 
REMARK    7  A    between atoms: C_16  and  C_17 
REMARK    8  A    between atoms: C_19  and  C_20 
ROOT
HETATM    1  N   UNL     1      44.636 -20.421   2.808  1.00  0.00    -0.333 N 
HETATM    2  H   UNL     1      45.046 -21.090   2.156  1.00  0.00     0.168 HD
ENDROOT
BRANCH   1   3
HETATM    3  C   UNL     1      43.901 -19.362   2.240  1.00  0.00     0.034 A 
HETATM    4  C   UNL     1      44.485 -18.141   1.922  1.00  0.00     0.031 A 
HETATM    5  C   UNL     1      43.706 -17.087   1.444  1.00  0.00     0.026 A 
HETATM    6  C   UNL     1      42.317 -17.203   1.290  1.00  0.00     0.010 A 
HETATM    7  C   UNL     1      41.767 -18.477   1.495  1.00  0.00     0.026 A 
HETATM    8  C   UNL     1      42.551 -19.551   1.952  1.00  0.00     0.031 A 
BRANCH   6   9
HETATM    9  N   UNL     1      41.569 -16.061   0.942  1.00  0.00    -0.280 NA
HETATM   10  C   UNL     1      40.350 -15.919   1.783  1.00  0.00     0.115 C 
HETATM   11  C   UNL     1      39.690 -14.547   1.575  1.00  0.00     0.140 C 
HETATM   12  N   UNL     1      39.435 -14.261   0.160  1.00  0.00    -0.350 N 
HETATM   13  C   UNL     1      38.376 -13.513  -0.327  1.00  0.00     0.219 C 
HETATM   14  C   UNL     1      40.606 -14.458  -0.705  1.00  0.00     0.140 C 
HETATM   15  O   UNL     1      38.342 -13.117  -1.495  1.00  0.00    -0.273 OA
HETATM   16  C   UNL     1      41.281 -15.828  -0.492  1.00  0.00     0.115 C 
BRANCH  13  17
HETATM   17  C   UNL     1      37.190 -13.229   0.581  1.00  0.00     0.103 C 
BRANCH  17  18
HETATM   18  C   UNL     1      37.043 -11.740   0.896  1.00  0.00     0.005 C 
HETATM   19  C   UNL     1      35.663 -11.174   0.602  1.00  0.00     0.005 C 
ENDBRANCH  17  18
ENDBRANCH  13  17
ENDBRANCH   6   9
ENDBRANCH   1   3
BRANCH   1  20
HETATM   20  C   UNL     1      44.644 -20.824   4.123  1.00  0.00     0.179 C 
HETATM   21  S   UNL     1      45.259 -22.239   4.784  1.00  0.00    -0.040 SA
BRANCH  20  22
HETATM   22  N   UNL     1      44.096 -19.946   5.025  1.00  0.00    -0.298 N 
HETATM   23  C   UNL     1      43.816 -20.076   6.379  1.00  0.00     0.281 C 
HETATM   24  O   UNL     1      43.741 -21.157   6.958  1.00  0.00    -0.265 OA
HETATM   25  H   UNL     1      44.022 -19.001   4.667  1.00  0.00     0.171 HD
BRANCH  23  26
HETATM   26  C   UNL     1      43.576 -18.786   6.993  1.00  0.00     0.144 A 
HETATM   27  O   UNL     1      42.915 -17.847   6.248  1.00  0.00    -0.304 OA
HETATM   28  C   UNL     1      42.806 -16.708   6.988  1.00  0.00     0.086 A 
HETATM   29  C   UNL     1      43.392 -16.917   8.223  1.00  0.00     0.041 A 
HETATM   30  C   UNL     1      43.888 -18.250   8.225  1.00  0.00     0.046 A 
BRANCH  28  31
HETATM   31  C   UNL     1      42.125 -15.595   6.329  1.00  0.00    -0.002 A 
HETATM   32  C   UNL     1      42.822 -14.433   5.972  1.00  0.00     0.016 A 
HETATM   33  C   UNL     1      42.163 -13.365   5.349  1.00  0.00     0.024 A 
HETATM   34  C   UNL     1      40.801 -13.451   5.075  1.00  0.00     0.034 A 
HETATM   35 CL   UNL     1      39.993 -12.138   4.314  1.00  0.00    -0.084 Cl
HETATM   36  C   UNL     1      40.090 -14.596   5.418  1.00  0.00     0.024 A 
HETATM   37  C   UNL     1      40.750 -15.660   6.040  1.00  0.00     0.016 A 
ENDBRANCH  28  31
ENDBRANCH  23  26
ENDBRANCH  20  22
ENDBRANCH   1  20
TORSDOF 8
ENDMDL
MODEL 7
REMARK VINA RESULT:      -8.6      5.039      7.136
REMARK  8 active torsions:
REMARK  status: ('A' for Active; 'I' for Inactive)
REMARK    1  A    between atoms: C_2  and  C_3 
REMARK    2  A    between atoms: C_3  and  C_4 
REMARK       I    between atoms: C_4  and  N_5 
REMARK    3  A    between atoms: N_8  and  C_9 
REMARK    4  A    between atoms: C_12  and  N_13 
REMARK    5  A    between atoms: N_13  and  C_14 
REMARK    6  A    between atoms: C_14  and  N_15 
REMARK       I    between atoms: N_15  and  C_16 
REMARK    7  A    between atoms: C_16  and  C_17 
REMARK    8  A    between atoms: C_19  and  C_20 
ROOT
HETATM    1  N   UNL     1      40.712 -11.726   4.450  1.00  0.00    -0.333 N 
HETATM    2  H   UNL     1      41.374 -10.973   4.640  1.00  0.00     0.168 HD
ENDROOT
BRANCH   1   3
HETATM    3  C   UNL     1      40.292 -11.868   3.112  1.00  0.00     0.034 A 
HETATM    4  C   UNL     1      38.982 -12.192   2.777  1.00  0.00     0.031 A 
HETATM    5  C   UNL     1      38.626 -12.411   1.446  1.00  0.00     0.026 A 
HETATM    6  C   UNL     1      39.565 -12.339   0.407  1.00  0.00     0.010 A 
HETATM    7  C   UNL     1      40.848 -11.889   0.749  1.00  0.00     0.026 A 
HETATM    8  C   UNL     1      41.206 -11.641   2.086  1.00  0.00     0.031 A 
BRANCH   6   9
HETATM    9  N   UNL     1      39.175 -12.711  -0.895  1.00  0.00    -0.280 NA
HETATM   10  C   UNL     1      37.724 -12.479  -1.128  1.00  0.00     0.115 C 
HETATM   11  C   UNL     1      37.368 -12.641  -2.614  1.00  0.00     0.140 C 
HETATM   12  N   UNL     1      37.829 -13.920  -3.161  1.00  0.00    -0.350 N 
HETATM   13  C   UNL     1      37.194 -14.638  -4.160  1.00  0.00     0.219 C 
HETATM   14  C   UNL     1      39.245 -14.205  -2.888  1.00  0.00     0.140 C 
HETATM   15  O   UNL     1      37.745 -15.582  -4.734  1.00  0.00    -0.273 OA
HETATM   16  C   UNL     1      39.612 -14.033  -1.400  1.00  0.00     0.115 C 
BRANCH  13  17
HETATM   17  C   UNL     1      35.754 -14.302  -4.513  1.00  0.00     0.103 C 
BRANCH  17  18
HETATM   18  C   UNL     1      35.622 -13.714  -5.918  1.00  0.00     0.005 C 
HETATM   19  C   UNL     1      35.684 -12.195  -5.966  1.00  0.00     0.005 C 
ENDBRANCH  17  18
ENDBRANCH  13  17
ENDBRANCH   6   9
ENDBRANCH   1   3
BRANCH   1  20
HETATM   20  C   UNL     1      40.563 -12.632   5.475  1.00  0.00     0.179 C 
HETATM   21  S   UNL     1      39.531 -12.561   6.796  1.00  0.00    -0.040 SA
BRANCH  20  22
HETATM   22  N   UNL     1      41.346 -13.757   5.402  1.00  0.00    -0.298 N 
HETATM   23  C   UNL     1      42.680 -13.929   5.058  1.00  0.00     0.281 C 
HETATM   24  O   UNL     1      43.338 -13.090   4.449  1.00  0.00    -0.265 OA
HETATM   25  H   UNL     1      40.906 -14.575   5.810  1.00  0.00     0.171 HD
BRANCH  23  26
HETATM   26  C   UNL     1      43.166 -15.231   5.464  1.00  0.00     0.144 A 
HETATM   27  O   UNL     1      43.223 -16.208   4.506  1.00  0.00    -0.304 OA
HETATM   28  C   UNL     1      43.684 -17.353   5.085  1.00  0.00     0.086 A 
HETATM   29  C   UNL     1      43.935 -17.110   6.422  1.00  0.00     0.041 A 
HETATM   30  C   UNL     1      43.600 -15.749   6.665  1.00  0.00     0.046 A 
BRANCH  28  31
HETATM   31  C   UNL     1      43.799 -18.504   4.192  1.00  0.00    -0.002 A 
HETATM   32  C   UNL     1      44.605 -19.600   4.529  1.00  0.00     0.016 A 
HETATM   33  C   UNL     1      44.720 -20.698   3.666  1.00  0.00     0.024 A 
HETATM   34  C   UNL     1      44.027 -20.710   2.458  1.00  0.00     0.034 A 
HETATM   35 CL   UNL     1      44.173 -22.056   1.397  1.00  0.00    -0.084 Cl
HETATM   36  C   UNL     1      43.219 -19.635   2.104  1.00  0.00     0.024 A 
HETATM   37  C   UNL     1      43.107 -18.540   2.968  1.00  0.00     0.016 A 
ENDBRANCH  28  31
ENDBRANCH  23  26
ENDBRANCH  20  22
ENDBRANCH   1  20
TORSDOF 8
ENDMDL
MODEL 8
REMARK VINA RESULT:      -8.5      5.119      7.479
REMARK  8 active torsions:
REMARK  status: ('A' for Active; 'I' for Inactive)
REMARK    1  A    between atoms: C_2  and  C_3 
REMARK    2  A    between atoms: C_3  and  C_4 
REMARK       I    between atoms: C_4  and  N_5 
REMARK    3  A    between atoms: N_8  and  C_9 
REMARK    4  A    between atoms: C_12  and  N_13 
REMARK    5  A    between atoms: N_13  and  C_14 
REMARK    6  A    between atoms: C_14  and  N_15 
REMARK       I    between atoms: N_15  and  C_16 
REMARK    7  A    between atoms: C_16  and  C_17 
REMARK    8  A    between atoms: C_19  and  C_20 
ROOT
HETATM    1  N   UNL     1      41.747 -12.831   2.298  1.00  0.00    -0.333 N 
HETATM    2  H   UNL     1      42.706 -12.487   2.268  1.00  0.00     0.168 HD
ENDROOT
BRANCH   1   3
HETATM    3  C   UNL     1      41.094 -12.980   1.058  1.00  0.00     0.034 A 
HETATM    4  C   UNL     1      40.879 -11.907   0.200  1.00  0.00     0.031 A 
HETATM    5  C   UNL     1      40.151 -12.078  -0.978  1.00  0.00     0.026 A 
HETATM    6  C   UNL     1      39.592 -13.315  -1.330  1.00  0.00     0.010 A 
HETATM    7  C   UNL     1      39.925 -14.409  -0.518  1.00  0.00     0.026 A 
HETATM    8  C   UNL     1      40.681 -14.248   0.656  1.00  0.00     0.031 A 
BRANCH   6   9
HETATM    9  N   UNL     1      38.748 -13.389  -2.455  1.00  0.00    -0.280 NA
HETATM   10  C   UNL     1      37.815 -12.232  -2.527  1.00  0.00     0.115 C 
HETATM   11  C   UNL     1      37.089 -12.189  -3.880  1.00  0.00     0.140 C 
HETATM   12  N   UNL     1      36.436 -13.460  -4.203  1.00  0.00    -0.350 N 
HETATM   13  C   UNL     1      35.264 -13.596  -4.929  1.00  0.00     0.219 C 
HETATM   14  C   UNL     1      37.318 -14.628  -4.077  1.00  0.00     0.140 C 
HETATM   15  O   UNL     1      34.890 -14.689  -5.362  1.00  0.00    -0.273 OA
HETATM   16  C   UNL     1      38.059 -14.672  -2.726  1.00  0.00     0.115 C 
BRANCH  13  17
HETATM   17  C   UNL     1      34.378 -12.379  -5.140  1.00  0.00     0.103 C 
BRANCH  17  18
HETATM   18  C   UNL     1      33.633 -11.974  -3.869  1.00  0.00     0.005 C 
HETATM   19  C   UNL     1      32.181 -12.421  -3.827  1.00  0.00     0.005 C 
ENDBRANCH  17  18
ENDBRANCH  13  17
ENDBRANCH   6   9
ENDBRANCH   1   3
BRANCH   1  20
HETATM   20  C   UNL     1      41.360 -13.344   3.515  1.00  0.00     0.179 C 
HETATM   21  S   UNL     1      39.927 -13.094   4.351  1.00  0.00    -0.040 SA
BRANCH  20  22
HETATM   22  N   UNL     1      42.252 -14.192   4.122  1.00  0.00    -0.298 N 
HETATM   23  C   UNL     1      42.810 -14.182   5.393  1.00  0.00     0.281 C 
HETATM   24  O   UNL     1      42.819 -13.195   6.124  1.00  0.00    -0.265 OA
HETATM   25  H   UNL     1      42.412 -15.045   3.597  1.00  0.00     0.171 HD
BRANCH  23  26
HETATM   26  C   UNL     1      43.416 -15.458   5.714  1.00  0.00     0.144 A 
HETATM   27  O   UNL     1      43.412 -16.419   4.738  1.00  0.00    -0.304 OA
HETATM   28  C   UNL     1      44.005 -17.541   5.236  1.00  0.00     0.086 A 
HETATM   29  C   UNL     1      44.402 -17.298   6.538  1.00  0.00     0.041 A 
HETATM   30  C   UNL     1      44.021 -15.963   6.845  1.00  0.00     0.046 A 
BRANCH  28  31
HETATM   31  C   UNL     1      44.078 -18.673   4.314  1.00  0.00    -0.002 A 
HETATM   32  C   UNL     1      44.671 -19.882   4.703  1.00  0.00     0.016 A 
HETATM   33  C   UNL     1      44.747 -20.962   3.813  1.00  0.00     0.024 A 
HETATM   34  C   UNL     1      44.227 -20.842   2.527  1.00  0.00     0.034 A 
HETATM   35 CL   UNL     1      44.324 -22.167   1.435  1.00  0.00    -0.084 Cl
HETATM   36  C   UNL     1      43.631 -19.653   2.121  1.00  0.00     0.024 A 
HETATM   37  C   UNL     1      43.557 -18.577   3.011  1.00  0.00     0.016 A 
ENDBRANCH  28  31
ENDBRANCH  23  26
ENDBRANCH  20  22
ENDBRANCH   1  20
TORSDOF 8
ENDMDL
MODEL 9
REMARK VINA RESULT:      -7.9      4.874      6.169
REMARK  8 active torsions:
REMARK  status: ('A' for Active; 'I' for Inactive)
REMARK    1  A    between atoms: C_2  and  C_3 
REMARK    2  A    between atoms: C_3  and  C_4 
REMARK       I    between atoms: C_4  and  N_5 
REMARK    3  A    between atoms: N_8  and  C_9 
REMARK    4  A    between atoms: C_12  and  N_13 
REMARK    5  A    between atoms: N_13  and  C_14 
REMARK    6  A    between atoms: C_14  and  N_15 
REMARK       I    between atoms: N_15  and  C_16 
REMARK    7  A    between atoms: C_16  and  C_17 
REMARK    8  A    between atoms: C_19  and  C_20 
ROOT
HETATM    1  N   UNL     1      43.762 -19.161   1.328  1.00  0.00    -0.333 N 
HETATM    2  H   UNL     1      44.026 -19.484   0.397  1.00  0.00     0.168 HD
ENDROOT
BRANCH   1   3
HETATM    3  C   UNL     1      43.173 -17.883   1.404  1.00  0.00     0.034 A 
HETATM    4  C   UNL     1      41.874 -17.639   0.970  1.00  0.00     0.031 A 
HETATM    5  C   UNL     1      41.357 -16.343   0.980  1.00  0.00     0.026 A 
HETATM    6  C   UNL     1      42.121 -15.243   1.397  1.00  0.00     0.010 A 
HETATM    7  C   UNL     1      43.380 -15.526   1.947  1.00  0.00     0.026 A 
HETATM    8  C   UNL     1      43.897 -16.834   1.965  1.00  0.00     0.031 A 
BRANCH   6   9
HETATM    9  N   UNL     1      41.593 -13.946   1.247  1.00  0.00    -0.280 NA
HETATM   10  C   UNL     1      41.690 -13.467  -0.158  1.00  0.00     0.115 C 
HETATM   11  C   UNL     1      40.884 -12.174  -0.359  1.00  0.00     0.140 C 
HETATM   12  N   UNL     1      41.240 -11.138   0.616  1.00  0.00    -0.350 N 
HETATM   13  C   UNL     1      41.220  -9.775   0.377  1.00  0.00     0.219 C 
HETATM   14  C   UNL     1      41.216 -11.604   2.009  1.00  0.00     0.140 C 
HETATM   15  O   UNL     1      41.306  -8.953   1.293  1.00  0.00    -0.273 OA
HETATM   16  C   UNL     1      42.013 -12.907   2.216  1.00  0.00     0.115 C 
BRANCH  13  17
HETATM   17  C   UNL     1      41.161  -9.274  -1.058  1.00  0.00     0.103 C 
BRANCH  17  18
HETATM   18  C   UNL     1      42.503  -8.720  -1.535  1.00  0.00     0.005 C 
HETATM   19  C   UNL     1      43.593  -9.769  -1.688  1.00  0.00     0.005 C 
ENDBRANCH  17  18
ENDBRANCH  13  17
ENDBRANCH   6   9
ENDBRANCH   1   3
BRANCH   1  20
HETATM   20  C   UNL     1      43.778 -20.135   2.299  1.00  0.00     0.179 C 
HETATM   21  S   UNL     1      44.074 -21.778   2.133  1.00  0.00    -0.040 SA
BRANCH  20  22
HETATM   22  N   UNL     1      43.541 -19.709   3.582  1.00  0.00    -0.298 N 
HETATM   23  C   UNL     1      44.366 -19.647   4.697  1.00  0.00     0.281 C 
HETATM   24  O   UNL     1      45.422 -20.266   4.797  1.00  0.00    -0.265 OA
HETATM   25  H   UNL     1      42.654 -19.228   3.685  1.00  0.00     0.171 HD
BRANCH  23  26
HETATM   26  C   UNL     1      43.796 -18.805   5.729  1.00  0.00     0.144 A 
HETATM   27  O   UNL     1      43.241 -17.616   5.336  1.00  0.00    -0.304 OA
HETATM   28  C   UNL     1      42.781 -16.969   6.444  1.00  0.00     0.086 A 
HETATM   29  C   UNL     1      43.032 -17.749   7.556  1.00  0.00     0.041 A 
HETATM   30  C   UNL     1      43.686 -18.926   7.098  1.00  0.00     0.046 A 
BRANCH  28  31
HETATM   31  C   UNL     1      42.159 -15.669   6.196  1.00  0.00    -0.002 A 
HETATM   32  C   UNL     1      40.768 -15.548   6.071  1.00  0.00     0.016 A 
HETATM   33  C   UNL     1      40.176 -14.302   5.824  1.00  0.00     0.024 A 
HETATM   34  C   UNL     1      40.971 -13.166   5.704  1.00  0.00     0.034 A 
HETATM   35 CL   UNL     1      40.244 -11.637   5.398  1.00  0.00    -0.084 Cl
HETATM   36  C   UNL     1      42.353 -13.261   5.829  1.00  0.00     0.024 A 
HETATM   37  C   UNL     1      42.941 -14.506   6.074  1.00  0.00     0.016 A 
ENDBRANCH  28  31
ENDBRANCH  23  26
ENDBRANCH  20  22
ENDBRANCH   1  20
TORSDOF 8
ENDMDL
MODEL 10
REMARK VINA RESULT:      -7.9      4.318     10.944
REMARK  8 active torsions:
REMARK  status: ('A' for Active; 'I' for Inactive)
REMARK    1  A    between atoms: C_2  and  C_3 
REMARK    2  A    between atoms: C_3  and  C_4 
REMARK       I    between atoms: C_4  and  N_5 
REMARK    3  A    between atoms: N_8  and  C_9 
REMARK    4  A    between atoms: C_12  and  N_13 
REMARK    5  A    between atoms: N_13  and  C_14 
REMARK    6  A    between atoms: C_14  and  N_15 
REMARK       I    between atoms: N_15  and  C_16 
REMARK    7  A    between atoms: C_16  and  C_17 
REMARK    8  A    between atoms: C_19  and  C_20 
ROOT
HETATM    1  N   UNL     1      39.002 -11.410   2.441  1.00  0.00    -0.333 N 
HETATM    2  H   UNL     1      37.997 -11.427   2.268  1.00  0.00     0.168 HD
ENDROOT
BRANCH   1   3
HETATM    3  C   UNL     1      39.404 -11.252   3.782  1.00  0.00     0.034 A 
HETATM    4  C   UNL     1      39.167 -12.226   4.746  1.00  0.00     0.031 A 
HETATM    5  C   UNL     1      39.502 -11.996   6.081  1.00  0.00     0.026 A 
HETATM    6  C   UNL     1      40.058 -10.781   6.507  1.00  0.00     0.010 A 
HETATM    7  C   UNL     1      40.404  -9.863   5.504  1.00  0.00     0.026 A 
HETATM    8  C   UNL     1      40.095 -10.101   4.153  1.00  0.00     0.031 A 
BRANCH   6   9
HETATM    9  N   UNL     1      40.238 -10.556   7.886  1.00  0.00    -0.280 NA
HETATM   10  C   UNL     1      41.652 -10.758   8.302  1.00  0.00     0.115 C 
HETATM   11  C   UNL     1      41.883 -10.261   9.738  1.00  0.00     0.140 C 
HETATM   12  N   UNL     1      40.928 -10.839  10.688  1.00  0.00    -0.350 N 
HETATM   13  C   UNL     1      41.195 -11.124  12.016  1.00  0.00     0.219 C 
HETATM   14  C   UNL     1      39.526 -10.712  10.268  1.00  0.00     0.140 C 
HETATM   15  O   UNL     1      40.295 -11.391  12.817  1.00  0.00    -0.273 OA
HETATM   16  C   UNL     1      39.288 -11.197   8.825  1.00  0.00     0.115 C 
BRANCH  13  17
HETATM   17  C   UNL     1      42.640 -11.179  12.487  1.00  0.00     0.103 C 
BRANCH  17  18
HETATM   18  C   UNL     1      42.834 -10.510  13.847  1.00  0.00     0.005 C 
HETATM   19  C   UNL     1      43.259  -9.052  13.771  1.00  0.00     0.005 C 
ENDBRANCH  17  18
ENDBRANCH  13  17
ENDBRANCH   6   9
ENDBRANCH   1   3
BRANCH   1  20
HETATM   20  C   UNL     1      39.774 -11.815   1.378  1.00  0.00     0.179 C 
HETATM   21  S   UNL     1      40.346 -10.906   0.089  1.00  0.00    -0.040 SA
BRANCH  20  22
HETATM   22  N   UNL     1      40.150 -13.136   1.374  1.00  0.00    -0.298 N 
HETATM   23  C   UNL     1      39.801 -14.188   0.538  1.00  0.00     0.281 C 
HETATM   24  O   UNL     1      38.821 -14.172  -0.202  1.00  0.00    -0.265 OA
HETATM   25  H   UNL     1      40.922 -13.332   2.002  1.00  0.00     0.171 HD
BRANCH  23  26
HETATM   26  C   UNL     1      40.707 -15.307   0.693  1.00  0.00     0.144 A 
HETATM   27  O   UNL     1      40.998 -15.709   1.969  1.00  0.00    -0.304 OA
HETATM   28  C   UNL     1      41.872 -16.753   1.903  1.00  0.00     0.086 A 
HETATM   29  C   UNL     1      42.140 -17.031   0.576  1.00  0.00     0.041 A 
HETATM   30  C   UNL     1      41.394 -16.102  -0.200  1.00  0.00     0.046 A 
BRANCH  28  31
HETATM   31  C   UNL     1      42.292 -17.300   3.192  1.00  0.00    -0.002 A 
HETATM   32  C   UNL     1      41.422 -17.305   4.291  1.00  0.00     0.016 A 
HETATM   33  C   UNL     1      41.831 -17.822   5.527  1.00  0.00     0.024 A 
HETATM   34  C   UNL     1      43.114 -18.342   5.674  1.00  0.00     0.034 A 
HETATM   35 CL   UNL     1      43.617 -18.973   7.193  1.00  0.00    -0.084 Cl
HETATM   36  C   UNL     1      43.993 -18.351   4.597  1.00  0.00     0.024 A 
HETATM   37  C   UNL     1      43.582 -17.834   3.364  1.00  0.00     0.016 A 
ENDBRANCH  28  31
ENDBRANCH  23  26
ENDBRANCH  20  22
ENDBRANCH   1  20
TORSDOF 8
ENDMDL
