MODEL 1
REMARK VINA RESULT:      -7.8      0.000      0.000
REMARK  6 active torsions:
REMARK  status: ('A' for Active; 'I' for Inactive)
REMARK    1  A    between atoms: C_2  and  O_3 
REMARK    2  A    between atoms: O_3  and  C_4 
REMARK    3  A    between atoms: C_11  and  C_12 
REMARK    4  A    between atoms: C_12  and  N_13 
REMARK    5  A    between atoms: N_13  and  C_14 
REMARK    6  A    between atoms: C_17  and  O_18 
ROOT
HETATM    1  C   UNL     1      44.600 -21.240   4.618  1.00  0.00     0.069 A 
HETATM    2  C   UNL     1      44.732 -19.849   4.589  1.00  0.00     0.050 A 
HETATM    3  C   UNL     1      44.404 -19.091   5.719  1.00  0.00    -0.006 A 
HETATM    4  C   UNL     1      43.947 -19.730   6.876  1.00  0.00     0.045 A 
HETATM    5  N   UNL     1      43.625 -18.962   8.001  1.00  0.00    -0.322 N 
HETATM    6  C   UNL     1      43.737 -17.597   8.047  1.00  0.00     0.253 A 
HETATM    7  O   UNL     1      43.456 -16.971   9.065  1.00  0.00    -0.268 OA
HETATM    8  C   UNL     1      44.213 -16.911   6.811  1.00  0.00     0.024 A 
HETATM    9  C   UNL     1      44.520 -17.633   5.718  1.00  0.00     0.027 A 
HETATM   10  C   UNL     1      43.812 -21.115   6.915  1.00  0.00     0.033 A 
HETATM   11  C   UNL     1      44.138 -21.863   5.782  1.00  0.00     0.039 A 
HETATM   12  H   UNL     1      43.302 -19.408   8.849  1.00  0.00     0.169 HD
ENDROOT
BRANCH   8  13
HETATM   13  C   UNL     1      44.274 -15.412   6.844  1.00  0.00     0.136 C 
BRANCH  13  14
HETATM   14  N   UNL     1      42.960 -14.887   6.486  1.00  0.00    -0.289 NA
HETATM   15  H   UNL     1      42.245 -15.272   7.104  1.00  0.00     0.128 HD
BRANCH  14  16
HETATM   16  C   UNL     1      42.536 -14.956   5.151  1.00  0.00     0.008 A 
HETATM   17  C   UNL     1      43.337 -14.366   4.165  1.00  0.00     0.026 A 
HETATM   18  C   UNL     1      43.013 -14.470   2.807  1.00  0.00     0.038 A 
HETATM   19  C   UNL     1      41.899 -15.199   2.396  1.00  0.00     0.068 A 
HETATM   20  C   UNL     1      41.115 -15.824   3.361  1.00  0.00     0.038 A 
HETATM   21  C   UNL     1      41.441 -15.713   4.721  1.00  0.00     0.026 A 
BRANCH  19  22
HETATM   22  O   UNL     1      41.697 -15.231   1.045  1.00  0.00    -0.356 OA
HETATM   23  C   UNL     1      41.617 -16.516   0.441  1.00  0.00     0.210 C 
ENDBRANCH  19  22
ENDBRANCH  14  16
ENDBRANCH  13  14
ENDBRANCH   8  13
BRANCH   1  24
HETATM   24  O   UNL     1      44.881 -22.095   3.588  1.00  0.00    -0.351 OA
BRANCH  24  25
HETATM   25  C   UNL     1      44.843 -21.559   2.266  1.00  0.00     0.171 C 
HETATM   26  C   UNL     1      43.466 -21.830   1.689  1.00  0.00     0.034 C 
ENDBRANCH  24  25
ENDBRANCH   1  24
TORSDOF 6
ENDMDL
MODEL 2
REMARK VINA RESULT:      -7.2      2.918      3.888
REMARK  6 active torsions:
REMARK  status: ('A' for Active; 'I' for Inactive)
REMARK    1  A    between atoms: C_2  and  O_3 
REMARK    2  A    between atoms: O_3  and  C_4 
REMARK    3  A    between atoms: C_11  and  C_12 
REMARK    4  A    between atoms: C_12  and  N_13 
REMARK    5  A    between atoms: N_13  and  C_14 
REMARK    6  A    between atoms: C_17  and  O_18 
ROOT
HETATM    1  C   UNL     1      44.234 -19.629   3.706  1.00  0.00     0.069 A 
HETATM    2  C   UNL     1      43.445 -18.626   3.138  1.00  0.00     0.050 A 
HETATM    3  C   UNL     1      42.690 -17.780   3.958  1.00  0.00    -0.006 A 
HETATM    4  C   UNL     1      42.731 -17.940   5.347  1.00  0.00     0.045 A 
HETATM    5  N   UNL     1      41.975 -17.086   6.158  1.00  0.00    -0.322 N 
HETATM    6  C   UNL     1      41.186 -16.077   5.671  1.00  0.00     0.253 A 
HETATM    7  O   UNL     1      40.554 -15.344   6.427  1.00  0.00    -0.268 OA
HETATM    8  C   UNL     1      41.131 -15.910   4.190  1.00  0.00     0.024 A 
HETATM    9  C   UNL     1      41.845 -16.728   3.395  1.00  0.00     0.027 A 
HETATM   10  C   UNL     1      43.514 -18.936   5.922  1.00  0.00     0.033 A 
HETATM   11  C   UNL     1      44.262 -19.779   5.096  1.00  0.00     0.039 A 
HETATM   12  H   UNL     1      42.001 -17.181   7.164  1.00  0.00     0.169 HD
ENDROOT
BRANCH   8  13
HETATM   13  C   UNL     1      40.217 -14.846   3.658  1.00  0.00     0.136 C 
BRANCH  13  14
HETATM   14  N   UNL     1      39.354 -15.441   2.642  1.00  0.00    -0.289 NA
HETATM   15  H   UNL     1      39.586 -16.428   2.516  1.00  0.00     0.128 HD
BRANCH  14  16
HETATM   16  C   UNL     1      39.223 -14.810   1.398  1.00  0.00     0.008 A 
HETATM   17  C   UNL     1      40.305 -14.858   0.508  1.00  0.00     0.026 A 
HETATM   18  C   UNL     1      40.211 -14.321  -0.780  1.00  0.00     0.038 A 
HETATM   19  C   UNL     1      39.021 -13.753  -1.228  1.00  0.00     0.068 A 
HETATM   20  C   UNL     1      37.924 -13.732  -0.372  1.00  0.00     0.038 A 
HETATM   21  C   UNL     1      38.025 -14.269   0.922  1.00  0.00     0.026 A 
BRANCH  19  22
HETATM   22  O   UNL     1      39.055 -13.272  -2.507  1.00  0.00    -0.356 OA
HETATM   23  C   UNL     1      39.754 -14.054  -3.467  1.00  0.00     0.210 C 
ENDBRANCH  19  22
ENDBRANCH  14  16
ENDBRANCH  13  14
ENDBRANCH   8  13
BRANCH   1  24
HETATM   24  O   UNL     1      45.013 -20.522   3.022  1.00  0.00    -0.351 OA
BRANCH  24  25
HETATM   25  C   UNL     1      44.489 -21.836   2.834  1.00  0.00     0.171 C 
HETATM   26  C   UNL     1      43.980 -21.939   1.408  1.00  0.00     0.034 C 
ENDBRANCH  24  25
ENDBRANCH   1  24
TORSDOF 6
ENDMDL
MODEL 3
REMARK VINA RESULT:      -7.2      3.963      6.224
REMARK  6 active torsions:
REMARK  status: ('A' for Active; 'I' for Inactive)
REMARK    1  A    between atoms: C_2  and  O_3 
REMARK    2  A    between atoms: O_3  and  C_4 
REMARK    3  A    between atoms: C_11  and  C_12 
REMARK    4  A    between atoms: C_12  and  N_13 
REMARK    5  A    between atoms: N_13  and  C_14 
REMARK    6  A    between atoms: C_17  and  O_18 
ROOT
HETATM    1  C   UNL     1      43.411 -18.840   3.607  1.00  0.00     0.069 A 
HETATM    2  C   UNL     1      43.473 -18.050   2.457  1.00  0.00     0.050 A 
HETATM    3  C   UNL     1      42.591 -16.975   2.296  1.00  0.00    -0.006 A 
HETATM    4  C   UNL     1      41.650 -16.694   3.293  1.00  0.00     0.045 A 
HETATM    5  N   UNL     1      40.775 -15.615   3.123  1.00  0.00    -0.322 N 
HETATM    6  C   UNL     1      40.784 -14.794   2.026  1.00  0.00     0.253 A 
HETATM    7  O   UNL     1      40.004 -13.849   1.934  1.00  0.00    -0.268 OA
HETATM    8  C   UNL     1      41.778 -15.097   0.956  1.00  0.00     0.024 A 
HETATM    9  C   UNL     1      42.622 -16.136   1.099  1.00  0.00     0.027 A 
HETATM   10  C   UNL     1      41.581 -17.475   4.442  1.00  0.00     0.033 A 
HETATM   11  C   UNL     1      42.463 -18.548   4.593  1.00  0.00     0.039 A 
HETATM   12  H   UNL     1      40.095 -15.391   3.838  1.00  0.00     0.169 HD
ENDROOT
BRANCH   8  13
HETATM   13  C   UNL     1      41.742 -14.236  -0.271  1.00  0.00     0.136 C 
BRANCH  13  14
HETATM   14  N   UNL     1      41.563 -15.097  -1.436  1.00  0.00    -0.289 NA
HETATM   15  H   UNL     1      42.374 -15.031  -2.052  1.00  0.00     0.128 HD
BRANCH  14  16
HETATM   16  C   UNL     1      40.379 -15.004  -2.181  1.00  0.00     0.008 A 
HETATM   17  C   UNL     1      40.203 -15.873  -3.266  1.00  0.00     0.026 A 
HETATM   18  C   UNL     1      39.011 -15.889  -3.999  1.00  0.00     0.038 A 
HETATM   19  C   UNL     1      37.948 -15.062  -3.644  1.00  0.00     0.068 A 
HETATM   20  C   UNL     1      38.091 -14.220  -2.545  1.00  0.00     0.038 A 
HETATM   21  C   UNL     1      39.291 -14.205  -1.816  1.00  0.00     0.026 A 
BRANCH  19  22
HETATM   22  O   UNL     1      36.838 -15.178  -4.433  1.00  0.00    -0.356 OA
HETATM   23  C   UNL     1      36.172 -13.971  -4.782  1.00  0.00     0.210 C 
ENDBRANCH  19  22
ENDBRANCH  14  16
ENDBRANCH  13  14
ENDBRANCH   8  13
BRANCH   1  24
HETATM   24  O   UNL     1      44.208 -19.917   3.886  1.00  0.00    -0.351 OA
BRANCH  24  25
HETATM   25  C   UNL     1      44.856 -20.551   2.785  1.00  0.00     0.171 C 
HETATM   26  C   UNL     1      44.203 -21.904   2.572  1.00  0.00     0.034 C 
ENDBRANCH  24  25
ENDBRANCH   1  24
TORSDOF 6
ENDMDL
MODEL 4
REMARK VINA RESULT:      -7.1      4.229      6.089
REMARK  6 active torsions:
REMARK  status: ('A' for Active; 'I' for Inactive)
REMARK    1  A    between atoms: C_2  and  O_3 
REMARK    2  A    between atoms: O_3  and  C_4 
REMARK    3  A    between atoms: C_11  and  C_12 
REMARK    4  A    between atoms: C_12  and  N_13 
REMARK    5  A    between atoms: N_13  and  C_14 
REMARK    6  A    between atoms: C_17  and  O_18 
ROOT
HETATM    1  C   UNL     1      43.917 -19.117   2.961  1.00  0.00     0.069 A 
HETATM    2  C   UNL     1      43.560 -18.351   1.848  1.00  0.00     0.050 A 
HETATM    3  C   UNL     1      42.498 -17.443   1.935  1.00  0.00    -0.006 A 
HETATM    4  C   UNL     1      41.798 -17.305   3.138  1.00  0.00     0.045 A 
HETATM    5  N   UNL     1      40.740 -16.392   3.214  1.00  0.00    -0.322 N 
HETATM    6  C   UNL     1      40.340 -15.603   2.168  1.00  0.00     0.253 A 
HETATM    7  O   UNL     1      39.415 -14.805   2.291  1.00  0.00    -0.268 OA
HETATM    8  C   UNL     1      41.077 -15.755   0.879  1.00  0.00     0.024 A 
HETATM    9  C   UNL     1      42.092 -16.635   0.787  1.00  0.00     0.027 A 
HETATM   10  C   UNL     1      42.146 -18.064   4.252  1.00  0.00     0.033 A 
HETATM   11  C   UNL     1      43.205 -18.970   4.155  1.00  0.00     0.039 A 
HETATM   12  H   UNL     1      40.230 -16.272   4.079  1.00  0.00     0.169 HD
ENDROOT
BRANCH   8  13
HETATM   13  C   UNL     1      40.596 -14.937  -0.282  1.00  0.00     0.136 C 
BRANCH  13  14
HETATM   14  N   UNL     1      41.699 -14.774  -1.223  1.00  0.00    -0.289 NA
HETATM   15  H   UNL     1      42.578 -15.062  -0.790  1.00  0.00     0.128 HD
BRANCH  14  16
HETATM   16  C   UNL     1      41.862 -13.549  -1.884  1.00  0.00     0.008 A 
HETATM   17  C   UNL     1      42.497 -12.502  -1.202  1.00  0.00     0.026 A 
HETATM   18  C   UNL     1      42.764 -11.281  -1.831  1.00  0.00     0.038 A 
HETATM   19  C   UNL     1      42.438 -11.086  -3.171  1.00  0.00     0.068 A 
HETATM   20  C   UNL     1      41.843 -12.129  -3.875  1.00  0.00     0.038 A 
HETATM   21  C   UNL     1      41.572 -13.350  -3.237  1.00  0.00     0.026 A 
BRANCH  19  22
HETATM   22  O   UNL     1      42.759  -9.855  -3.670  1.00  0.00    -0.356 OA
HETATM   23  C   UNL     1      42.416  -9.605  -5.027  1.00  0.00     0.210 C 
ENDBRANCH  19  22
ENDBRANCH  14  16
ENDBRANCH  13  14
ENDBRANCH   8  13
BRANCH   1  24
HETATM   24  O   UNL     1      44.927 -20.039   3.010  1.00  0.00    -0.351 OA
BRANCH  24  25
HETATM   25  C   UNL     1      44.554 -21.411   3.130  1.00  0.00     0.171 C 
HETATM   26  C   UNL     1      44.174 -21.917   1.751  1.00  0.00     0.034 C 
ENDBRANCH  24  25
ENDBRANCH   1  24
TORSDOF 6
ENDMDL
MODEL 5
REMARK VINA RESULT:      -6.9      2.996      7.465
REMARK  6 active torsions:
REMARK  status: ('A' for Active; 'I' for Inactive)
REMARK    1  A    between atoms: C_2  and  O_3 
REMARK    2  A    between atoms: O_3  and  C_4 
REMARK    3  A    between atoms: C_11  and  C_12 
REMARK    4  A    between atoms: C_12  and  N_13 
REMARK    5  A    between atoms: N_13  and  C_14 
REMARK    6  A    between atoms: C_17  and  O_18 
ROOT
HETATM    1  C   UNL     1      39.266 -14.057  -0.963  1.00  0.00     0.069 A 
HETATM    2  C   UNL     1      40.497 -14.371  -0.382  1.00  0.00     0.050 A 
HETATM    3  C   UNL     1      40.580 -14.612   0.994  1.00  0.00    -0.006 A 
HETATM    4  C   UNL     1      39.427 -14.540   1.784  1.00  0.00     0.045 A 
HETATM    5  N   UNL     1      39.522 -14.786   3.158  1.00  0.00    -0.322 N 
HETATM    6  C   UNL     1      40.693 -15.107   3.794  1.00  0.00     0.253 A 
HETATM    7  O   UNL     1      40.719 -15.330   5.001  1.00  0.00    -0.268 OA
HETATM    8  C   UNL     1      41.926 -15.174   2.958  1.00  0.00     0.024 A 
HETATM    9  C   UNL     1      41.854 -14.933   1.635  1.00  0.00     0.027 A 
HETATM   10  C   UNL     1      38.197 -14.228   1.214  1.00  0.00     0.033 A 
HETATM   11  C   UNL     1      38.123 -13.985  -0.160  1.00  0.00     0.039 A 
HETATM   12  H   UNL     1      38.698 -14.748   3.742  1.00  0.00     0.169 HD
ENDROOT
BRANCH   8  13
HETATM   13  C   UNL     1      43.216 -15.463   3.667  1.00  0.00     0.136 C 
BRANCH  13  14
HETATM   14  N   UNL     1      43.072 -16.719   4.397  1.00  0.00    -0.289 NA
HETATM   15  H   UNL     1      43.470 -16.631   5.333  1.00  0.00     0.128 HD
BRANCH  14  16
HETATM   16  C   UNL     1      43.499 -17.912   3.798  1.00  0.00     0.008 A 
HETATM   17  C   UNL     1      44.151 -18.863   4.594  1.00  0.00     0.026 A 
HETATM   18  C   UNL     1      44.528 -20.108   4.079  1.00  0.00     0.038 A 
HETATM   19  C   UNL     1      44.230 -20.451   2.762  1.00  0.00     0.068 A 
HETATM   20  C   UNL     1      43.548 -19.534   1.968  1.00  0.00     0.038 A 
HETATM   21  C   UNL     1      43.176 -18.285   2.489  1.00  0.00     0.026 A 
BRANCH  19  22
HETATM   22  O   UNL     1      44.644 -21.697   2.382  1.00  0.00    -0.356 OA
HETATM   23  C   UNL     1      44.690 -22.693   3.395  1.00  0.00     0.210 C 
ENDBRANCH  19  22
ENDBRANCH  14  16
ENDBRANCH  13  14
ENDBRANCH   8  13
BRANCH   1  24
HETATM   24  O   UNL     1      39.047 -13.796  -2.289  1.00  0.00    -0.351 OA
BRANCH  24  25
HETATM   25  C   UNL     1      39.522 -14.757  -3.230  1.00  0.00     0.171 C 
HETATM   26  C   UNL     1      38.318 -15.410  -3.884  1.00  0.00     0.034 C 
ENDBRANCH  24  25
ENDBRANCH   1  24
TORSDOF 6
ENDMDL
MODEL 6
REMARK VINA RESULT:      -6.9      2.992      5.318
REMARK  6 active torsions:
REMARK  status: ('A' for Active; 'I' for Inactive)
REMARK    1  A    between atoms: C_2  and  O_3 
REMARK    2  A    between atoms: O_3  and  C_4 
REMARK    3  A    between atoms: C_11  and  C_12 
REMARK    4  A    between atoms: C_12  and  N_13 
REMARK    5  A    between atoms: N_13  and  C_14 
REMARK    6  A    between atoms: C_17  and  O_18 
ROOT
HETATM    1  C   UNL     1      43.638 -19.126   3.646  1.00  0.00     0.069 A 
HETATM    2  C   UNL     1      42.471 -18.369   3.778  1.00  0.00     0.050 A 
HETATM    3  C   UNL     1      42.033 -17.567   2.718  1.00  0.00    -0.006 A 
HETATM    4  C   UNL     1      42.765 -17.529   1.526  1.00  0.00     0.045 A 
HETATM    5  N   UNL     1      42.316 -16.726   0.472  1.00  0.00    -0.322 N 
HETATM    6  C   UNL     1      41.178 -15.965   0.527  1.00  0.00     0.253 A 
HETATM    7  O   UNL     1      40.819 -15.289  -0.433  1.00  0.00    -0.268 OA
HETATM    8  C   UNL     1      40.400 -15.994   1.800  1.00  0.00     0.024 A 
HETATM    9  C   UNL     1      40.822 -16.755   2.827  1.00  0.00     0.027 A 
HETATM   10  C   UNL     1      43.929 -18.279   1.386  1.00  0.00     0.033 A 
HETATM   11  C   UNL     1      44.361 -19.074   2.450  1.00  0.00     0.039 A 
HETATM   12  H   UNL     1      42.828 -16.694  -0.399  1.00  0.00     0.169 HD
ENDROOT
BRANCH   8  13
HETATM   13  C   UNL     1      39.191 -15.111   1.880  1.00  0.00     0.136 C 
BRANCH  13  14
HETATM   14  N   UNL     1      39.632 -13.741   2.124  1.00  0.00    -0.289 NA
HETATM   15  H   UNL     1      39.981 -13.323   1.260  1.00  0.00     0.128 HD
BRANCH  14  16
HETATM   16  C   UNL     1      40.518 -13.485   3.179  1.00  0.00     0.008 A 
HETATM   17  C   UNL     1      40.049 -13.619   4.492  1.00  0.00     0.026 A 
HETATM   18  C   UNL     1      40.902 -13.458   5.590  1.00  0.00     0.038 A 
HETATM   19  C   UNL     1      42.257 -13.196   5.403  1.00  0.00     0.068 A 
HETATM   20  C   UNL     1      42.749 -13.099   4.105  1.00  0.00     0.038 A 
HETATM   21  C   UNL     1      41.887 -13.256   3.007  1.00  0.00     0.026 A 
BRANCH  19  22
HETATM   22  O   UNL     1      42.985 -13.069   6.553  1.00  0.00    -0.356 OA
HETATM   23  C   UNL     1      44.163 -13.858   6.656  1.00  0.00     0.210 C 
ENDBRANCH  19  22
ENDBRANCH  14  16
ENDBRANCH  13  14
ENDBRANCH   8  13
BRANCH   1  24
HETATM   24  O   UNL     1      44.176 -19.945   4.602  1.00  0.00    -0.351 OA
BRANCH  24  25
HETATM   25  C   UNL     1      45.000 -21.019   4.152  1.00  0.00     0.171 C 
HETATM   26  C   UNL     1      44.850 -22.168   5.130  1.00  0.00     0.034 C 
ENDBRANCH  24  25
ENDBRANCH   1  24
TORSDOF 6
ENDMDL
MODEL 7
REMARK VINA RESULT:      -6.8      3.690      5.939
REMARK  6 active torsions:
REMARK  status: ('A' for Active; 'I' for Inactive)
REMARK    1  A    between atoms: C_2  and  O_3 
REMARK    2  A    between atoms: O_3  and  C_4 
REMARK    3  A    between atoms: C_11  and  C_12 
REMARK    4  A    between atoms: C_12  and  N_13 
REMARK    5  A    between atoms: N_13  and  C_14 
REMARK    6  A    between atoms: C_17  and  O_18 
ROOT
HETATM    1  C   UNL     1      43.605 -18.847   3.303  1.00  0.00     0.069 A 
HETATM    2  C   UNL     1      42.395 -18.170   3.477  1.00  0.00     0.050 A 
HETATM    3  C   UNL     1      41.919 -17.319   2.473  1.00  0.00    -0.006 A 
HETATM    4  C   UNL     1      42.656 -17.151   1.296  1.00  0.00     0.045 A 
HETATM    5  N   UNL     1      42.169 -16.300   0.298  1.00  0.00    -0.322 N 
HETATM    6  C   UNL     1      40.988 -15.611   0.395  1.00  0.00     0.253 A 
HETATM    7  O   UNL     1      40.597 -14.888  -0.517  1.00  0.00    -0.268 OA
HETATM    8  C   UNL     1      40.204 -15.778   1.654  1.00  0.00     0.024 A 
HETATM    9  C   UNL     1      40.662 -16.587   2.627  1.00  0.00     0.027 A 
HETATM   10  C   UNL     1      43.862 -17.821   1.114  1.00  0.00     0.033 A 
HETATM   11  C   UNL     1      44.332 -18.666   2.123  1.00  0.00     0.039 A 
HETATM   12  H   UNL     1      42.684 -16.174  -0.563  1.00  0.00     0.169 HD
ENDROOT
BRANCH   8  13
HETATM   13  C   UNL     1      38.945 -14.974   1.784  1.00  0.00     0.136 C 
BRANCH  13  14
HETATM   14  N   UNL     1      39.301 -13.559   1.828  1.00  0.00    -0.289 NA
HETATM   15  H   UNL     1      40.147 -13.391   1.282  1.00  0.00     0.128 HD
BRANCH  14  16
HETATM   16  C   UNL     1      39.388 -12.913   3.070  1.00  0.00     0.008 A 
HETATM   17  C   UNL     1      38.756 -11.672   3.221  1.00  0.00     0.026 A 
HETATM   18  C   UNL     1      38.733 -11.013   4.455  1.00  0.00     0.038 A 
HETATM   19  C   UNL     1      39.310 -11.596   5.582  1.00  0.00     0.068 A 
HETATM   20  C   UNL     1      39.907 -12.847   5.458  1.00  0.00     0.038 A 
HETATM   21  C   UNL     1      39.931 -13.501   4.216  1.00  0.00     0.026 A 
BRANCH  19  22
HETATM   22  O   UNL     1      39.214 -10.857   6.728  1.00  0.00    -0.356 OA
HETATM   23  C   UNL     1      39.391 -11.552   7.955  1.00  0.00     0.210 C 
ENDBRANCH  19  22
ENDBRANCH  14  16
ENDBRANCH  13  14
ENDBRANCH   8  13
BRANCH   1  24
HETATM   24  O   UNL     1      44.183 -19.701   4.202  1.00  0.00    -0.351 OA
BRANCH  24  25
HETATM   25  C   UNL     1      44.707 -20.927   3.694  1.00  0.00     0.171 C 
HETATM   26  C   UNL     1      44.968 -21.850   4.869  1.00  0.00     0.034 C 
ENDBRANCH  24  25
ENDBRANCH   1  24
TORSDOF 6
ENDMDL
MODEL 8
REMARK VINA RESULT:      -6.7      3.082      4.509
REMARK  6 active torsions:
REMARK  status: ('A' for Active; 'I' for Inactive)
REMARK    1  A    between atoms: C_2  and  O_3 
REMARK    2  A    between atoms: O_3  and  C_4 
REMARK    3  A    between atoms: C_11  and  C_12 
REMARK    4  A    between atoms: C_12  and  N_13 
REMARK    5  A    between atoms: N_13  and  C_14 
REMARK    6  A    between atoms: C_17  and  O_18 
ROOT
HETATM    1  C   UNL     1      44.130 -19.627   2.943  1.00  0.00     0.069 A 
HETATM    2  C   UNL     1      43.131 -18.978   2.213  1.00  0.00     0.050 A 
HETATM    3  C   UNL     1      42.400 -17.937   2.797  1.00  0.00    -0.006 A 
HETATM    4  C   UNL     1      42.675 -17.547   4.112  1.00  0.00     0.045 A 
HETATM    5  N   UNL     1      41.941 -16.503   4.685  1.00  0.00    -0.322 N 
HETATM    6  C   UNL     1      40.953 -15.818   4.026  1.00  0.00     0.253 A 
HETATM    7  O   UNL     1      40.348 -14.898   4.570  1.00  0.00    -0.268 OA
HETATM    8  C   UNL     1      40.649 -16.238   2.628  1.00  0.00     0.024 A 
HETATM    9  C   UNL     1      41.341 -17.246   2.064  1.00  0.00     0.027 A 
HETATM   10  C   UNL     1      43.669 -18.187   4.847  1.00  0.00     0.033 A 
HETATM   11  C   UNL     1      44.391 -19.227   4.257  1.00  0.00     0.039 A 
HETATM   12  H   UNL     1      42.133 -16.202   5.630  1.00  0.00     0.169 HD
ENDROOT
BRANCH   8  13
HETATM   13  C   UNL     1      39.525 -15.529   1.933  1.00  0.00     0.136 C 
BRANCH  13  14
HETATM   14  N   UNL     1      39.825 -14.101   1.905  1.00  0.00    -0.289 NA
HETATM   15  H   UNL     1      38.987 -13.559   2.123  1.00  0.00     0.128 HD
BRANCH  14  16
HETATM   16  C   UNL     1      40.476 -13.559   0.788  1.00  0.00     0.008 A 
HETATM   17  C   UNL     1      41.442 -12.565   0.995  1.00  0.00     0.026 A 
HETATM   18  C   UNL     1      42.187 -12.042  -0.068  1.00  0.00     0.038 A 
HETATM   19  C   UNL     1      42.011 -12.525  -1.363  1.00  0.00     0.068 A 
HETATM   20  C   UNL     1      41.084 -13.539  -1.581  1.00  0.00     0.038 A 
HETATM   21  C   UNL     1      40.336 -14.057  -0.512  1.00  0.00     0.026 A 
BRANCH  19  22
HETATM   22  O   UNL     1      42.804 -11.938  -2.310  1.00  0.00    -0.356 OA
HETATM   23  C   UNL     1      42.355 -12.015  -3.657  1.00  0.00     0.210 C 
ENDBRANCH  19  22
ENDBRANCH  14  16
ENDBRANCH  13  14
ENDBRANCH   8  13
BRANCH   1  24
HETATM   24  O   UNL     1      44.912 -20.656   2.495  1.00  0.00    -0.351 OA
BRANCH  24  25
HETATM   25  C   UNL     1      44.297 -21.937   2.370  1.00  0.00     0.171 C 
HETATM   26  C   UNL     1      44.615 -22.735   3.620  1.00  0.00     0.034 C 
ENDBRANCH  24  25
ENDBRANCH   1  24
TORSDOF 6
ENDMDL
MODEL 9
REMARK VINA RESULT:      -6.6      3.299      5.088
REMARK  6 active torsions:
REMARK  status: ('A' for Active; 'I' for Inactive)
REMARK    1  A    between atoms: C_2  and  O_3 
REMARK    2  A    between atoms: O_3  and  C_4 
REMARK    3  A    between atoms: C_11  and  C_12 
REMARK    4  A    between atoms: C_12  and  N_13 
REMARK    5  A    between atoms: N_13  and  C_14 
REMARK    6  A    between atoms: C_17  and  O_18 
ROOT
HETATM    1  C   UNL     1      44.667 -20.140   3.931  1.00  0.00     0.069 A 
HETATM    2  C   UNL     1      44.326 -18.805   4.165  1.00  0.00     0.050 A 
HETATM    3  C   UNL     1      43.582 -18.096   3.215  1.00  0.00    -0.006 A 
HETATM    4  C   UNL     1      43.179 -18.729   2.034  1.00  0.00     0.045 A 
HETATM    5  N   UNL     1      42.432 -18.011   1.092  1.00  0.00    -0.322 N 
HETATM    6  C   UNL     1      42.056 -16.704   1.258  1.00  0.00     0.253 A 
HETATM    7  O   UNL     1      41.386 -16.124   0.407  1.00  0.00    -0.268 OA
HETATM    8  C   UNL     1      42.493 -16.022   2.510  1.00  0.00     0.024 A 
HETATM    9  C   UNL     1      43.218 -16.695   3.423  1.00  0.00     0.027 A 
HETATM   10  C   UNL     1      43.514 -20.058   1.793  1.00  0.00     0.033 A 
HETATM   11  C   UNL     1      44.260 -20.757   2.745  1.00  0.00     0.039 A 
HETATM   12  H   UNL     1      42.125 -18.455   0.238  1.00  0.00     0.169 HD
ENDROOT
BRANCH   8  13
HETATM   13  C   UNL     1      42.133 -14.574   2.659  1.00  0.00     0.136 C 
BRANCH  13  14
HETATM   14  N   UNL     1      40.692 -14.473   2.869  1.00  0.00    -0.289 NA
HETATM   15  H   UNL     1      40.217 -14.306   1.981  1.00  0.00     0.128 HD
BRANCH  14  16
HETATM   16  C   UNL     1      40.203 -13.603   3.854  1.00  0.00     0.008 A 
HETATM   17  C   UNL     1      40.748 -13.679   5.142  1.00  0.00     0.026 A 
HETATM   18  C   UNL     1      40.363 -12.785   6.148  1.00  0.00     0.038 A 
HETATM   19  C   UNL     1      39.450 -11.767   5.883  1.00  0.00     0.068 A 
HETATM   20  C   UNL     1      38.929 -11.653   4.597  1.00  0.00     0.038 A 
HETATM   21  C   UNL     1      39.314 -12.555   3.593  1.00  0.00     0.026 A 
BRANCH  19  22
HETATM   22  O   UNL     1      39.164 -10.957   6.945  1.00  0.00    -0.356 OA
HETATM   23  C   UNL     1      39.333 -11.517   8.241  1.00  0.00     0.210 C 
ENDBRANCH  19  22
ENDBRANCH  14  16
ENDBRANCH  13  14
ENDBRANCH   8  13
BRANCH   1  24
HETATM   24  O   UNL     1      45.390 -20.942   4.771  1.00  0.00    -0.351 OA
BRANCH  24  25
HETATM   25  C   UNL     1      44.684 -21.977   5.453  1.00  0.00     0.171 C 
HETATM   26  C   UNL     1      43.949 -21.352   6.625  1.00  0.00     0.034 C 
ENDBRANCH  24  25
ENDBRANCH   1  24
TORSDOF 6
ENDMDL
MODEL 10
REMARK VINA RESULT:      -6.5      4.234      5.675
REMARK  6 active torsions:
REMARK  status: ('A' for Active; 'I' for Inactive)
REMARK    1  A    between atoms: C_2  and  O_3 
REMARK    2  A    between atoms: O_3  and  C_4 
REMARK    3  A    between atoms: C_11  and  C_12 
REMARK    4  A    between atoms: C_12  and  N_13 
REMARK    5  A    between atoms: N_13  and  C_14 
REMARK    6  A    between atoms: C_17  and  O_18 
ROOT
HETATM    1  C   UNL     1      44.170 -19.382   3.011  1.00  0.00     0.069 A 
HETATM    2  C   UNL     1      43.715 -18.568   1.970  1.00  0.00     0.050 A 
HETATM    3  C   UNL     1      42.806 -17.536   2.234  1.00  0.00    -0.006 A 
HETATM    4  C   UNL     1      42.360 -17.321   3.543  1.00  0.00     0.045 A 
HETATM    5  N   UNL     1      41.454 -16.285   3.796  1.00  0.00    -0.322 N 
HETATM    6  C   UNL     1      40.971 -15.444   2.827  1.00  0.00     0.253 A 
HETATM    7  O   UNL     1      40.189 -14.539   3.105  1.00  0.00    -0.268 OA
HETATM    8  C   UNL     1      41.436 -15.677   1.429  1.00  0.00     0.024 A 
HETATM    9  C   UNL     1      42.301 -16.675   1.167  1.00  0.00     0.027 A 
HETATM   10  C   UNL     1      42.808 -18.127   4.586  1.00  0.00     0.033 A 
HETATM   11  C   UNL     1      43.712 -19.156   4.312  1.00  0.00     0.039 A 
HETATM   12  H   UNL     1      41.128 -16.110   4.736  1.00  0.00     0.169 HD
ENDROOT
BRANCH   8  13
HETATM   13  C   UNL     1      40.857 -14.796   0.363  1.00  0.00     0.136 C 
BRANCH  13  14
HETATM   14  N   UNL     1      39.401 -14.891   0.423  1.00  0.00    -0.289 NA
HETATM   15  H   UNL     1      39.079 -15.703  -0.106  1.00  0.00     0.128 HD
BRANCH  14  16
HETATM   16  C   UNL     1      38.627 -13.766   0.105  1.00  0.00     0.008 A 
HETATM   17  C   UNL     1      38.859 -13.120  -1.116  1.00  0.00     0.026 A 
HETATM   18  C   UNL     1      38.068 -12.043  -1.531  1.00  0.00     0.038 A 
HETATM   19  C   UNL     1      36.998 -11.607  -0.752  1.00  0.00     0.068 A 
HETATM   20  C   UNL     1      36.728 -12.264   0.445  1.00  0.00     0.038 A 
HETATM   21  C   UNL     1      37.529 -13.340   0.858  1.00  0.00     0.026 A 
BRANCH  19  22
HETATM   22  O   UNL     1      36.298 -10.554  -1.271  1.00  0.00    -0.356 OA
HETATM   23  C   UNL     1      34.936 -10.792  -1.604  1.00  0.00     0.210 C 
ENDBRANCH  19  22
ENDBRANCH  14  16
ENDBRANCH  13  14
ENDBRANCH   8  13
BRANCH   1  24
HETATM   24  O   UNL     1      45.051 -20.422   2.890  1.00  0.00    -0.351 OA
BRANCH  24  25
HETATM   25  C   UNL     1      44.507 -21.740   2.882  1.00  0.00     0.171 C 
HETATM   26  C   UNL     1      44.076 -22.063   1.464  1.00  0.00     0.034 C 
ENDBRANCH  24  25
ENDBRANCH   1  24
TORSDOF 6
ENDMDL
