MODEL 1
REMARK VINA RESULT:      -7.9      0.000      0.000
REMARK  3 active torsions:
REMARK  status: ('A' for Active; 'I' for Inactive)
REMARK    1  A    between atoms: C_2  and  C_3 
REMARK    2  A    between atoms: C_4  and  N_5 
REMARK    3  A    between atoms: C_18  and  C_19 
ROOT
HETATM    1  N   UNL     1      42.661 -16.918   4.850  1.00  0.00    -0.320 N 
HETATM    2  C   UNL     1      41.323 -16.835   5.310  1.00  0.00     0.141 C 
HETATM    3  N   UNL     1      40.473 -17.814   5.188  1.00  0.00    -0.380 N 
HETATM    4  H   UNL     1      39.525 -17.696   5.515  1.00  0.00     0.158 HD
HETATM    5  H   UNL     1      40.770 -18.671   4.745  1.00  0.00     0.158 HD
HETATM    6  S   UNL     1      40.933 -15.305   5.977  1.00  0.00    -0.086 SA
HETATM    7  C   UNL     1      42.461 -14.543   5.275  1.00  0.00     0.093 C 
HETATM    8  C   UNL     1      43.471 -15.710   5.119  1.00  0.00     0.121 C 
HETATM    9  C   UNL     1      43.064 -13.440   6.127  1.00  0.00     0.158 C 
HETATM   10  S   UNL     1      44.526 -14.125   6.874  1.00  0.00     0.147 S 
HETATM   11  O   UNL     1      44.431 -14.001   8.311  1.00  0.00    -0.228 OA
HETATM   12  O   UNL     1      45.673 -13.657   6.123  1.00  0.00    -0.228 OA
HETATM   13  C   UNL     1      44.242 -15.813   6.427  1.00  0.00     0.167 C 
ENDROOT
BRANCH   1  14
HETATM   14  C   UNL     1      43.328 -18.033   4.305  1.00  0.00     0.049 A 
HETATM   15  C   UNL     1      43.486 -18.141   2.894  1.00  0.00    -0.031 A 
HETATM   16  C   UNL     1      44.199 -19.230   2.367  1.00  0.00     0.009 A 
HETATM   17  C   UNL     1      44.681 -20.237   3.193  1.00  0.00     0.001 A 
HETATM   18  C   UNL     1      44.474 -20.168   4.565  1.00  0.00     0.009 A 
HETATM   19  C   UNL     1      43.822 -19.067   5.150  1.00  0.00    -0.031 A 
BRANCH  15  20
HETATM   20  C   UNL     1      42.914 -17.107   1.937  1.00  0.00     0.036 C 
HETATM   21  C   UNL     1      41.518 -17.410   1.399  1.00  0.00     0.010 C 
ENDBRANCH  15  20
BRANCH  19  22
HETATM   22  C   UNL     1      43.628 -19.053   6.658  1.00  0.00     0.036 C 
HETATM   23  C   UNL     1      43.660 -20.415   7.346  1.00  0.00     0.010 C 
ENDBRANCH  19  22
ENDBRANCH   1  14
TORSDOF 3
ENDMDL
MODEL 2
REMARK VINA RESULT:      -7.7      0.112      2.900
REMARK  3 active torsions:
REMARK  status: ('A' for Active; 'I' for Inactive)
REMARK    1  A    between atoms: C_2  and  C_3 
REMARK    2  A    between atoms: C_4  and  N_5 
REMARK    3  A    between atoms: C_18  and  C_19 
ROOT
HETATM    1  N   UNL     1      42.668 -16.904   4.827  1.00  0.00    -0.320 N 
HETATM    2  C   UNL     1      41.330 -16.830   5.289  1.00  0.00     0.141 C 
HETATM    3  N   UNL     1      40.482 -17.809   5.158  1.00  0.00    -0.380 N 
HETATM    4  H   UNL     1      39.534 -17.698   5.487  1.00  0.00     0.158 HD
HETATM    5  H   UNL     1      40.782 -18.661   4.705  1.00  0.00     0.158 HD
HETATM    6  S   UNL     1      40.936 -15.308   5.974  1.00  0.00    -0.086 SA
HETATM    7  C   UNL     1      42.462 -14.535   5.278  1.00  0.00     0.093 C 
HETATM    8  C   UNL     1      43.475 -15.697   5.109  1.00  0.00     0.121 C 
HETATM    9  C   UNL     1      43.063 -13.439   6.142  1.00  0.00     0.158 C 
HETATM   10  S   UNL     1      44.527 -14.128   6.880  1.00  0.00     0.147 S 
HETATM   11  O   UNL     1      44.433 -14.020   8.318  1.00  0.00    -0.228 OA
HETATM   12  O   UNL     1      45.672 -13.650   6.133  1.00  0.00    -0.228 OA
HETATM   13  C   UNL     1      44.247 -15.812   6.415  1.00  0.00     0.167 C 
ENDROOT
BRANCH   1  14
HETATM   14  C   UNL     1      43.337 -18.011   4.270  1.00  0.00     0.049 A 
HETATM   15  C   UNL     1      43.810 -19.051   5.121  1.00  0.00    -0.031 A 
HETATM   16  C   UNL     1      44.429 -20.175   4.548  1.00  0.00     0.009 A 
HETATM   17  C   UNL     1      44.653 -20.250   3.180  1.00  0.00     0.001 A 
HETATM   18  C   UNL     1      44.250 -19.208   2.353  1.00  0.00     0.009 A 
HETATM   19  C   UNL     1      43.569 -18.090   2.868  1.00  0.00    -0.031 A 
BRANCH  15  20
HETATM   20  C   UNL     1      43.659 -18.988   6.632  1.00  0.00     0.036 C 
HETATM   21  C   UNL     1      43.660 -20.335   7.350  1.00  0.00     0.010 C 
ENDBRANCH  15  20
BRANCH  19  22
HETATM   22  C   UNL     1      43.154 -16.986   1.908  1.00  0.00     0.036 C 
HETATM   23  C   UNL     1      41.776 -17.140   1.272  1.00  0.00     0.010 C 
ENDBRANCH  19  22
ENDBRANCH   1  14
TORSDOF 3
ENDMDL
MODEL 3
REMARK VINA RESULT:      -6.5      3.126      4.715
REMARK  3 active torsions:
REMARK  status: ('A' for Active; 'I' for Inactive)
REMARK    1  A    between atoms: C_2  and  C_3 
REMARK    2  A    between atoms: C_4  and  N_5 
REMARK    3  A    between atoms: C_18  and  C_19 
ROOT
HETATM    1  N   UNL     1      42.511 -15.754   4.661  1.00  0.00    -0.320 N 
HETATM    2  C   UNL     1      43.144 -14.557   5.076  1.00  0.00     0.141 C 
HETATM    3  N   UNL     1      44.322 -14.538   5.631  1.00  0.00    -0.380 N 
HETATM    4  H   UNL     1      44.721 -13.659   5.928  1.00  0.00     0.158 HD
HETATM    5  H   UNL     1      44.810 -15.410   5.780  1.00  0.00     0.158 HD
HETATM    6  S   UNL     1      42.181 -13.161   4.829  1.00  0.00    -0.086 SA
HETATM    7  C   UNL     1      40.672 -14.184   4.533  1.00  0.00     0.093 C 
HETATM    8  C   UNL     1      41.194 -15.551   4.018  1.00  0.00     0.121 C 
HETATM    9  C   UNL     1      39.692 -13.589   3.536  1.00  0.00     0.158 C 
HETATM   10  S   UNL     1      39.847 -14.548   2.046  1.00  0.00     0.147 S 
HETATM   11  O   UNL     1      40.171 -13.670   0.944  1.00  0.00    -0.228 OA
HETATM   12  O   UNL     1      38.745 -15.486   2.002  1.00  0.00    -0.228 OA
HETATM   13  C   UNL     1      41.301 -15.448   2.504  1.00  0.00     0.167 C 
ENDROOT
BRANCH   1  14
HETATM   14  C   UNL     1      43.031 -17.062   4.663  1.00  0.00     0.049 A 
HETATM   15  C   UNL     1      42.929 -17.860   5.839  1.00  0.00    -0.031 A 
HETATM   16  C   UNL     1      43.404 -19.182   5.812  1.00  0.00     0.009 A 
HETATM   17  C   UNL     1      44.039 -19.692   4.687  1.00  0.00     0.001 A 
HETATM   18  C   UNL     1      44.198 -18.896   3.559  1.00  0.00     0.009 A 
HETATM   19  C   UNL     1      43.684 -17.587   3.512  1.00  0.00    -0.031 A 
BRANCH  15  20
HETATM   20  C   UNL     1      42.311 -17.329   7.123  1.00  0.00     0.036 C 
HETATM   21  C   UNL     1      43.297 -17.004   8.242  1.00  0.00     0.010 C 
ENDBRANCH  15  20
BRANCH  19  22
HETATM   22  C   UNL     1      43.891 -16.769   2.246  1.00  0.00     0.036 C 
HETATM   23  C   UNL     1      43.802 -17.541   0.933  1.00  0.00     0.010 C 
ENDBRANCH  19  22
ENDBRANCH   1  14
TORSDOF 3
ENDMDL
MODEL 4
REMARK VINA RESULT:      -6.2      3.395      4.353
REMARK  3 active torsions:
REMARK  status: ('A' for Active; 'I' for Inactive)
REMARK    1  A    between atoms: C_2  and  C_3 
REMARK    2  A    between atoms: C_4  and  N_5 
REMARK    3  A    between atoms: C_18  and  C_19 
ROOT
HETATM    1  N   UNL     1      42.396 -15.331   4.122  1.00  0.00    -0.320 N 
HETATM    2  C   UNL     1      43.099 -14.107   4.234  1.00  0.00     0.141 C 
HETATM    3  N   UNL     1      44.322 -14.033   4.678  1.00  0.00    -0.380 N 
HETATM    4  H   UNL     1      44.771 -13.131   4.757  1.00  0.00     0.158 HD
HETATM    5  H   UNL     1      44.794 -14.879   4.961  1.00  0.00     0.158 HD
HETATM    6  S   UNL     1      42.159 -12.745   3.787  1.00  0.00    -0.086 SA
HETATM    7  C   UNL     1      40.601 -13.734   3.828  1.00  0.00     0.093 C 
HETATM    8  C   UNL     1      41.034 -15.199   3.560  1.00  0.00     0.121 C 
HETATM    9  C   UNL     1      39.555 -13.305   2.813  1.00  0.00     0.158 C 
HETATM   10  S   UNL     1      39.550 -14.548   1.541  1.00  0.00     0.147 S 
HETATM   11  O   UNL     1      39.801 -13.924   0.261  1.00  0.00    -0.228 OA
HETATM   12  O   UNL     1      38.420 -15.423   1.776  1.00  0.00    -0.228 OA
HETATM   13  C   UNL     1      41.010 -15.406   2.053  1.00  0.00     0.167 C 
ENDROOT
BRANCH   1  14
HETATM   14  C   UNL     1      42.876 -16.636   4.349  1.00  0.00     0.049 A 
HETATM   15  C   UNL     1      43.607 -17.306   3.326  1.00  0.00    -0.031 A 
HETATM   16  C   UNL     1      44.126 -18.586   3.583  1.00  0.00     0.009 A 
HETATM   17  C   UNL     1      43.871 -19.234   4.785  1.00  0.00     0.001 A 
HETATM   18  C   UNL     1      43.105 -18.609   5.761  1.00  0.00     0.009 A 
HETATM   19  C   UNL     1      42.615 -17.303   5.579  1.00  0.00    -0.031 A 
BRANCH  15  20
HETATM   20  C   UNL     1      43.852 -16.676   1.965  1.00  0.00     0.036 C 
HETATM   21  C   UNL     1      43.657 -17.601   0.766  1.00  0.00     0.010 C 
ENDBRANCH  15  20
BRANCH  19  22
HETATM   22  C   UNL     1      41.783 -16.677   6.688  1.00  0.00     0.036 C 
HETATM   23  C   UNL     1      40.283 -16.948   6.628  1.00  0.00     0.010 C 
ENDBRANCH  19  22
ENDBRANCH   1  14
TORSDOF 3
ENDMDL
MODEL 5
REMARK VINA RESULT:      -6.1      4.294      5.837
REMARK  3 active torsions:
REMARK  status: ('A' for Active; 'I' for Inactive)
REMARK    1  A    between atoms: C_2  and  C_3 
REMARK    2  A    between atoms: C_4  and  N_5 
REMARK    3  A    between atoms: C_18  and  C_19 
ROOT
HETATM    1  N   UNL     1      41.019 -14.538   1.707  1.00  0.00    -0.320 N 
HETATM    2  C   UNL     1      39.676 -14.776   1.326  1.00  0.00     0.141 C 
HETATM    3  N   UNL     1      38.892 -15.592   1.972  1.00  0.00    -0.380 N 
HETATM    4  H   UNL     1      37.948 -15.741   1.646  1.00  0.00     0.158 HD
HETATM    5  H   UNL     1      39.251 -16.083   2.778  1.00  0.00     0.158 HD
HETATM    6  S   UNL     1      39.218 -13.934  -0.095  1.00  0.00    -0.086 SA
HETATM    7  C   UNL     1      40.976 -13.537  -0.496  1.00  0.00     0.093 C 
HETATM    8  C   UNL     1      41.723 -13.548   0.863  1.00  0.00     0.121 C 
HETATM    9  C   UNL     1      41.178 -12.201  -1.192  1.00  0.00     0.158 C 
HETATM   10  S   UNL     1      41.882 -11.105   0.019  1.00  0.00     0.147 S 
HETATM   11  O   UNL     1      41.044  -9.935   0.149  1.00  0.00    -0.228 OA
HETATM   12  O   UNL     1      43.307 -11.024  -0.227  1.00  0.00    -0.228 OA
HETATM   13  C   UNL     1      41.638 -12.140   1.433  1.00  0.00     0.167 C 
ENDROOT
BRANCH   1  14
HETATM   14  C   UNL     1      41.700 -15.016   2.844  1.00  0.00     0.049 A 
HETATM   15  C   UNL     1      42.609 -16.106   2.716  1.00  0.00    -0.031 A 
HETATM   16  C   UNL     1      43.322 -16.538   3.847  1.00  0.00     0.009 A 
HETATM   17  C   UNL     1      43.096 -15.973   5.095  1.00  0.00     0.001 A 
HETATM   18  C   UNL     1      42.163 -14.952   5.236  1.00  0.00     0.009 A 
HETATM   19  C   UNL     1      41.469 -14.440   4.125  1.00  0.00    -0.031 A 
BRANCH  15  20
HETATM   20  C   UNL     1      42.840 -16.811   1.389  1.00  0.00     0.036 C 
HETATM   21  C   UNL     1      44.174 -17.542   1.257  1.00  0.00     0.010 C 
ENDBRANCH  15  20
BRANCH  19  22
HETATM   22  C   UNL     1      40.463 -13.321   4.349  1.00  0.00     0.036 C 
HETATM   23  C   UNL     1      39.596 -13.446   5.598  1.00  0.00     0.010 C 
ENDBRANCH  19  22
ENDBRANCH   1  14
TORSDOF 3
ENDMDL
MODEL 6
REMARK VINA RESULT:      -6.0      1.361      1.830
REMARK  3 active torsions:
REMARK  status: ('A' for Active; 'I' for Inactive)
REMARK    1  A    between atoms: C_2  and  C_3 
REMARK    2  A    between atoms: C_4  and  N_5 
REMARK    3  A    between atoms: C_18  and  C_19 
ROOT
HETATM    1  N   UNL     1      42.378 -15.396   4.261  1.00  0.00    -0.320 N 
HETATM    2  C   UNL     1      41.054 -15.093   4.665  1.00  0.00     0.141 C 
HETATM    3  N   UNL     1      40.012 -15.710   4.186  1.00  0.00    -0.380 N 
HETATM    4  H   UNL     1      39.087 -15.442   4.493  1.00  0.00     0.158 HD
HETATM    5  H   UNL     1      40.144 -16.434   3.494  1.00  0.00     0.158 HD
HETATM    6  S   UNL     1      40.969 -13.803   5.790  1.00  0.00    -0.086 SA
HETATM    7  C   UNL     1      42.717 -13.314   5.449  1.00  0.00     0.093 C 
HETATM    8  C   UNL     1      43.419 -14.606   4.955  1.00  0.00     0.121 C 
HETATM    9  C   UNL     1      43.457 -12.744   6.647  1.00  0.00     0.158 C 
HETATM   10  S   UNL     1      44.592 -14.003   7.183  1.00  0.00     0.147 S 
HETATM   11  O   UNL     1      44.343 -14.312   8.573  1.00  0.00    -0.228 OA
HETATM   12  O   UNL     1      45.907 -13.662   6.682  1.00  0.00    -0.228 OA
HETATM   13  C   UNL     1      43.961 -15.320   6.184  1.00  0.00     0.167 C 
ENDROOT
BRANCH   1  14
HETATM   14  C   UNL     1      42.814 -16.425   3.404  1.00  0.00     0.049 A 
HETATM   15  C   UNL     1      42.965 -16.166   2.011  1.00  0.00    -0.031 A 
HETATM   16  C   UNL     1      43.452 -17.185   1.175  1.00  0.00     0.009 A 
HETATM   17  C   UNL     1      43.712 -18.455   1.671  1.00  0.00     0.001 A 
HETATM   18  C   UNL     1      43.505 -18.730   3.018  1.00  0.00     0.009 A 
HETATM   19  C   UNL     1      43.080 -17.729   3.910  1.00  0.00    -0.031 A 
BRANCH  15  20
HETATM   20  C   UNL     1      42.624 -14.816   1.400  1.00  0.00     0.036 C 
HETATM   21  C   UNL     1      41.756 -14.863   0.145  1.00  0.00     0.010 C 
ENDBRANCH  15  20
BRANCH  19  22
HETATM   22  C   UNL     1      42.875 -18.096   5.371  1.00  0.00     0.036 C 
HETATM   23  C   UNL     1      43.951 -18.981   5.993  1.00  0.00     0.010 C 
ENDBRANCH  19  22
ENDBRANCH   1  14
TORSDOF 3
ENDMDL
MODEL 7
REMARK VINA RESULT:      -6.0      4.212      5.824
REMARK  3 active torsions:
REMARK  status: ('A' for Active; 'I' for Inactive)
REMARK    1  A    between atoms: C_2  and  C_3 
REMARK    2  A    between atoms: C_4  and  N_5 
REMARK    3  A    between atoms: C_18  and  C_19 
ROOT
HETATM    1  N   UNL     1      41.023 -14.658   1.719  1.00  0.00    -0.320 N 
HETATM    2  C   UNL     1      39.664 -14.875   1.382  1.00  0.00     0.141 C 
HETATM    3  N   UNL     1      38.904 -15.716   2.024  1.00  0.00    -0.380 N 
HETATM    4  H   UNL     1      37.946 -15.848   1.731  1.00  0.00     0.158 HD
HETATM    5  H   UNL     1      39.293 -16.243   2.793  1.00  0.00     0.158 HD
HETATM    6  S   UNL     1      39.153 -13.971   0.019  1.00  0.00    -0.086 SA
HETATM    7  C   UNL     1      40.896 -13.562  -0.436  1.00  0.00     0.093 C 
HETATM    8  C   UNL     1      41.697 -13.634   0.890  1.00  0.00     0.121 C 
HETATM    9  C   UNL     1      41.075 -12.199  -1.081  1.00  0.00     0.158 C 
HETATM   10  S   UNL     1      41.832 -11.158   0.146  1.00  0.00     0.147 S 
HETATM   11  O   UNL     1      41.005  -9.991   0.360  1.00  0.00    -0.228 OA
HETATM   12  O   UNL     1      43.246 -11.070  -0.154  1.00  0.00    -0.228 OA
HETATM   13  C   UNL     1      41.641 -12.252   1.523  1.00  0.00     0.167 C 
ENDROOT
BRANCH   1  14
HETATM   14  C   UNL     1      41.748 -15.186   2.805  1.00  0.00     0.049 A 
HETATM   15  C   UNL     1      41.520 -14.681   4.118  1.00  0.00    -0.031 A 
HETATM   16  C   UNL     1      42.210 -15.254   5.200  1.00  0.00     0.009 A 
HETATM   17  C   UNL     1      43.162 -16.244   4.999  1.00  0.00     0.001 A 
HETATM   18  C   UNL     1      43.433 -16.696   3.712  1.00  0.00     0.009 A 
HETATM   19  C   UNL     1      42.725 -16.201   2.602  1.00  0.00    -0.031 A 
BRANCH  15  20
HETATM   20  C   UNL     1      40.545 -13.547   4.387  1.00  0.00     0.036 C 
HETATM   21  C   UNL     1      39.899 -13.550   5.771  1.00  0.00     0.010 C 
ENDBRANCH  15  20
BRANCH  19  22
HETATM   22  C   UNL     1      43.070 -16.738   1.221  1.00  0.00     0.036 C 
HETATM   23  C   UNL     1      43.777 -18.091   1.191  1.00  0.00     0.010 C 
ENDBRANCH  19  22
ENDBRANCH   1  14
TORSDOF 3
ENDMDL
MODEL 8
REMARK VINA RESULT:      -6.0      4.371      6.010
REMARK  3 active torsions:
REMARK  status: ('A' for Active; 'I' for Inactive)
REMARK    1  A    between atoms: C_2  and  C_3 
REMARK    2  A    between atoms: C_4  and  N_5 
REMARK    3  A    between atoms: C_18  and  C_19 
ROOT
HETATM    1  N   UNL     1      41.246 -14.493   2.978  1.00  0.00    -0.320 N 
HETATM    2  C   UNL     1      42.212 -13.512   2.644  1.00  0.00     0.141 C 
HETATM    3  N   UNL     1      43.457 -13.591   3.016  1.00  0.00    -0.380 N 
HETATM    4  H   UNL     1      44.101 -12.854   2.768  1.00  0.00     0.158 HD
HETATM    5  H   UNL     1      43.756 -14.382   3.570  1.00  0.00     0.158 HD
HETATM    6  S   UNL     1      41.559 -12.194   1.763  1.00  0.00    -0.086 SA
HETATM    7  C   UNL     1      39.831 -12.704   2.170  1.00  0.00     0.093 C 
HETATM    8  C   UNL     1      39.900 -14.232   2.425  1.00  0.00     0.121 C 
HETATM    9  C   UNL     1      38.812 -12.400   1.084  1.00  0.00     0.158 C 
HETATM   10  S   UNL     1      38.406 -13.958   0.328  1.00  0.00     0.147 S 
HETATM   11  O   UNL     1      38.662 -13.881  -1.093  1.00  0.00    -0.228 OA
HETATM   12  O   UNL     1      37.139 -14.401   0.870  1.00  0.00    -0.228 OA
HETATM   13  C   UNL     1      39.682 -14.920   1.086  1.00  0.00     0.167 C 
ENDROOT
BRANCH   1  14
HETATM   14  C   UNL     1      41.444 -15.721   3.639  1.00  0.00     0.049 A 
HETATM   15  C   UNL     1      40.995 -15.880   4.981  1.00  0.00    -0.031 A 
HETATM   16  C   UNL     1      41.150 -17.127   5.611  1.00  0.00     0.009 A 
HETATM   17  C   UNL     1      41.803 -18.174   4.975  1.00  0.00     0.001 A 
HETATM   18  C   UNL     1      42.300 -18.003   3.688  1.00  0.00     0.009 A 
HETATM   19  C   UNL     1      42.114 -16.796   2.989  1.00  0.00    -0.031 A 
BRANCH  15  20
HETATM   20  C   UNL     1      40.341 -14.745   5.753  1.00  0.00     0.036 C 
HETATM   21  C   UNL     1      41.255 -13.571   6.094  1.00  0.00     0.010 C 
ENDBRANCH  15  20
BRANCH  19  22
HETATM   22  C   UNL     1      42.682 -16.675   1.584  1.00  0.00     0.036 C 
HETATM   23  C   UNL     1      43.988 -17.423   1.326  1.00  0.00     0.010 C 
ENDBRANCH  19  22
ENDBRANCH   1  14
TORSDOF 3
ENDMDL
MODEL 9
REMARK VINA RESULT:      -5.9      8.263     10.462
REMARK  3 active torsions:
REMARK  status: ('A' for Active; 'I' for Inactive)
REMARK    1  A    between atoms: C_2  and  C_3 
REMARK    2  A    between atoms: C_4  and  N_5 
REMARK    3  A    between atoms: C_18  and  C_19 
ROOT
HETATM    1  N   UNL     1      41.220 -10.111  10.165  1.00  0.00    -0.320 N 
HETATM    2  C   UNL     1      40.231 -11.114  10.008  1.00  0.00     0.141 C 
HETATM    3  N   UNL     1      39.759 -11.803  11.007  1.00  0.00    -0.380 N 
HETATM    4  H   UNL     1      39.069 -12.521  10.838  1.00  0.00     0.158 HD
HETATM    5  H   UNL     1      40.111 -11.624  11.938  1.00  0.00     0.158 HD
HETATM    6  S   UNL     1      39.774 -11.362   8.375  1.00  0.00    -0.086 SA
HETATM    7  C   UNL     1      41.227 -10.400   7.762  1.00  0.00     0.093 C 
HETATM    8  C   UNL     1      41.589  -9.422   8.910  1.00  0.00     0.121 C 
HETATM    9  C   UNL     1      40.975  -9.628   6.478  1.00  0.00     0.158 C 
HETATM   10  S   UNL     1      40.852  -7.915   6.938  1.00  0.00     0.147 S 
HETATM   11  O   UNL     1      39.583  -7.389   6.487  1.00  0.00    -0.228 OA
HETATM   12  O   UNL     1      42.116  -7.278   6.631  1.00  0.00    -0.228 OA
HETATM   13  C   UNL     1      40.780  -8.153   8.689  1.00  0.00     0.167 C 
ENDROOT
BRANCH   1  14
HETATM   14  C   UNL     1      41.776  -9.615  11.361  1.00  0.00     0.049 A 
HETATM   15  C   UNL     1      43.036 -10.104  11.809  1.00  0.00    -0.031 A 
HETATM   16  C   UNL     1      43.605  -9.562  12.974  1.00  0.00     0.009 A 
HETATM   17  C   UNL     1      42.923  -8.620  13.732  1.00  0.00     0.001 A 
HETATM   18  C   UNL     1      41.664  -8.187  13.332  1.00  0.00     0.009 A 
HETATM   19  C   UNL     1      41.078  -8.650  12.140  1.00  0.00    -0.031 A 
BRANCH  15  20
HETATM   20  C   UNL     1      43.793 -11.189  11.060  1.00  0.00     0.036 C 
HETATM   21  C   UNL     1      44.951 -10.703  10.191  1.00  0.00     0.010 C 
ENDBRANCH  15  20
BRANCH  19  22
HETATM   22  C   UNL     1      39.698  -8.134  11.760  1.00  0.00     0.036 C 
HETATM   23  C   UNL     1      38.527  -8.735  12.532  1.00  0.00     0.010 C 
ENDBRANCH  19  22
ENDBRANCH   1  14
TORSDOF 3
ENDMDL
MODEL 10
REMARK VINA RESULT:      -5.9      5.114      7.448
REMARK  3 active torsions:
REMARK  status: ('A' for Active; 'I' for Inactive)
REMARK    1  A    between atoms: C_2  and  C_3 
REMARK    2  A    between atoms: C_4  and  N_5 
REMARK    3  A    between atoms: C_18  and  C_19 
ROOT
HETATM    1  N   UNL     1      40.926 -14.375   0.195  1.00  0.00    -0.320 N 
HETATM    2  C   UNL     1      39.568 -14.568   0.549  1.00  0.00     0.141 C 
HETATM    3  N   UNL     1      38.582 -14.042  -0.122  1.00  0.00    -0.380 N 
HETATM    4  H   UNL     1      37.632 -14.194   0.184  1.00  0.00     0.158 HD
HETATM    5  H   UNL     1      38.787 -13.468  -0.928  1.00  0.00     0.158 HD
HETATM    6  S   UNL     1      39.365 -15.502   1.972  1.00  0.00    -0.086 SA
HETATM    7  C   UNL     1      41.151 -15.326   2.410  1.00  0.00     0.093 C 
HETATM    8  C   UNL     1      41.886 -15.090   1.065  1.00  0.00     0.121 C 
HETATM    9  C   UNL     1      41.745 -16.526   3.127  1.00  0.00     0.158 C 
HETATM   10  S   UNL     1      42.782 -17.355   1.944  1.00  0.00     0.147 S 
HETATM   11  O   UNL     1      42.356 -18.730   1.814  1.00  0.00    -0.228 OA
HETATM   12  O   UNL     1      44.156 -16.984   2.217  1.00  0.00    -0.228 OA
HETATM   13  C   UNL     1      42.258 -16.457   0.512  1.00  0.00     0.167 C 
ENDROOT
BRANCH   1  14
HETATM   14  C   UNL     1      41.448 -13.715  -0.935  1.00  0.00     0.049 A 
HETATM   15  C   UNL     1      42.014 -12.416  -0.794  1.00  0.00    -0.031 A 
HETATM   16  C   UNL     1      42.580 -11.791  -1.918  1.00  0.00     0.009 A 
HETATM   17  C   UNL     1      42.523 -12.386  -3.172  1.00  0.00     0.001 A 
HETATM   18  C   UNL     1      41.914 -13.626  -3.325  1.00  0.00     0.009 A 
HETATM   19  C   UNL     1      41.390 -14.322  -2.221  1.00  0.00    -0.031 A 
BRANCH  15  20
HETATM   20  C   UNL     1      42.036 -11.686   0.539  1.00  0.00     0.036 C 
HETATM   21  C   UNL     1      40.888 -10.707   0.772  1.00  0.00     0.010 C 
ENDBRANCH  15  20
BRANCH  19  22
HETATM   22  C   UNL     1      40.738 -15.676  -2.458  1.00  0.00     0.036 C 
HETATM   23  C   UNL     1      39.717 -15.733  -3.590  1.00  0.00     0.010 C 
ENDBRANCH  19  22
ENDBRANCH   1  14
TORSDOF 3
ENDMDL
