MODEL 1
REMARK VINA RESULT:      -8.3      0.000      0.000
REMARK  4 active torsions:
REMARK  status: ('A' for Active; 'I' for Inactive)
REMARK    1  A    between atoms: C_4  and  C_5 
REMARK    2  A    between atoms: C_5  and  N_6 
REMARK    3  A    between atoms: C_10  and  C_11 
REMARK    4  A    between atoms: C_15  and  N_16 
ROOT
HETATM    1  N   UNL     1      43.184 -17.266   3.159  1.00  0.00    -0.064 N 
HETATM    2  H   UNL     1      44.055 -17.491   3.653  1.00  0.00     0.280 HD
HETATM    3  C   UNL     1      43.385 -15.895   2.562  1.00  0.00     0.263 C 
HETATM    4  C   UNL     1      43.198 -14.781   3.537  1.00  0.00     0.008 C 
HETATM    5  C   UNL     1      42.731 -14.935   4.788  1.00  0.00    -0.046 C 
HETATM    6  C   UNL     1      42.362 -16.302   5.309  1.00  0.00     0.067 C 
HETATM    7  C   UNL     1      42.066 -17.280   4.172  1.00  0.00     0.240 C 
ENDROOT
BRANCH   5   8
HETATM    8  C   UNL     1      42.496 -13.845   5.685  1.00  0.00    -0.002 A 
HETATM    9  C   UNL     1      43.347 -13.344   6.722  1.00  0.00     0.003 A 
HETATM   10  C   UNL     1      42.702 -12.236   7.280  1.00  0.00     0.045 A 
HETATM   11  C   UNL     1      44.605 -13.720   7.245  1.00  0.00     0.017 A 
HETATM   12  C   UNL     1      43.249 -11.474   8.321  1.00  0.00     0.066 A 
HETATM   13  N   UNL     1      41.507 -12.080   6.616  1.00  0.00    -0.364 N 
HETATM   14  C   UNL     1      44.504 -11.866   8.811  1.00  0.00     0.105 A 
HETATM   15  C   UNL     1      45.177 -12.976   8.287  1.00  0.00     0.037 A 
HETATM   16  H   UNL     1      40.834 -11.349   6.810  1.00  0.00     0.165 HD
HETATM   17  C   UNL     1      41.376 -13.040   5.647  1.00  0.00     0.101 A 
BRANCH  14  18
HETATM   18  N   UNL     1      45.121 -11.090   9.898  1.00  0.00    -0.116 N 
HETATM   19  O   UNL     1      46.031 -10.304   9.599  1.00  0.00    -0.532 OA
HETATM   20  O   UNL     1      44.695 -11.273  11.047  1.00  0.00    -0.532 OA
ENDBRANCH  14  18
ENDBRANCH   5   8
BRANCH   1  21
HETATM   21  C   UNL     1      42.987 -18.336   2.111  1.00  0.00     0.273 C 
BRANCH  21  22
HETATM   22  C   UNL     1      43.569 -19.669   2.493  1.00  0.00    -0.033 A 
HETATM   23  C   UNL     1      43.395 -20.784   1.659  1.00  0.00     0.009 A 
HETATM   24  C   UNL     1      43.935 -22.020   2.013  1.00  0.00     0.001 A 
HETATM   25  C   UNL     1      44.647 -22.157   3.202  1.00  0.00     0.000 A 
HETATM   26  C   UNL     1      44.822 -21.059   4.041  1.00  0.00     0.001 A 
HETATM   27  C   UNL     1      44.287 -19.819   3.689  1.00  0.00     0.009 A 
ENDBRANCH  21  22
ENDBRANCH   1  21
TORSDOF 4
ENDMDL
MODEL 2
REMARK VINA RESULT:      -8.3      5.250      8.822
REMARK  4 active torsions:
REMARK  status: ('A' for Active; 'I' for Inactive)
REMARK    1  A    between atoms: C_4  and  C_5 
REMARK    2  A    between atoms: C_5  and  N_6 
REMARK    3  A    between atoms: C_10  and  C_11 
REMARK    4  A    between atoms: C_15  and  N_16 
ROOT
HETATM    1  N   UNL     1      40.817 -13.633   3.368  1.00  0.00    -0.064 N 
HETATM    2  H   UNL     1      40.622 -14.036   2.445  1.00  0.00     0.280 HD
HETATM    3  C   UNL     1      42.311 -13.434   3.431  1.00  0.00     0.263 C 
HETATM    4  C   UNL     1      43.072 -14.680   3.739  1.00  0.00     0.008 C 
HETATM    5  C   UNL     1      42.508 -15.846   4.100  1.00  0.00    -0.046 C 
HETATM    6  C   UNL     1      41.009 -15.976   4.209  1.00  0.00     0.067 C 
HETATM    7  C   UNL     1      40.336 -14.617   4.407  1.00  0.00     0.240 C 
ENDROOT
BRANCH   5   8
HETATM    8  C   UNL     1      43.258 -17.011   4.457  1.00  0.00    -0.002 A 
HETATM    9  C   UNL     1      43.387 -18.243   3.739  1.00  0.00     0.003 A 
HETATM   10  C   UNL     1      44.270 -19.048   4.464  1.00  0.00     0.045 A 
HETATM   11  C   UNL     1      42.842 -18.759   2.541  1.00  0.00     0.017 A 
HETATM   12  C   UNL     1      44.650 -20.334   4.054  1.00  0.00     0.066 A 
HETATM   13  N   UNL     1      44.651 -18.338   5.579  1.00  0.00    -0.364 N 
HETATM   14  C   UNL     1      44.100 -20.813   2.856  1.00  0.00     0.105 A 
HETATM   15  C   UNL     1      43.204 -20.043   2.106  1.00  0.00     0.037 A 
HETATM   16  H   UNL     1      45.294 -18.677   6.285  1.00  0.00     0.165 HD
HETATM   17  C   UNL     1      44.053 -17.105   5.581  1.00  0.00     0.101 A 
BRANCH  14  18
HETATM   18  N   UNL     1      44.477 -22.153   2.381  1.00  0.00    -0.116 N 
HETATM   19  O   UNL     1      44.481 -22.350   1.159  1.00  0.00    -0.532 OA
HETATM   20  O   UNL     1      44.765 -23.004   3.235  1.00  0.00    -0.532 OA
ENDBRANCH  14  18
ENDBRANCH   5   8
BRANCH   1  21
HETATM   21  C   UNL     1      40.050 -12.333   3.450  1.00  0.00     0.273 C 
BRANCH  21  22
HETATM   22  C   UNL     1      38.914 -12.242   2.470  1.00  0.00    -0.033 A 
HETATM   23  C   UNL     1      38.632 -13.313   1.608  1.00  0.00     0.009 A 
HETATM   24  C   UNL     1      37.577 -13.229   0.700  1.00  0.00     0.001 A 
HETATM   25  C   UNL     1      36.798 -12.075   0.639  1.00  0.00     0.000 A 
HETATM   26  C   UNL     1      37.071 -11.004   1.485  1.00  0.00     0.001 A 
HETATM   27  C   UNL     1      38.123 -11.085   2.399  1.00  0.00     0.009 A 
ENDBRANCH  21  22
ENDBRANCH   1  21
TORSDOF 4
ENDMDL
MODEL 3
REMARK VINA RESULT:      -8.3      5.550      8.261
REMARK  4 active torsions:
REMARK  status: ('A' for Active; 'I' for Inactive)
REMARK    1  A    between atoms: C_4  and  C_5 
REMARK    2  A    between atoms: C_5  and  N_6 
REMARK    3  A    between atoms: C_10  and  C_11 
REMARK    4  A    between atoms: C_15  and  N_16 
ROOT
HETATM    1  N   UNL     1      41.236 -14.485   0.392  1.00  0.00    -0.064 N 
HETATM    2  H   UNL     1      41.867 -14.889  -0.308  1.00  0.00     0.280 HD
HETATM    3  C   UNL     1      42.120 -13.795   1.402  1.00  0.00     0.263 C 
HETATM    4  C   UNL     1      42.738 -14.722   2.394  1.00  0.00     0.008 C 
HETATM    5  C   UNL     1      42.427 -16.025   2.514  1.00  0.00    -0.046 C 
HETATM    6  C   UNL     1      41.401 -16.659   1.608  1.00  0.00     0.067 C 
HETATM    7  C   UNL     1      40.453 -15.618   1.011  1.00  0.00     0.240 C 
ENDROOT
BRANCH   5   8
HETATM    8  C   UNL     1      42.982 -16.882   3.517  1.00  0.00    -0.002 A 
HETATM    9  C   UNL     1      43.385 -18.251   3.396  1.00  0.00     0.003 A 
HETATM   10  C   UNL     1      43.917 -18.630   4.632  1.00  0.00     0.045 A 
HETATM   11  C   UNL     1      43.353 -19.210   2.358  1.00  0.00     0.017 A 
HETATM   12  C   UNL     1      44.432 -19.909   4.886  1.00  0.00     0.066 A 
HETATM   13  N   UNL     1      43.830 -17.541   5.468  1.00  0.00    -0.364 N 
HETATM   14  C   UNL     1      44.395 -20.836   3.832  1.00  0.00     0.105 A 
HETATM   15  C   UNL     1      43.860 -20.499   2.584  1.00  0.00     0.037 A 
HETATM   16  H   UNL     1      44.148 -17.528   6.429  1.00  0.00     0.165 HD
HETATM   17  C   UNL     1      43.275 -16.479   4.803  1.00  0.00     0.101 A 
BRANCH  14  18
HETATM   18  N   UNL     1      44.932 -22.188   4.050  1.00  0.00    -0.116 N 
HETATM   19  O   UNL     1      45.511 -22.410   5.122  1.00  0.00    -0.532 OA
HETATM   20  O   UNL     1      44.773 -23.020   3.146  1.00  0.00    -0.532 OA
ENDBRANCH  14  18
ENDBRANCH   5   8
BRANCH   1  21
HETATM   21  C   UNL     1      40.326 -13.526  -0.339  1.00  0.00     0.273 C 
BRANCH  21  22
HETATM   22  C   UNL     1      39.667 -14.125  -1.550  1.00  0.00    -0.033 A 
HETATM   23  C   UNL     1      40.417 -14.878  -2.465  1.00  0.00     0.009 A 
HETATM   24  C   UNL     1      39.806 -15.435  -3.589  1.00  0.00     0.001 A 
HETATM   25  C   UNL     1      38.445 -15.241  -3.812  1.00  0.00     0.000 A 
HETATM   26  C   UNL     1      37.690 -14.491  -2.913  1.00  0.00     0.001 A 
HETATM   27  C   UNL     1      38.296 -13.935  -1.785  1.00  0.00     0.009 A 
ENDBRANCH  21  22
ENDBRANCH   1  21
TORSDOF 4
ENDMDL
MODEL 4
REMARK VINA RESULT:      -8.0      5.946      7.622
REMARK  4 active torsions:
REMARK  status: ('A' for Active; 'I' for Inactive)
REMARK    1  A    between atoms: C_4  and  C_5 
REMARK    2  A    between atoms: C_5  and  N_6 
REMARK    3  A    between atoms: C_10  and  C_11 
REMARK    4  A    between atoms: C_15  and  N_16 
ROOT
HETATM    1  N   UNL     1      42.943 -17.963   3.265  1.00  0.00    -0.064 N 
HETATM    2  H   UNL     1      42.342 -18.780   3.110  1.00  0.00     0.280 HD
HETATM    3  C   UNL     1      42.148 -17.020   4.135  1.00  0.00     0.263 C 
HETATM    4  C   UNL     1      41.136 -16.219   3.386  1.00  0.00     0.008 C 
HETATM    5  C   UNL     1      41.031 -16.188   2.045  1.00  0.00    -0.046 C 
HETATM    6  C   UNL     1      41.960 -17.003   1.181  1.00  0.00     0.067 C 
HETATM    7  C   UNL     1      43.252 -17.359   1.916  1.00  0.00     0.240 C 
ENDROOT
BRANCH   5   8
HETATM    8  C   UNL     1      40.098 -15.360   1.344  1.00  0.00    -0.002 A 
HETATM    9  C   UNL     1      40.282 -14.656   0.111  1.00  0.00     0.003 A 
HETATM   10  C   UNL     1      39.065 -14.038  -0.193  1.00  0.00     0.045 A 
HETATM   11  C   UNL     1      41.363 -14.480  -0.783  1.00  0.00     0.017 A 
HETATM   12  C   UNL     1      38.863 -13.266  -1.345  1.00  0.00     0.066 A 
HETATM   13  N   UNL     1      38.185 -14.347   0.819  1.00  0.00    -0.364 N 
HETATM   14  C   UNL     1      39.952 -13.119  -2.218  1.00  0.00     0.105 A 
HETATM   15  C   UNL     1      41.190 -13.712  -1.944  1.00  0.00     0.037 A 
HETATM   16  H   UNL     1      37.222 -14.035   0.858  1.00  0.00     0.165 HD
HETATM   17  C   UNL     1      38.795 -15.150   1.747  1.00  0.00     0.101 A 
BRANCH  14  18
HETATM   18  N   UNL     1      39.783 -12.325  -3.444  1.00  0.00    -0.116 N 
HETATM   19  O   UNL     1      40.803 -12.023  -4.078  1.00  0.00    -0.532 OA
HETATM   20  O   UNL     1      38.630 -12.003  -3.765  1.00  0.00    -0.532 OA
ENDBRANCH  14  18
ENDBRANCH   5   8
BRANCH   1  21
HETATM   21  C   UNL     1      44.197 -18.464   3.942  1.00  0.00     0.273 C 
BRANCH  21  22
HETATM   22  C   UNL     1      44.368 -19.955   3.866  1.00  0.00    -0.033 A 
HETATM   23  C   UNL     1      44.701 -20.689   5.015  1.00  0.00     0.009 A 
HETATM   24  C   UNL     1      44.859 -22.074   4.945  1.00  0.00     0.001 A 
HETATM   25  C   UNL     1      44.692 -22.736   3.731  1.00  0.00     0.000 A 
HETATM   26  C   UNL     1      44.366 -22.018   2.584  1.00  0.00     0.001 A 
HETATM   27  C   UNL     1      44.203 -20.633   2.649  1.00  0.00     0.009 A 
ENDBRANCH  21  22
ENDBRANCH   1  21
TORSDOF 4
ENDMDL
MODEL 5
REMARK VINA RESULT:      -7.9      4.198      9.030
REMARK  4 active torsions:
REMARK  status: ('A' for Active; 'I' for Inactive)
REMARK    1  A    between atoms: C_4  and  C_5 
REMARK    2  A    between atoms: C_5  and  N_6 
REMARK    3  A    between atoms: C_10  and  C_11 
REMARK    4  A    between atoms: C_15  and  N_16 
ROOT
HETATM    1  N   UNL     1      43.780 -13.007   7.836  1.00  0.00    -0.064 N 
HETATM    2  H   UNL     1      43.280 -13.584   8.521  1.00  0.00     0.280 HD
HETATM    3  C   UNL     1      42.801 -12.740   6.720  1.00  0.00     0.263 C 
HETATM    4  C   UNL     1      42.658 -13.876   5.761  1.00  0.00     0.008 C 
HETATM    5  C   UNL     1      43.433 -14.975   5.762  1.00  0.00    -0.046 C 
HETATM    6  C   UNL     1      44.533 -15.140   6.781  1.00  0.00     0.067 C 
HETATM    7  C   UNL     1      44.976 -13.796   7.360  1.00  0.00     0.240 C 
ENDROOT
BRANCH   5   8
HETATM    8  C   UNL     1      43.324 -16.021   4.792  1.00  0.00    -0.002 A 
HETATM    9  C   UNL     1      43.812 -17.365   4.872  1.00  0.00     0.003 A 
HETATM   10  C   UNL     1      43.407 -18.016   3.703  1.00  0.00     0.045 A 
HETATM   11  C   UNL     1      44.558 -18.098   5.823  1.00  0.00     0.017 A 
HETATM   12  C   UNL     1      43.694 -19.362   3.436  1.00  0.00     0.066 A 
HETATM   13  N   UNL     1      42.713 -17.102   2.944  1.00  0.00    -0.364 N 
HETATM   14  C   UNL     1      44.428 -20.065   4.404  1.00  0.00     0.105 A 
HETATM   15  C   UNL     1      44.861 -19.446   5.582  1.00  0.00     0.037 A 
HETATM   16  H   UNL     1      42.298 -17.302   2.042  1.00  0.00     0.165 HD
HETATM   17  C   UNL     1      42.650 -15.898   3.595  1.00  0.00     0.101 A 
BRANCH  14  18
HETATM   18  N   UNL     1      44.745 -21.482   4.170  1.00  0.00    -0.116 N 
HETATM   19  O   UNL     1      44.428 -21.969   3.076  1.00  0.00    -0.532 OA
HETATM   20  O   UNL     1      45.307 -22.102   5.083  1.00  0.00    -0.532 OA
ENDBRANCH  14  18
ENDBRANCH   5   8
BRANCH   1  21
HETATM   21  C   UNL     1      44.206 -11.746   8.552  1.00  0.00     0.273 C 
BRANCH  21  22
HETATM   22  C   UNL     1      43.574 -11.579   9.906  1.00  0.00    -0.033 A 
HETATM   23  C   UNL     1      44.125 -12.215  11.029  1.00  0.00     0.009 A 
HETATM   24  C   UNL     1      43.539 -12.059  12.286  1.00  0.00     0.001 A 
HETATM   25  C   UNL     1      42.397 -11.275  12.432  1.00  0.00     0.000 A 
HETATM   26  C   UNL     1      41.838 -10.643  11.324  1.00  0.00     0.001 A 
HETATM   27  C   UNL     1      42.423 -10.792  10.065  1.00  0.00     0.009 A 
ENDBRANCH  21  22
ENDBRANCH   1  21
TORSDOF 4
ENDMDL
MODEL 6
REMARK VINA RESULT:      -7.9      4.786      8.920
REMARK  4 active torsions:
REMARK  status: ('A' for Active; 'I' for Inactive)
REMARK    1  A    between atoms: C_4  and  C_5 
REMARK    2  A    between atoms: C_5  and  N_6 
REMARK    3  A    between atoms: C_10  and  C_11 
REMARK    4  A    between atoms: C_15  and  N_16 
ROOT
HETATM    1  N   UNL     1      41.375 -13.459   3.751  1.00  0.00    -0.064 N 
HETATM    2  H   UNL     1      41.450 -13.659   2.747  1.00  0.00     0.280 HD
HETATM    3  C   UNL     1      42.791 -13.353   4.261  1.00  0.00     0.263 C 
HETATM    4  C   UNL     1      43.444 -14.673   4.503  1.00  0.00     0.008 C 
HETATM    5  C   UNL     1      42.809 -15.858   4.447  1.00  0.00    -0.046 C 
HETATM    6  C   UNL     1      41.340 -15.929   4.110  1.00  0.00     0.067 C 
HETATM    7  C   UNL     1      40.630 -14.605   4.392  1.00  0.00     0.240 C 
ENDROOT
BRANCH   5   8
HETATM    8  C   UNL     1      43.438 -17.107   4.748  1.00  0.00    -0.002 A 
HETATM    9  C   UNL     1      43.528 -18.280   3.931  1.00  0.00     0.003 A 
HETATM   10  C   UNL     1      44.287 -19.215   4.641  1.00  0.00     0.045 A 
HETATM   11  C   UNL     1      43.041 -18.643   2.655  1.00  0.00     0.017 A 
HETATM   12  C   UNL     1      44.599 -20.488   4.143  1.00  0.00     0.066 A 
HETATM   13  N   UNL     1      44.632 -18.637   5.841  1.00  0.00    -0.364 N 
HETATM   14  C   UNL     1      44.110 -20.815   2.869  1.00  0.00     0.105 A 
HETATM   15  C   UNL     1      43.337 -19.911   2.131  1.00  0.00     0.037 A 
HETATM   16  H   UNL     1      45.189 -19.088   6.557  1.00  0.00     0.165 HD
HETATM   17  C   UNL     1      44.131 -17.363   5.913  1.00  0.00     0.101 A 
BRANCH  14  18
HETATM   18  N   UNL     1      44.420 -22.136   2.302  1.00  0.00    -0.116 N 
HETATM   19  O   UNL     1      44.220 -22.303   1.091  1.00  0.00    -0.532 OA
HETATM   20  O   UNL     1      44.859 -23.002   3.072  1.00  0.00    -0.532 OA
ENDBRANCH  14  18
ENDBRANCH   5   8
BRANCH   1  21
HETATM   21  C   UNL     1      40.608 -12.164   3.884  1.00  0.00     0.273 C 
BRANCH  21  22
HETATM   22  C   UNL     1      40.550 -11.641   5.292  1.00  0.00    -0.033 A 
HETATM   23  C   UNL     1      41.404 -10.605   5.699  1.00  0.00     0.009 A 
HETATM   24  C   UNL     1      41.349 -10.118   7.006  1.00  0.00     0.001 A 
HETATM   25  C   UNL     1      40.448 -10.663   7.917  1.00  0.00     0.000 A 
HETATM   26  C   UNL     1      39.598 -11.695   7.526  1.00  0.00     0.001 A 
HETATM   27  C   UNL     1      39.646 -12.183   6.219  1.00  0.00     0.009 A 
ENDBRANCH  21  22
ENDBRANCH   1  21
TORSDOF 4
ENDMDL
MODEL 7
REMARK VINA RESULT:      -7.9      4.240      8.850
REMARK  4 active torsions:
REMARK  status: ('A' for Active; 'I' for Inactive)
REMARK    1  A    between atoms: C_4  and  C_5 
REMARK    2  A    between atoms: C_5  and  N_6 
REMARK    3  A    between atoms: C_10  and  C_11 
REMARK    4  A    between atoms: C_15  and  N_16 
ROOT
HETATM    1  N   UNL     1      41.566 -13.152   4.877  1.00  0.00    -0.064 N 
HETATM    2  H   UNL     1      42.045 -13.396   5.751  1.00  0.00     0.280 HD
HETATM    3  C   UNL     1      40.618 -14.290   4.590  1.00  0.00     0.263 C 
HETATM    4  C   UNL     1      41.276 -15.481   3.977  1.00  0.00     0.008 C 
HETATM    5  C   UNL     1      42.551 -15.511   3.551  1.00  0.00    -0.046 C 
HETATM    6  C   UNL     1      43.435 -14.296   3.682  1.00  0.00     0.067 C 
HETATM    7  C   UNL     1      42.617 -13.011   3.803  1.00  0.00     0.240 C 
ENDROOT
BRANCH   5   8
HETATM    8  C   UNL     1      43.144 -16.642   2.904  1.00  0.00    -0.002 A 
HETATM    9  C   UNL     1      43.505 -17.906   3.473  1.00  0.00     0.003 A 
HETATM   10  C   UNL     1      43.993 -18.698   2.429  1.00  0.00     0.045 A 
HETATM   11  C   UNL     1      43.467 -18.460   4.772  1.00  0.00     0.017 A 
HETATM   12  C   UNL     1      44.432 -20.017   2.607  1.00  0.00     0.066 A 
HETATM   13  N   UNL     1      43.938 -17.942   1.280  1.00  0.00    -0.364 N 
HETATM   14  C   UNL     1      44.371 -20.542   3.908  1.00  0.00     0.105 A 
HETATM   15  C   UNL     1      43.900 -19.778   4.981  1.00  0.00     0.037 A 
HETATM   16  H   UNL     1      44.226 -18.267   0.365  1.00  0.00     0.165 HD
HETATM   17  C   UNL     1      43.421 -16.704   1.554  1.00  0.00     0.101 A 
BRANCH  14  18
HETATM   18  N   UNL     1      44.813 -21.926   4.141  1.00  0.00    -0.116 N 
HETATM   19  O   UNL     1      44.638 -22.746   3.230  1.00  0.00    -0.532 OA
HETATM   20  O   UNL     1      45.331 -22.185   5.236  1.00  0.00    -0.532 OA
ENDBRANCH  14  18
ENDBRANCH   5   8
BRANCH   1  21
HETATM   21  C   UNL     1      40.850 -11.844   5.119  1.00  0.00     0.273 C 
BRANCH  21  22
HETATM   22  C   UNL     1      40.715 -11.491   6.574  1.00  0.00    -0.033 A 
HETATM   23  C   UNL     1      39.506 -11.719   7.249  1.00  0.00     0.009 A 
HETATM   24  C   UNL     1      39.381 -11.393   8.600  1.00  0.00     0.001 A 
HETATM   25  C   UNL     1      40.456 -10.832   9.286  1.00  0.00     0.000 A 
HETATM   26  C   UNL     1      41.659 -10.596   8.626  1.00  0.00     0.001 A 
HETATM   27  C   UNL     1      41.791 -10.925   7.276  1.00  0.00     0.009 A 
ENDBRANCH  21  22
ENDBRANCH   1  21
TORSDOF 4
ENDMDL
MODEL 8
REMARK VINA RESULT:      -7.8      6.270      8.771
REMARK  4 active torsions:
REMARK  status: ('A' for Active; 'I' for Inactive)
REMARK    1  A    between atoms: C_4  and  C_5 
REMARK    2  A    between atoms: C_5  and  N_6 
REMARK    3  A    between atoms: C_10  and  C_11 
REMARK    4  A    between atoms: C_15  and  N_16 
ROOT
HETATM    1  N   UNL     1      39.472 -14.137  -0.497  1.00  0.00    -0.064 N 
HETATM    2  H   UNL     1      39.009 -14.982  -0.850  1.00  0.00     0.280 HD
HETATM    3  C   UNL     1      40.954 -14.411  -0.575  1.00  0.00     0.263 C 
HETATM    4  C   UNL     1      41.471 -15.247   0.549  1.00  0.00     0.008 C 
HETATM    5  C   UNL     1      40.753 -15.597   1.630  1.00  0.00    -0.046 C 
HETATM    6  C   UNL     1      39.317 -15.157   1.776  1.00  0.00     0.067 C 
HETATM    7  C   UNL     1      39.013 -13.924   0.925  1.00  0.00     0.240 C 
ENDROOT
BRANCH   5   8
HETATM    8  C   UNL     1      41.287 -16.342   2.729  1.00  0.00    -0.002 A 
HETATM    9  C   UNL     1      42.125 -17.503   2.694  1.00  0.00     0.003 A 
HETATM   10  C   UNL     1      42.428 -17.827   4.020  1.00  0.00     0.045 A 
HETATM   11  C   UNL     1      42.659 -18.314   1.668  1.00  0.00     0.017 A 
HETATM   12  C   UNL     1      43.246 -18.908   4.378  1.00  0.00     0.066 A 
HETATM   13  N   UNL     1      41.792 -16.908   4.823  1.00  0.00    -0.364 N 
HETATM   14  C   UNL     1      43.770 -19.688   3.336  1.00  0.00     0.105 A 
HETATM   15  C   UNL     1      43.481 -19.403   1.997  1.00  0.00     0.037 A 
HETATM   16  H   UNL     1      41.841 -16.898   5.834  1.00  0.00     0.165 HD
HETATM   17  C   UNL     1      41.108 -16.003   4.054  1.00  0.00     0.101 A 
BRANCH  14  18
HETATM   18  N   UNL     1      44.640 -20.827   3.664  1.00  0.00    -0.116 N 
HETATM   19  O   UNL     1      44.780 -21.709   2.807  1.00  0.00    -0.532 OA
HETATM   20  O   UNL     1      45.179 -20.835   4.780  1.00  0.00    -0.532 OA
ENDBRANCH  14  18
ENDBRANCH   5   8
BRANCH   1  21
HETATM   21  C   UNL     1      39.042 -12.996  -1.389  1.00  0.00     0.273 C 
BRANCH  21  22
HETATM   22  C   UNL     1      38.097 -13.409  -2.483  1.00  0.00    -0.033 A 
HETATM   23  C   UNL     1      38.041 -14.747  -2.903  1.00  0.00     0.009 A 
HETATM   24  C   UNL     1      37.163 -15.130  -3.918  1.00  0.00     0.001 A 
HETATM   25  C   UNL     1      36.341 -14.184  -4.525  1.00  0.00     0.000 A 
HETATM   26  C   UNL     1      36.391 -12.853  -4.120  1.00  0.00     0.001 A 
HETATM   27  C   UNL     1      37.265 -12.465  -3.102  1.00  0.00     0.009 A 
ENDBRANCH  21  22
ENDBRANCH   1  21
TORSDOF 4
ENDMDL
MODEL 9
REMARK VINA RESULT:      -7.8      5.440      7.647
REMARK  4 active torsions:
REMARK  status: ('A' for Active; 'I' for Inactive)
REMARK    1  A    between atoms: C_4  and  C_5 
REMARK    2  A    between atoms: C_5  and  N_6 
REMARK    3  A    between atoms: C_10  and  C_11 
REMARK    4  A    between atoms: C_15  and  N_16 
ROOT
HETATM    1  N   UNL     1      41.851 -14.663  -1.400  1.00  0.00    -0.064 N 
HETATM    2  H   UNL     1      42.840 -14.936  -1.428  1.00  0.00     0.280 HD
HETATM    3  C   UNL     1      41.737 -13.613  -0.323  1.00  0.00     0.263 C 
HETATM    4  C   UNL     1      41.692 -14.172   1.060  1.00  0.00     0.008 C 
HETATM    5  C   UNL     1      41.589 -15.482   1.349  1.00  0.00    -0.046 C 
HETATM    6  C   UNL     1      41.520 -16.510   0.247  1.00  0.00     0.067 C 
HETATM    7  C   UNL     1      41.045 -15.897  -1.071  1.00  0.00     0.240 C 
ENDROOT
BRANCH   5   8
HETATM    8  C   UNL     1      41.479 -15.992   2.681  1.00  0.00    -0.002 A 
HETATM    9  C   UNL     1      42.255 -17.020   3.308  1.00  0.00     0.003 A 
HETATM   10  C   UNL     1      41.808 -17.119   4.629  1.00  0.00     0.045 A 
HETATM   11  C   UNL     1      43.294 -17.880   2.886  1.00  0.00     0.017 A 
HETATM   12  C   UNL     1      42.351 -18.019   5.557  1.00  0.00     0.066 A 
HETATM   13  N   UNL     1      40.799 -16.198   4.791  1.00  0.00    -0.364 N 
HETATM   14  C   UNL     1      43.390 -18.851   5.111  1.00  0.00     0.105 A 
HETATM   15  C   UNL     1      43.857 -18.790   3.794  1.00  0.00     0.037 A 
HETATM   16  H   UNL     1      40.293 -16.046   5.656  1.00  0.00     0.165 HD
HETATM   17  C   UNL     1      40.598 -15.508   3.625  1.00  0.00     0.101 A 
BRANCH  14  18
HETATM   18  N   UNL     1      43.996 -19.804   6.053  1.00  0.00    -0.116 N 
HETATM   19  O   UNL     1      43.850 -19.588   7.263  1.00  0.00    -0.532 OA
HETATM   20  O   UNL     1      44.618 -20.764   5.576  1.00  0.00    -0.532 OA
ENDBRANCH  14  18
ENDBRANCH   5   8
BRANCH   1  21
HETATM   21  C   UNL     1      41.504 -14.133  -2.772  1.00  0.00     0.273 C 
BRANCH  21  22
HETATM   22  C   UNL     1      40.088 -14.421  -3.189  1.00  0.00    -0.033 A 
HETATM   23  C   UNL     1      39.779 -15.602  -3.880  1.00  0.00     0.009 A 
HETATM   24  C   UNL     1      38.465 -15.870  -4.266  1.00  0.00     0.001 A 
HETATM   25  C   UNL     1      37.452 -14.960  -3.973  1.00  0.00     0.000 A 
HETATM   26  C   UNL     1      37.747 -13.782  -3.292  1.00  0.00     0.001 A 
HETATM   27  C   UNL     1      39.059 -13.511  -2.899  1.00  0.00     0.009 A 
ENDBRANCH  21  22
ENDBRANCH   1  21
TORSDOF 4
ENDMDL
MODEL 10
REMARK VINA RESULT:      -7.8      5.756      7.173
REMARK  4 active torsions:
REMARK  status: ('A' for Active; 'I' for Inactive)
REMARK    1  A    between atoms: C_4  and  C_5 
REMARK    2  A    between atoms: C_5  and  N_6 
REMARK    3  A    between atoms: C_10  and  C_11 
REMARK    4  A    between atoms: C_15  and  N_16 
ROOT
HETATM    1  N   UNL     1      43.123 -18.071   2.851  1.00  0.00    -0.064 N 
HETATM    2  H   UNL     1      42.723 -18.918   2.434  1.00  0.00     0.280 HD
HETATM    3  C   UNL     1      41.963 -17.312   3.448  1.00  0.00     0.263 C 
HETATM    4  C   UNL     1      41.177 -16.531   2.448  1.00  0.00     0.008 C 
HETATM    5  C   UNL     1      41.536 -16.359   1.164  1.00  0.00    -0.046 C 
HETATM    6  C   UNL     1      42.803 -16.979   0.629  1.00  0.00     0.067 C 
HETATM    7  C   UNL     1      43.797 -17.291   1.748  1.00  0.00     0.240 C 
ENDROOT
BRANCH   5   8
HETATM    8  C   UNL     1      40.803 -15.550   0.239  1.00  0.00    -0.002 A 
HETATM    9  C   UNL     1      39.773 -14.594   0.513  1.00  0.00     0.003 A 
HETATM   10  C   UNL     1      39.410 -14.023  -0.711  1.00  0.00     0.045 A 
HETATM   11  C   UNL     1      39.110 -14.152   1.680  1.00  0.00     0.017 A 
HETATM   12  C   UNL     1      38.432 -13.027  -0.834  1.00  0.00     0.066 A 
HETATM   13  N   UNL     1      40.180 -14.617  -1.685  1.00  0.00    -0.364 N 
HETATM   14  C   UNL     1      37.799 -12.602   0.345  1.00  0.00     0.105 A 
HETATM   15  C   UNL     1      38.126 -13.155   1.588  1.00  0.00     0.037 A 
HETATM   16  H   UNL     1      40.132 -14.392  -2.671  1.00  0.00     0.165 HD
HETATM   17  C   UNL     1      41.029 -15.533  -1.122  1.00  0.00     0.101 A 
BRANCH  14  18
HETATM   18  N   UNL     1      36.772 -11.552   0.266  1.00  0.00    -0.116 N 
HETATM   19  O   UNL     1      36.248 -11.343  -0.836  1.00  0.00    -0.532 OA
HETATM   20  O   UNL     1      36.497 -10.939   1.307  1.00  0.00    -0.532 OA
ENDBRANCH  14  18
ENDBRANCH   5   8
BRANCH   1  21
HETATM   21  C   UNL     1      44.121 -18.523   3.891  1.00  0.00     0.273 C 
BRANCH  21  22
HETATM   22  C   UNL     1      44.350 -20.009   3.900  1.00  0.00    -0.033 A 
HETATM   23  C   UNL     1      44.211 -20.755   2.720  1.00  0.00     0.009 A 
HETATM   24  C   UNL     1      44.425 -22.134   2.728  1.00  0.00     0.001 A 
HETATM   25  C   UNL     1      44.772 -22.780   3.912  1.00  0.00     0.000 A 
HETATM   26  C   UNL     1      44.908 -22.051   5.091  1.00  0.00     0.001 A 
HETATM   27  C   UNL     1      44.699 -20.671   5.087  1.00  0.00     0.009 A 
ENDBRANCH  21  22
ENDBRANCH   1  21
TORSDOF 4
ENDMDL
