MODEL 1
REMARK VINA RESULT:      -8.7      0.000      0.000
REMARK  6 active torsions:
REMARK  status: ('A' for Active; 'I' for Inactive)
REMARK    1  A    between atoms: C_9  and  C_10 
REMARK    2  A    between atoms: C_10  and  N_11 
REMARK       I    between atoms: N_11  and  C_12 
REMARK    3  A    between atoms: N_11  and  C_22 
REMARK    4  A    between atoms: C_12  and  C_13 
REMARK    5  A    between atoms: C_16  and  O_17 
REMARK    6  A    between atoms: C_22  and  C_23 
ROOT
HETATM    1  N   UNL     1      41.057 -14.923   0.293  1.00  0.00    -0.341 N 
HETATM    2  C   UNL     1      41.228 -14.454  -1.012  1.00  0.00     0.254 C 
HETATM    3  O   UNL     1      42.228 -13.845  -1.387  1.00  0.00    -0.267 OA
ENDROOT
BRANCH   1   4
HETATM    4  C   UNL     1      42.132 -14.642   1.258  1.00  0.00     0.170 C 
BRANCH   4   5
HETATM    5  C   UNL     1      42.648 -15.858   1.983  1.00  0.00     0.029 A 
HETATM    6  C   UNL     1      43.017 -15.585   3.411  1.00  0.00     0.253 A 
HETATM    7  N   UNL     1      43.501 -16.631   4.150  1.00  0.00    -0.322 N 
HETATM    8  O   UNL     1      42.903 -14.470   3.911  1.00  0.00    -0.268 OA
HETATM    9  C   UNL     1      43.706 -17.915   3.636  1.00  0.00     0.045 A 
HETATM   10  H   UNL     1      43.747 -16.417   5.105  1.00  0.00     0.169 HD
HETATM   11  C   UNL     1      43.377 -18.175   2.303  1.00  0.00    -0.008 A 
HETATM   12  C   UNL     1      44.247 -18.909   4.448  1.00  0.00     0.031 A 
HETATM   13  C   UNL     1      43.614 -19.449   1.776  1.00  0.00     0.020 A 
HETATM   14  C   UNL     1      42.814 -17.099   1.486  1.00  0.00     0.028 A 
HETATM   15  C   UNL     1      44.184 -20.454   2.575  1.00  0.00    -0.061 A 
HETATM   16  C   UNL     1      44.435 -21.824   2.015  1.00  0.00     0.048 C 
HETATM   17  C   UNL     1      44.481 -20.178   3.917  1.00  0.00     0.009 A 
ENDBRANCH   4   5
ENDBRANCH   1   4
BRANCH   1  18
HETATM   18  C   UNL     1      39.764 -15.345   0.864  1.00  0.00     0.158 C 
BRANCH  18  19
HETATM   19  C   UNL     1      38.922 -14.184   1.408  1.00  0.00     0.139 C 
HETATM   20  O   UNL     1      39.561 -12.914   1.189  1.00  0.00    -0.384 OA
HETATM   21  C   UNL     1      38.550 -11.931   0.923  1.00  0.00     0.168 C 
HETATM   22  C   UNL     1      37.209 -12.632   1.004  1.00  0.00     0.029 C 
HETATM   23  C   UNL     1      37.575 -14.066   0.714  1.00  0.00     0.035 C 
ENDBRANCH  18  19
ENDBRANCH   1  18
BRANCH   2  24
HETATM   24  C   UNL     1      40.177 -14.698  -2.027  1.00  0.00     0.032 A 
HETATM   25  C   UNL     1      39.209 -13.712  -2.231  1.00  0.00     0.020 A 
HETATM   26  C   UNL     1      38.224 -13.900  -3.202  1.00  0.00     0.038 A 
HETATM   27  C   UNL     1      38.203 -15.060  -3.981  1.00  0.00     0.068 A 
HETATM   28  C   UNL     1      39.190 -16.030  -3.794  1.00  0.00     0.038 A 
HETATM   29  C   UNL     1      40.186 -15.844  -2.827  1.00  0.00     0.020 A 
BRANCH  27  30
HETATM   30  O   UNL     1      37.181 -15.115  -4.889  1.00  0.00    -0.356 OA
HETATM   31  C   UNL     1      36.052 -14.288  -4.645  1.00  0.00     0.210 C 
ENDBRANCH  27  30
ENDBRANCH   2  24
TORSDOF 6
ENDMDL
MODEL 2
REMARK VINA RESULT:      -8.7      0.971      1.459
REMARK  6 active torsions:
REMARK  status: ('A' for Active; 'I' for Inactive)
REMARK    1  A    between atoms: C_9  and  C_10 
REMARK    2  A    between atoms: C_10  and  N_11 
REMARK       I    between atoms: N_11  and  C_12 
REMARK    3  A    between atoms: N_11  and  C_22 
REMARK    4  A    between atoms: C_12  and  C_13 
REMARK    5  A    between atoms: C_16  and  O_17 
REMARK    6  A    between atoms: C_22  and  C_23 
ROOT
HETATM    1  N   UNL     1      41.162 -14.909   0.537  1.00  0.00    -0.341 N 
HETATM    2  C   UNL     1      41.289 -14.291  -0.709  1.00  0.00     0.254 C 
HETATM    3  O   UNL     1      42.261 -13.611  -1.032  1.00  0.00    -0.267 OA
ENDROOT
BRANCH   1   4
HETATM    4  C   UNL     1      42.248 -14.703   1.508  1.00  0.00     0.170 C 
BRANCH   4   5
HETATM    5  C   UNL     1      42.750 -15.967   2.156  1.00  0.00     0.029 A 
HETATM    6  C   UNL     1      43.158 -15.778   3.587  1.00  0.00     0.253 A 
HETATM    7  N   UNL     1      43.632 -16.872   4.259  1.00  0.00    -0.322 N 
HETATM    8  O   UNL     1      43.084 -14.688   4.147  1.00  0.00    -0.268 OA
HETATM    9  C   UNL     1      43.792 -18.132   3.675  1.00  0.00     0.045 A 
HETATM   10  H   UNL     1      43.904 -16.715   5.218  1.00  0.00     0.169 HD
HETATM   11  C   UNL     1      43.426 -18.314   2.338  1.00  0.00    -0.008 A 
HETATM   12  C   UNL     1      44.325 -19.181   4.421  1.00  0.00     0.031 A 
HETATM   13  C   UNL     1      43.619 -19.565   1.741  1.00  0.00     0.020 A 
HETATM   14  C   UNL     1      42.872 -17.183   1.592  1.00  0.00     0.028 A 
HETATM   15  C   UNL     1      44.181 -20.623   2.472  1.00  0.00    -0.061 A 
HETATM   16  C   UNL     1      44.384 -21.968   1.837  1.00  0.00     0.048 C 
HETATM   17  C   UNL     1      44.515 -20.426   3.819  1.00  0.00     0.009 A 
ENDBRANCH   4   5
ENDBRANCH   1   4
BRANCH   1  18
HETATM   18  C   UNL     1      39.895 -15.436   1.081  1.00  0.00     0.158 C 
BRANCH  18  19
HETATM   19  C   UNL     1      39.240 -14.514   2.118  1.00  0.00     0.139 C 
HETATM   20  O   UNL     1      39.763 -14.739   3.438  1.00  0.00    -0.384 OA
HETATM   21  C   UNL     1      39.809 -13.484   4.134  1.00  0.00     0.168 C 
HETATM   22  C   UNL     1      39.262 -12.430   3.195  1.00  0.00     0.029 C 
HETATM   23  C   UNL     1      39.507 -13.044   1.839  1.00  0.00     0.035 C 
ENDBRANCH  18  19
ENDBRANCH   1  18
BRANCH   2  24
HETATM   24  C   UNL     1      40.223 -14.454  -1.725  1.00  0.00     0.032 A 
HETATM   25  C   UNL     1      40.360 -15.469  -2.675  1.00  0.00     0.020 A 
HETATM   26  C   UNL     1      39.358 -15.667  -3.626  1.00  0.00     0.038 A 
HETATM   27  C   UNL     1      38.211 -14.869  -3.629  1.00  0.00     0.068 A 
HETATM   28  C   UNL     1      38.064 -13.875  -2.660  1.00  0.00     0.038 A 
HETATM   29  C   UNL     1      39.063 -13.675  -1.699  1.00  0.00     0.020 A 
BRANCH  27  30
HETATM   30  O   UNL     1      37.314 -15.170  -4.618  1.00  0.00    -0.356 OA
HETATM   31  C   UNL     1      36.110 -14.415  -4.651  1.00  0.00     0.210 C 
ENDBRANCH  27  30
ENDBRANCH   2  24
TORSDOF 6
ENDMDL
MODEL 3
REMARK VINA RESULT:      -8.6      3.095      4.126
REMARK  6 active torsions:
REMARK  status: ('A' for Active; 'I' for Inactive)
REMARK    1  A    between atoms: C_9  and  C_10 
REMARK    2  A    between atoms: C_10  and  N_11 
REMARK       I    between atoms: N_11  and  C_12 
REMARK    3  A    between atoms: N_11  and  C_22 
REMARK    4  A    between atoms: C_12  and  C_13 
REMARK    5  A    between atoms: C_16  and  O_17 
REMARK    6  A    between atoms: C_22  and  C_23 
ROOT
HETATM    1  N   UNL     1      41.739 -14.912   4.254  1.00  0.00    -0.341 N 
HETATM    2  C   UNL     1      41.697 -14.312   2.993  1.00  0.00     0.254 C 
HETATM    3  O   UNL     1      42.700 -14.063   2.328  1.00  0.00    -0.267 OA
ENDROOT
BRANCH   1   4
HETATM    4  C   UNL     1      43.065 -15.233   4.805  1.00  0.00     0.170 C 
BRANCH   4   5
HETATM    5  C   UNL     1      43.445 -16.688   4.701  1.00  0.00     0.029 A 
HETATM    6  C   UNL     1      44.042 -17.238   5.963  1.00  0.00     0.253 A 
HETATM    7  N   UNL     1      44.422 -18.552   5.962  1.00  0.00    -0.322 N 
HETATM    8  O   UNL     1      44.197 -16.545   6.965  1.00  0.00    -0.268 OA
HETATM    9  C   UNL     1      44.323 -19.388   4.846  1.00  0.00     0.045 A 
HETATM   10  H   UNL     1      44.825 -18.893   6.822  1.00  0.00     0.169 HD
HETATM   11  C   UNL     1      43.781 -18.880   3.661  1.00  0.00    -0.008 A 
HETATM   12  C   UNL     1      44.778 -20.703   4.920  1.00  0.00     0.031 A 
HETATM   13  C   UNL     1      43.714 -19.704   2.533  1.00  0.00     0.020 A 
HETATM   14  C   UNL     1      43.318 -17.492   3.629  1.00  0.00     0.028 A 
HETATM   15  C   UNL     1      44.193 -21.023   2.585  1.00  0.00    -0.061 A 
HETATM   16  C   UNL     1      44.119 -21.911   1.377  1.00  0.00     0.048 C 
HETATM   17  C   UNL     1      44.708 -21.519   3.790  1.00  0.00     0.009 A 
ENDBRANCH   4   5
ENDBRANCH   1   4
BRANCH   1  18
HETATM   18  C   UNL     1      40.618 -14.917   5.213  1.00  0.00     0.158 C 
BRANCH  18  19
HETATM   19  C   UNL     1      40.500 -13.625   6.031  1.00  0.00     0.139 C 
HETATM   20  O   UNL     1      41.553 -12.697   5.717  1.00  0.00    -0.384 OA
HETATM   21  C   UNL     1      41.029 -11.363   5.792  1.00  0.00     0.168 C 
HETATM   22  C   UNL     1      39.574 -11.476   6.198  1.00  0.00     0.029 C 
HETATM   23  C   UNL     1      39.215 -12.867   5.740  1.00  0.00     0.035 C 
ENDBRANCH  18  19
ENDBRANCH   1  18
BRANCH   2  24
HETATM   24  C   UNL     1      40.391 -13.957   2.390  1.00  0.00     0.032 A 
HETATM   25  C   UNL     1      40.084 -12.605   2.218  1.00  0.00     0.020 A 
HETATM   26  C   UNL     1      38.875 -12.240   1.624  1.00  0.00     0.038 A 
HETATM   27  C   UNL     1      37.973 -13.214   1.187  1.00  0.00     0.068 A 
HETATM   28  C   UNL     1      38.297 -14.564   1.333  1.00  0.00     0.038 A 
HETATM   29  C   UNL     1      39.512 -14.937   1.923  1.00  0.00     0.020 A 
BRANCH  27  30
HETATM   30  O   UNL     1      36.828 -12.716   0.629  1.00  0.00    -0.356 OA
HETATM   31  C   UNL     1      36.502 -11.362   0.915  1.00  0.00     0.210 C 
ENDBRANCH  27  30
ENDBRANCH   2  24
TORSDOF 6
ENDMDL
MODEL 4
REMARK VINA RESULT:      -8.5      2.078      2.923
REMARK  6 active torsions:
REMARK  status: ('A' for Active; 'I' for Inactive)
REMARK    1  A    between atoms: C_9  and  C_10 
REMARK    2  A    between atoms: C_10  and  N_11 
REMARK       I    between atoms: N_11  and  C_12 
REMARK    3  A    between atoms: N_11  and  C_22 
REMARK    4  A    between atoms: C_12  and  C_13 
REMARK    5  A    between atoms: C_16  and  O_17 
REMARK    6  A    between atoms: C_22  and  C_23 
ROOT
HETATM    1  N   UNL     1      41.215 -14.969   2.601  1.00  0.00    -0.341 N 
HETATM    2  C   UNL     1      40.254 -15.413   1.689  1.00  0.00     0.254 C 
HETATM    3  O   UNL     1      39.400 -16.254   1.961  1.00  0.00    -0.267 OA
ENDROOT
BRANCH   1   4
HETATM    4  C   UNL     1      41.200 -15.570   3.944  1.00  0.00     0.170 C 
BRANCH   4   5
HETATM    5  C   UNL     1      42.078 -16.786   4.089  1.00  0.00     0.029 A 
HETATM    6  C   UNL     1      42.820 -16.830   5.393  1.00  0.00     0.253 A 
HETATM    7  N   UNL     1      43.647 -17.898   5.613  1.00  0.00    -0.322 N 
HETATM    8  O   UNL     1      42.706 -15.946   6.236  1.00  0.00    -0.268 OA
HETATM    9  C   UNL     1      43.866 -18.916   4.681  1.00  0.00     0.045 A 
HETATM   10  H   UNL     1      44.137 -17.898   6.495  1.00  0.00     0.169 HD
HETATM   11  C   UNL     1      43.189 -18.876   3.458  1.00  0.00    -0.008 A 
HETATM   12  C   UNL     1      44.762 -19.943   4.971  1.00  0.00     0.031 A 
HETATM   13  C   UNL     1      43.434 -19.874   2.509  1.00  0.00     0.020 A 
HETATM   14  C   UNL     1      42.259 -17.777   3.196  1.00  0.00     0.028 A 
HETATM   15  C   UNL     1      44.354 -20.900   2.776  1.00  0.00    -0.061 A 
HETATM   16  C   UNL     1      44.615 -21.976   1.763  1.00  0.00     0.048 C 
HETATM   17  C   UNL     1      45.001 -20.935   4.020  1.00  0.00     0.009 A 
ENDBRANCH   4   5
ENDBRANCH   1   4
BRANCH   1  18
HETATM   18  C   UNL     1      42.441 -14.236   2.230  1.00  0.00     0.158 C 
BRANCH  18  19
HETATM   19  C   UNL     1      42.281 -12.711   2.265  1.00  0.00     0.139 C 
HETATM   20  O   UNL     1      42.360 -12.135   0.950  1.00  0.00    -0.384 OA
HETATM   21  C   UNL     1      41.463 -11.016   0.883  1.00  0.00     0.168 C 
HETATM   22  C   UNL     1      40.811 -10.883   2.244  1.00  0.00     0.029 C 
HETATM   23  C   UNL     1      40.924 -12.281   2.797  1.00  0.00     0.035 C 
ENDBRANCH  18  19
ENDBRANCH   1  18
BRANCH   2  24
HETATM   24  C   UNL     1      40.224 -14.852   0.318  1.00  0.00     0.032 A 
HETATM   25  C   UNL     1      41.083 -15.393  -0.641  1.00  0.00     0.020 A 
HETATM   26  C   UNL     1      41.056 -14.906  -1.948  1.00  0.00     0.038 A 
HETATM   27  C   UNL     1      40.169 -13.890  -2.312  1.00  0.00     0.068 A 
HETATM   28  C   UNL     1      39.291 -13.371  -1.358  1.00  0.00     0.038 A 
HETATM   29  C   UNL     1      39.308 -13.861  -0.046  1.00  0.00     0.020 A 
BRANCH  27  30
HETATM   30  O   UNL     1      40.253 -13.506  -3.623  1.00  0.00    -0.356 OA
HETATM   31  C   UNL     1      40.302 -12.111  -3.888  1.00  0.00     0.210 C 
ENDBRANCH  27  30
ENDBRANCH   2  24
TORSDOF 6
ENDMDL
MODEL 5
REMARK VINA RESULT:      -8.5      1.984      2.262
REMARK  6 active torsions:
REMARK  status: ('A' for Active; 'I' for Inactive)
REMARK    1  A    between atoms: C_9  and  C_10 
REMARK    2  A    between atoms: C_10  and  N_11 
REMARK       I    between atoms: N_11  and  C_12 
REMARK    3  A    between atoms: N_11  and  C_22 
REMARK    4  A    between atoms: C_12  and  C_13 
REMARK    5  A    between atoms: C_16  and  O_17 
REMARK    6  A    between atoms: C_22  and  C_23 
ROOT
HETATM    1  N   UNL     1      41.126 -14.932   2.120  1.00  0.00    -0.341 N 
HETATM    2  C   UNL     1      41.823 -13.954   1.407  1.00  0.00     0.254 C 
HETATM    3  O   UNL     1      42.754 -13.306   1.880  1.00  0.00    -0.267 OA
ENDROOT
BRANCH   1   4
HETATM    4  C   UNL     1      41.528 -15.167   3.516  1.00  0.00     0.170 C 
BRANCH   4   5
HETATM    5  C   UNL     1      42.324 -16.429   3.728  1.00  0.00     0.029 A 
HETATM    6  C   UNL     1      43.108 -16.428   5.008  1.00  0.00     0.253 A 
HETATM    7  N   UNL     1      43.866 -17.533   5.285  1.00  0.00    -0.322 N 
HETATM    8  O   UNL     1      43.087 -15.476   5.783  1.00  0.00    -0.268 OA
HETATM    9  C   UNL     1      43.978 -18.632   4.429  1.00  0.00     0.045 A 
HETATM   10  H   UNL     1      44.387 -17.502   6.149  1.00  0.00     0.169 HD
HETATM   11  C   UNL     1      43.262 -18.636   3.229  1.00  0.00    -0.008 A 
HETATM   12  C   UNL     1      44.811 -19.696   4.770  1.00  0.00     0.031 A 
HETATM   13  C   UNL     1      43.401 -19.718   2.353  1.00  0.00     0.020 A 
HETATM   14  C   UNL     1      42.402 -17.495   2.910  1.00  0.00     0.028 A 
HETATM   15  C   UNL     1      44.257 -20.785   2.671  1.00  0.00    -0.061 A 
HETATM   16  C   UNL     1      44.405 -21.951   1.737  1.00  0.00     0.048 C 
HETATM   17  C   UNL     1      44.945 -20.772   3.893  1.00  0.00     0.009 A 
ENDBRANCH   4   5
ENDBRANCH   1   4
BRANCH   1  18
HETATM   18  C   UNL     1      39.815 -15.480   1.721  1.00  0.00     0.158 C 
BRANCH  18  19
HETATM   19  C   UNL     1      38.657 -14.488   1.887  1.00  0.00     0.139 C 
HETATM   20  O   UNL     1      39.095 -13.248   2.469  1.00  0.00    -0.384 OA
HETATM   21  C   UNL     1      38.337 -12.175   1.892  1.00  0.00     0.168 C 
HETATM   22  C   UNL     1      37.359 -12.793   0.913  1.00  0.00     0.029 C 
HETATM   23  C   UNL     1      38.034 -14.093   0.557  1.00  0.00     0.035 C 
ENDBRANCH  18  19
ENDBRANCH   1  18
BRANCH   2  24
HETATM   24  C   UNL     1      41.458 -13.667   0.001  1.00  0.00     0.032 A 
HETATM   25  C   UNL     1      41.176 -12.346  -0.356  1.00  0.00     0.020 A 
HETATM   26  C   UNL     1      40.859 -12.039  -1.680  1.00  0.00     0.038 A 
HETATM   27  C   UNL     1      40.832 -13.038  -2.657  1.00  0.00     0.068 A 
HETATM   28  C   UNL     1      41.144 -14.353  -2.302  1.00  0.00     0.038 A 
HETATM   29  C   UNL     1      41.470 -14.666  -0.976  1.00  0.00     0.020 A 
BRANCH  27  30
HETATM   30  O   UNL     1      40.502 -12.599  -3.910  1.00  0.00    -0.356 OA
HETATM   31  C   UNL     1      40.161 -11.226  -4.046  1.00  0.00     0.210 C 
ENDBRANCH  27  30
ENDBRANCH   2  24
TORSDOF 6
ENDMDL
MODEL 6
REMARK VINA RESULT:      -8.4      2.450      7.993
REMARK  6 active torsions:
REMARK  status: ('A' for Active; 'I' for Inactive)
REMARK    1  A    between atoms: C_9  and  C_10 
REMARK    2  A    between atoms: C_10  and  N_11 
REMARK       I    between atoms: N_11  and  C_12 
REMARK    3  A    between atoms: N_11  and  C_22 
REMARK    4  A    between atoms: C_12  and  C_13 
REMARK    5  A    between atoms: C_16  and  O_17 
REMARK    6  A    between atoms: C_22  and  C_23 
ROOT
HETATM    1  N   UNL     1      42.949 -16.227   2.992  1.00  0.00    -0.341 N 
HETATM    2  C   UNL     1      43.823 -17.043   2.271  1.00  0.00     0.254 C 
HETATM    3  O   UNL     1      44.498 -16.642   1.324  1.00  0.00    -0.267 OA
ENDROOT
BRANCH   1   4
HETATM    4  C   UNL     1      42.826 -14.824   2.567  1.00  0.00     0.170 C 
BRANCH   4   5
HETATM    5  C   UNL     1      41.734 -14.574   1.559  1.00  0.00     0.029 A 
HETATM    6  C   UNL     1      40.583 -13.787   2.115  1.00  0.00     0.253 A 
HETATM    7  N   UNL     1      39.539 -13.515   1.273  1.00  0.00    -0.322 N 
HETATM    8  O   UNL     1      40.560 -13.403   3.280  1.00  0.00    -0.268 OA
HETATM    9  C   UNL     1      39.472 -13.962  -0.050  1.00  0.00     0.045 A 
HETATM   10  H   UNL     1      38.777 -12.990   1.675  1.00  0.00     0.169 HD
HETATM   11  C   UNL     1      40.533 -14.706  -0.572  1.00  0.00    -0.008 A 
HETATM   12  C   UNL     1      38.348 -13.676  -0.823  1.00  0.00     0.031 A 
HETATM   13  C   UNL     1      40.452 -15.185  -1.884  1.00  0.00     0.020 A 
HETATM   14  C   UNL     1      41.692 -14.984   0.278  1.00  0.00     0.028 A 
HETATM   15  C   UNL     1      39.315 -14.929  -2.666  1.00  0.00    -0.061 A 
HETATM   16  C   UNL     1      39.226 -15.436  -4.075  1.00  0.00     0.048 C 
HETATM   17  C   UNL     1      38.274 -14.157  -2.131  1.00  0.00     0.009 A 
ENDBRANCH   4   5
ENDBRANCH   1   4
BRANCH   1  18
HETATM   18  C   UNL     1      41.890 -16.729   3.891  1.00  0.00     0.158 C 
BRANCH  18  19
HETATM   19  C   UNL     1      42.083 -16.321   5.357  1.00  0.00     0.139 C 
HETATM   20  O   UNL     1      41.728 -17.385   6.257  1.00  0.00    -0.384 OA
HETATM   21  C   UNL     1      42.609 -17.343   7.389  1.00  0.00     0.168 C 
HETATM   22  C   UNL     1      43.547 -16.171   7.184  1.00  0.00     0.029 C 
HETATM   23  C   UNL     1      43.532 -16.002   5.686  1.00  0.00     0.035 C 
ENDBRANCH  18  19
ENDBRANCH   1  18
BRANCH   2  24
HETATM   24  C   UNL     1      43.982 -18.467   2.646  1.00  0.00     0.032 A 
HETATM   25  C   UNL     1      43.577 -19.444   1.734  1.00  0.00     0.020 A 
HETATM   26  C   UNL     1      43.742 -20.794   2.047  1.00  0.00     0.038 A 
HETATM   27  C   UNL     1      44.322 -21.179   3.259  1.00  0.00     0.068 A 
HETATM   28  C   UNL     1      44.753 -20.199   4.155  1.00  0.00     0.038 A 
HETATM   29  C   UNL     1      44.596 -18.842   3.844  1.00  0.00     0.020 A 
BRANCH  27  30
HETATM   30  O   UNL     1      44.419 -22.532   3.436  1.00  0.00    -0.356 OA
HETATM   31  C   UNL     1      44.811 -22.990   4.723  1.00  0.00     0.210 C 
ENDBRANCH  27  30
ENDBRANCH   2  24
TORSDOF 6
ENDMDL
MODEL 7
REMARK VINA RESULT:      -8.3      2.974      8.287
REMARK  6 active torsions:
REMARK  status: ('A' for Active; 'I' for Inactive)
REMARK    1  A    between atoms: C_9  and  C_10 
REMARK    2  A    between atoms: C_10  and  N_11 
REMARK       I    between atoms: N_11  and  C_12 
REMARK    3  A    between atoms: N_11  and  C_22 
REMARK    4  A    between atoms: C_12  and  C_13 
REMARK    5  A    between atoms: C_16  and  O_17 
REMARK    6  A    between atoms: C_22  and  C_23 
ROOT
HETATM    1  N   UNL     1      41.939 -15.888   2.110  1.00  0.00    -0.341 N 
HETATM    2  C   UNL     1      41.671 -17.258   2.160  1.00  0.00     0.254 C 
HETATM    3  O   UNL     1      40.618 -17.757   1.770  1.00  0.00    -0.267 OA
ENDROOT
BRANCH   1   4
HETATM    4  C   UNL     1      40.882 -15.011   1.581  1.00  0.00     0.170 C 
BRANCH   4   5
HETATM    5  C   UNL     1      41.346 -14.052   0.515  1.00  0.00     0.029 A 
HETATM    6  C   UNL     1      41.434 -14.676  -0.846  1.00  0.00     0.253 A 
HETATM    7  N   UNL     1      41.852 -13.882  -1.879  1.00  0.00    -0.322 N 
HETATM    8  O   UNL     1      41.154 -15.855  -1.042  1.00  0.00    -0.268 OA
HETATM    9  C   UNL     1      42.236 -12.546  -1.725  1.00  0.00     0.045 A 
HETATM   10  H   UNL     1      41.908 -14.329  -2.782  1.00  0.00     0.169 HD
HETATM   11  C   UNL     1      42.170 -11.961  -0.458  1.00  0.00    -0.008 A 
HETATM   12  C   UNL     1      42.694 -11.824  -2.825  1.00  0.00     0.031 A 
HETATM   13  C   UNL     1      42.588 -10.636  -0.294  1.00  0.00     0.020 A 
HETATM   14  C   UNL     1      41.686 -12.759   0.670  1.00  0.00     0.028 A 
HETATM   15  C   UNL     1      43.077  -9.904  -1.388  1.00  0.00    -0.061 A 
HETATM   16  C   UNL     1      43.521  -8.480  -1.218  1.00  0.00     0.048 C 
HETATM   17  C   UNL     1      43.109 -10.503  -2.655  1.00  0.00     0.009 A 
ENDBRANCH   4   5
ENDBRANCH   1   4
BRANCH   1  18
HETATM   18  C   UNL     1      43.020 -15.221   2.862  1.00  0.00     0.158 C 
BRANCH  18  19
HETATM   19  C   UNL     1      42.606 -14.773   4.269  1.00  0.00     0.139 C 
HETATM   20  O   UNL     1      43.520 -15.251   5.272  1.00  0.00    -0.384 OA
HETATM   21  C   UNL     1      43.634 -14.257   6.301  1.00  0.00     0.168 C 
HETATM   22  C   UNL     1      42.720 -13.111   5.921  1.00  0.00     0.029 C 
HETATM   23  C   UNL     1      42.616 -13.261   4.424  1.00  0.00     0.035 C 
ENDBRANCH  18  19
ENDBRANCH   1  18
BRANCH   2  24
HETATM   24  C   UNL     1      42.693 -18.189   2.691  1.00  0.00     0.032 A 
HETATM   25  C   UNL     1      42.720 -18.433   4.066  1.00  0.00     0.020 A 
HETATM   26  C   UNL     1      43.652 -19.330   4.591  1.00  0.00     0.038 A 
HETATM   27  C   UNL     1      44.551 -19.996   3.755  1.00  0.00     0.068 A 
HETATM   28  C   UNL     1      44.502 -19.772   2.377  1.00  0.00     0.038 A 
HETATM   29  C   UNL     1      43.564 -18.879   1.842  1.00  0.00     0.020 A 
BRANCH  27  30
HETATM   30  O   UNL     1      45.410 -20.841   4.403  1.00  0.00    -0.356 OA
HETATM   31  C   UNL     1      44.833 -21.854   5.215  1.00  0.00     0.210 C 
ENDBRANCH  27  30
ENDBRANCH   2  24
TORSDOF 6
ENDMDL
MODEL 8
REMARK VINA RESULT:      -8.2      4.259      6.683
REMARK  6 active torsions:
REMARK  status: ('A' for Active; 'I' for Inactive)
REMARK    1  A    between atoms: C_9  and  C_10 
REMARK    2  A    between atoms: C_10  and  N_11 
REMARK       I    between atoms: N_11  and  C_12 
REMARK    3  A    between atoms: N_11  and  C_22 
REMARK    4  A    between atoms: C_12  and  C_13 
REMARK    5  A    between atoms: C_16  and  O_17 
REMARK    6  A    between atoms: C_22  and  C_23 
ROOT
HETATM    1  N   UNL     1      42.047 -14.869   3.236  1.00  0.00    -0.341 N 
HETATM    2  C   UNL     1      40.688 -14.600   3.412  1.00  0.00     0.254 C 
HETATM    3  O   UNL     1      39.796 -15.195   2.811  1.00  0.00    -0.267 OA
ENDROOT
BRANCH   1   4
HETATM    4  C   UNL     1      42.409 -15.906   2.257  1.00  0.00     0.170 C 
BRANCH   4   5
HETATM    5  C   UNL     1      43.006 -17.150   2.864  1.00  0.00     0.029 A 
HETATM    6  C   UNL     1      43.816 -17.955   1.890  1.00  0.00     0.253 A 
HETATM    7  N   UNL     1      44.395 -19.107   2.350  1.00  0.00    -0.322 N 
HETATM    8  O   UNL     1      43.958 -17.611   0.721  1.00  0.00    -0.268 OA
HETATM    9  C   UNL     1      44.237 -19.588   3.653  1.00  0.00     0.045 A 
HETATM   10  H   UNL     1      44.929 -19.630   1.673  1.00  0.00     0.169 HD
HETATM   11  C   UNL     1      43.473 -18.852   4.563  1.00  0.00    -0.008 A 
HETATM   12  C   UNL     1      44.825 -20.795   4.023  1.00  0.00     0.031 A 
HETATM   13  C   UNL     1      43.284 -19.349   5.857  1.00  0.00     0.020 A 
HETATM   14  C   UNL     1      42.872 -17.590   4.129  1.00  0.00     0.028 A 
HETATM   15  C   UNL     1      43.848 -20.578   6.236  1.00  0.00    -0.061 A 
HETATM   16  C   UNL     1      43.652 -21.112   7.625  1.00  0.00     0.048 C 
HETATM   17  C   UNL     1      44.633 -21.286   5.316  1.00  0.00     0.009 A 
ENDBRANCH   4   5
ENDBRANCH   1   4
BRANCH   1  18
HETATM   18  C   UNL     1      43.137 -13.972   3.666  1.00  0.00     0.158 C 
BRANCH  18  19
HETATM   19  C   UNL     1      43.971 -14.529   4.827  1.00  0.00     0.139 C 
HETATM   20  O   UNL     1      44.826 -13.525   5.401  1.00  0.00    -0.384 OA
HETATM   21  C   UNL     1      44.919 -13.753   6.815  1.00  0.00     0.168 C 
HETATM   22  C   UNL     1      44.092 -14.983   7.126  1.00  0.00     0.029 C 
HETATM   23  C   UNL     1      43.109 -15.011   5.982  1.00  0.00     0.035 C 
ENDBRANCH  18  19
ENDBRANCH   1  18
BRANCH   2  24
HETATM   24  C   UNL     1      40.261 -13.560   4.377  1.00  0.00     0.032 A 
HETATM   25  C   UNL     1      40.167 -12.239   3.932  1.00  0.00     0.020 A 
HETATM   26  C   UNL     1      39.738 -11.242   4.810  1.00  0.00     0.038 A 
HETATM   27  C   UNL     1      39.390 -11.553   6.127  1.00  0.00     0.068 A 
HETATM   28  C   UNL     1      39.458 -12.879   6.560  1.00  0.00     0.038 A 
HETATM   29  C   UNL     1      39.880 -13.886   5.682  1.00  0.00     0.020 A 
BRANCH  27  30
HETATM   30  O   UNL     1      38.993 -10.480   6.877  1.00  0.00    -0.356 OA
HETATM   31  C   UNL     1      39.372 -10.471   8.246  1.00  0.00     0.210 C 
ENDBRANCH  27  30
ENDBRANCH   2  24
TORSDOF 6
ENDMDL
MODEL 9
REMARK VINA RESULT:      -8.0      3.123      5.941
REMARK  6 active torsions:
REMARK  status: ('A' for Active; 'I' for Inactive)
REMARK    1  A    between atoms: C_9  and  C_10 
REMARK    2  A    between atoms: C_10  and  N_11 
REMARK       I    between atoms: N_11  and  C_12 
REMARK    3  A    between atoms: N_11  and  C_22 
REMARK    4  A    between atoms: C_12  and  C_13 
REMARK    5  A    between atoms: C_16  and  O_17 
REMARK    6  A    between atoms: C_22  and  C_23 
ROOT
HETATM    1  N   UNL     1      42.045 -14.658   3.019  1.00  0.00    -0.341 N 
HETATM    2  C   UNL     1      42.546 -13.741   3.946  1.00  0.00     0.254 C 
HETATM    3  O   UNL     1      43.746 -13.557   4.137  1.00  0.00    -0.267 OA
ENDROOT
BRANCH   1   4
HETATM    4  C   UNL     1      43.023 -15.452   2.258  1.00  0.00     0.170 C 
BRANCH   4   5
HETATM    5  C   UNL     1      43.404 -16.757   2.910  1.00  0.00     0.029 A 
HETATM    6  C   UNL     1      43.908 -17.781   1.936  1.00  0.00     0.253 A 
HETATM    7  N   UNL     1      44.275 -19.001   2.436  1.00  0.00    -0.322 N 
HETATM    8  O   UNL     1      43.987 -17.551   0.733  1.00  0.00    -0.268 OA
HETATM    9  C   UNL     1      44.165 -19.352   3.785  1.00  0.00     0.045 A 
HETATM   10  H   UNL     1      44.604 -19.672   1.758  1.00  0.00     0.169 HD
HETATM   11  C   UNL     1      43.684 -18.409   4.697  1.00  0.00    -0.008 A 
HETATM   12  C   UNL     1      44.519 -20.634   4.199  1.00  0.00     0.031 A 
HETATM   13  C   UNL     1      43.540 -18.769   6.041  1.00  0.00     0.020 A 
HETATM   14  C   UNL     1      43.322 -17.075   4.216  1.00  0.00     0.028 A 
HETATM   15  C   UNL     1      43.866 -20.066   6.469  1.00  0.00    -0.061 A 
HETATM   16  C   UNL     1      43.718 -20.455   7.911  1.00  0.00     0.048 C 
HETATM   17  C   UNL     1      44.373 -20.987   5.542  1.00  0.00     0.009 A 
ENDBRANCH   4   5
ENDBRANCH   1   4
BRANCH   1  18
HETATM   18  C   UNL     1      40.653 -15.148   2.999  1.00  0.00     0.158 C 
BRANCH  18  19
HETATM   19  C   UNL     1      39.908 -14.834   1.695  1.00  0.00     0.139 C 
HETATM   20  O   UNL     1      38.523 -15.214   1.766  1.00  0.00    -0.384 OA
HETATM   21  C   UNL     1      37.746 -14.265   1.022  1.00  0.00     0.168 C 
HETATM   22  C   UNL     1      38.712 -13.253   0.441  1.00  0.00     0.029 C 
HETATM   23  C   UNL     1      39.887 -13.346   1.382  1.00  0.00     0.035 C 
ENDBRANCH  18  19
ENDBRANCH   1  18
BRANCH   2  24
HETATM   24  C   UNL     1      41.611 -12.918   4.748  1.00  0.00     0.032 A 
HETATM   25  C   UNL     1      41.440 -11.576   4.401  1.00  0.00     0.020 A 
HETATM   26  C   UNL     1      40.543 -10.784   5.119  1.00  0.00     0.038 A 
HETATM   27  C   UNL     1      39.802 -11.323   6.174  1.00  0.00     0.068 A 
HETATM   28  C   UNL     1      39.954 -12.673   6.500  1.00  0.00     0.038 A 
HETATM   29  C   UNL     1      40.848 -13.475   5.778  1.00  0.00     0.020 A 
BRANCH  27  30
HETATM   30  O   UNL     1      38.966 -10.435   6.793  1.00  0.00    -0.356 OA
HETATM   31  C   UNL     1      39.050  -9.076   6.387  1.00  0.00     0.210 C 
ENDBRANCH  27  30
ENDBRANCH   2  24
TORSDOF 6
ENDMDL
MODEL 10
REMARK VINA RESULT:      -7.9      2.921      7.949
REMARK  6 active torsions:
REMARK  status: ('A' for Active; 'I' for Inactive)
REMARK    1  A    between atoms: C_9  and  C_10 
REMARK    2  A    between atoms: C_10  and  N_11 
REMARK       I    between atoms: N_11  and  C_12 
REMARK    3  A    between atoms: N_11  and  C_22 
REMARK    4  A    between atoms: C_12  and  C_13 
REMARK    5  A    between atoms: C_16  and  O_17 
REMARK    6  A    between atoms: C_22  and  C_23 
ROOT
HETATM    1  N   UNL     1      41.188 -15.816   0.714  1.00  0.00    -0.341 N 
HETATM    2  C   UNL     1      42.206 -16.472   1.409  1.00  0.00     0.254 C 
HETATM    3  O   UNL     1      43.117 -17.085   0.857  1.00  0.00    -0.267 OA
ENDROOT
BRANCH   1   4
HETATM    4  C   UNL     1      41.212 -15.896  -0.755  1.00  0.00     0.170 C 
BRANCH   4   5
HETATM    5  C   UNL     1      41.521 -14.590  -1.442  1.00  0.00     0.029 A 
HETATM    6  C   UNL     1      41.235 -14.613  -2.915  1.00  0.00     0.253 A 
HETATM    7  N   UNL     1      41.489 -13.471  -3.625  1.00  0.00    -0.322 N 
HETATM    8  O   UNL     1      40.798 -15.612  -3.478  1.00  0.00    -0.268 OA
HETATM    9  C   UNL     1      42.034 -12.312  -3.063  1.00  0.00     0.045 A 
HETATM   10  H   UNL     1      41.294 -13.517  -4.614  1.00  0.00     0.169 HD
HETATM   11  C   UNL     1      42.316 -12.287  -1.695  1.00  0.00    -0.008 A 
HETATM   12  C   UNL     1      42.303 -11.210  -3.871  1.00  0.00     0.031 A 
HETATM   13  C   UNL     1      42.894 -11.142  -1.137  1.00  0.00     0.020 A 
HETATM   14  C   UNL     1      42.018 -13.470  -0.885  1.00  0.00     0.028 A 
HETATM   15  C   UNL     1      43.197 -10.033  -1.943  1.00  0.00    -0.061 A 
HETATM   16  C   UNL     1      43.812  -8.800  -1.348  1.00  0.00     0.048 C 
HETATM   17  C   UNL     1      42.880 -10.070  -3.309  1.00  0.00     0.009 A 
ENDBRANCH   4   5
ENDBRANCH   1   4
BRANCH   1  18
HETATM   18  C   UNL     1      39.917 -15.371   1.320  1.00  0.00     0.158 C 
BRANCH  18  19
HETATM   19  C   UNL     1      39.940 -13.913   1.797  1.00  0.00     0.139 C 
HETATM   20  O   UNL     1      38.911 -13.130   1.168  1.00  0.00    -0.384 OA
HETATM   21  C   UNL     1      38.426 -12.164   2.113  1.00  0.00     0.168 C 
HETATM   22  C   UNL     1      39.219 -12.350   3.391  1.00  0.00     0.029 C 
HETATM   23  C   UNL     1      39.671 -13.785   3.287  1.00  0.00     0.035 C 
ENDBRANCH  18  19
ENDBRANCH   1  18
BRANCH   2  24
HETATM   24  C   UNL     1      42.230 -16.436   2.890  1.00  0.00     0.032 A 
HETATM   25  C   UNL     1      41.596 -17.465   3.590  1.00  0.00     0.020 A 
HETATM   26  C   UNL     1      41.628 -17.474   4.986  1.00  0.00     0.038 A 
HETATM   27  C   UNL     1      42.299 -16.471   5.690  1.00  0.00     0.068 A 
HETATM   28  C   UNL     1      42.957 -15.460   4.986  1.00  0.00     0.038 A 
HETATM   29  C   UNL     1      42.934 -15.449   3.585  1.00  0.00     0.020 A 
BRANCH  27  30
HETATM   30  O   UNL     1      42.246 -16.601   7.051  1.00  0.00    -0.356 OA
HETATM   31  C   UNL     1      43.480 -16.768   7.735  1.00  0.00     0.210 C 
ENDBRANCH  27  30
ENDBRANCH   2  24
TORSDOF 6
ENDMDL
