MODEL 1
REMARK VINA RESULT:      -9.2      0.000      0.000
REMARK  6 active torsions:
REMARK  status: ('A' for Active; 'I' for Inactive)
REMARK    1  A    between atoms: O_2  and  C_3 
REMARK    2  A    between atoms: C_6  and  C_7 
REMARK    3  A    between atoms: C_9  and  N_10 
REMARK    4  A    between atoms: N_10  and  N_11 
REMARK       I    between atoms: N_10  and  C_22 
REMARK       I    between atoms: N_11  and  C_12 
REMARK       I    between atoms: C_12  and  N_13 
REMARK    5  A    between atoms: N_13  and  C_14 
REMARK       I    between atoms: C_22  and  N_23 
REMARK    6  A    between atoms: N_23  and  C_24 
ROOT
HETATM    1  N   UNL     1      42.184 -13.645   1.315  1.00  0.00    -0.195 N 
HETATM    2  C   UNL     1      42.117 -13.007   0.067  1.00  0.00     0.340 C 
HETATM    3  N   UNL     1      41.608 -13.742  -0.983  1.00  0.00    -0.337 N 
HETATM    4  O   UNL     1      42.428 -11.820  -0.073  1.00  0.00    -0.245 OA
HETATM    5  H   UNL     1      41.177 -14.624  -0.751  1.00  0.00     0.164 HD
ENDROOT
BRANCH   1   6
HETATM    6  C   UNL     1      41.867 -14.987   1.475  1.00  0.00     0.193 A 
HETATM    7  N   UNL     1      42.757 -15.936   1.653  1.00  0.00    -0.222 NA
HETATM    8  C   UNL     1      42.114 -17.143   1.877  1.00  0.00     0.076 A 
HETATM    9  C   UNL     1      40.739 -17.103   1.729  1.00  0.00     0.085 A 
HETATM   10  S   UNL     1      40.237 -15.496   1.382  1.00  0.00    -0.060 SA
BRANCH   8  11
HETATM   11  C   UNL     1      42.868 -18.311   2.307  1.00  0.00    -0.007 A 
HETATM   12  C   UNL     1      43.623 -18.228   3.487  1.00  0.00     0.016 A 
HETATM   13  C   UNL     1      44.347 -19.327   3.959  1.00  0.00     0.037 A 
HETATM   14  C   UNL     1      44.336 -20.526   3.249  1.00  0.00     0.068 A 
HETATM   15  C   UNL     1      43.584 -20.615   2.074  1.00  0.00     0.037 A 
HETATM   16  C   UNL     1      42.854 -19.518   1.602  1.00  0.00     0.016 A 
BRANCH  14  17
HETATM   17  O   UNL     1      45.004 -21.667   3.595  1.00  0.00    -0.356 OA
HETATM   18  C   UNL     1      44.909 -22.073   4.956  1.00  0.00     0.210 C 
ENDBRANCH  14  17
ENDBRANCH   8  11
ENDBRANCH   1   6
BRANCH   1  19
HETATM   19  N   UNL     1      41.810 -12.828   2.437  1.00  0.00    -0.142 NA
HETATM   20  C   UNL     1      41.756 -13.375   3.703  1.00  0.00     0.317 C 
HETATM   21  N   UNL     1      42.790 -14.221   4.006  1.00  0.00    -0.312 N 
HETATM   22  O   UNL     1      40.843 -13.036   4.451  1.00  0.00    -0.252 OA
HETATM   23  H   UNL     1      43.581 -14.153   3.369  1.00  0.00     0.170 HD
HETATM   24  H   UNL     1      40.990 -12.257   2.241  1.00  0.00     0.158 HD
BRANCH  21  25
HETATM   25  C   UNL     1      43.003 -14.932   5.202  1.00  0.00     0.036 A 
HETATM   26  C   UNL     1      44.055 -14.672   6.084  1.00  0.00     0.031 A 
HETATM   27  C   UNL     1      44.206 -15.431   7.249  1.00  0.00     0.026 A 
HETATM   28  C   UNL     1      43.303 -16.450   7.537  1.00  0.00     0.034 A 
HETATM   29 CL   UNL     1      43.495 -17.388   8.967  1.00  0.00    -0.084 Cl
HETATM   30  C   UNL     1      42.244 -16.712   6.673  1.00  0.00     0.026 A 
HETATM   31  C   UNL     1      42.093 -15.952   5.511  1.00  0.00     0.031 A 
ENDBRANCH  21  25
ENDBRANCH   1  19
BRANCH   3  32
HETATM   32  C   UNL     1      41.093 -13.100  -2.188  1.00  0.00     0.086 C 
HETATM   33  C   UNL     1      41.298 -14.005  -3.410  1.00  0.00     0.025 C 
HETATM   34  C   UNL     1      40.401 -15.245  -3.392  1.00  0.00     0.002 C 
HETATM   35  C   UNL     1      38.932 -14.888  -3.189  1.00  0.00     0.000 C 
HETATM   36  C   UNL     1      38.720 -14.001  -1.966  1.00  0.00     0.002 C 
HETATM   37  C   UNL     1      39.604 -12.753  -2.016  1.00  0.00     0.025 C 
ENDBRANCH   3  32
TORSDOF 6
ENDMDL
MODEL 2
REMARK VINA RESULT:      -9.0      3.284      7.580
REMARK  6 active torsions:
REMARK  status: ('A' for Active; 'I' for Inactive)
REMARK    1  A    between atoms: O_2  and  C_3 
REMARK    2  A    between atoms: C_6  and  C_7 
REMARK    3  A    between atoms: C_9  and  N_10 
REMARK    4  A    between atoms: N_10  and  N_11 
REMARK       I    between atoms: N_10  and  C_22 
REMARK       I    between atoms: N_11  and  C_12 
REMARK       I    between atoms: C_12  and  N_13 
REMARK    5  A    between atoms: N_13  and  C_14 
REMARK       I    between atoms: C_22  and  N_23 
REMARK    6  A    between atoms: N_23  and  C_24 
ROOT
HETATM    1  N   UNL     1      40.999 -14.318  -0.091  1.00  0.00    -0.195 N 
HETATM    2  C   UNL     1      41.759 -13.158   0.127  1.00  0.00     0.340 C 
HETATM    3  N   UNL     1      41.712 -12.187  -0.851  1.00  0.00    -0.337 N 
HETATM    4  O   UNL     1      42.383 -12.979   1.179  1.00  0.00    -0.245 OA
HETATM    5  H   UNL     1      41.019 -12.307  -1.574  1.00  0.00     0.164 HD
ENDROOT
BRANCH   1   6
HETATM    6  C   UNL     1      40.322 -14.541  -1.282  1.00  0.00     0.193 A 
HETATM    7  N   UNL     1      39.129 -14.065  -1.549  1.00  0.00    -0.222 NA
HETATM    8  C   UNL     1      38.779 -14.386  -2.851  1.00  0.00     0.076 A 
HETATM    9  C   UNL     1      39.670 -15.219  -3.502  1.00  0.00     0.085 A 
HETATM   10  S   UNL     1      41.017 -15.541  -2.483  1.00  0.00    -0.060 SA
BRANCH   8  11
HETATM   11  C   UNL     1      37.595 -13.799  -3.462  1.00  0.00    -0.007 A 
HETATM   12  C   UNL     1      36.777 -14.611  -4.261  1.00  0.00     0.016 A 
HETATM   13  C   UNL     1      35.615 -14.105  -4.853  1.00  0.00     0.037 A 
HETATM   14  C   UNL     1      35.261 -12.771  -4.663  1.00  0.00     0.068 A 
HETATM   15  C   UNL     1      36.071 -11.958  -3.866  1.00  0.00     0.037 A 
HETATM   16  C   UNL     1      37.232 -12.463  -3.269  1.00  0.00     0.016 A 
BRANCH  14  17
HETATM   17  O   UNL     1      34.162 -12.152  -5.189  1.00  0.00    -0.356 OA
HETATM   18  C   UNL     1      32.952 -12.264  -4.449  1.00  0.00     0.210 C 
ENDBRANCH  14  17
ENDBRANCH   8  11
ENDBRANCH   1   6
BRANCH   1  19
HETATM   19  N   UNL     1      40.312 -14.822   1.066  1.00  0.00    -0.142 NA
HETATM   20  C   UNL     1      40.723 -15.998   1.657  1.00  0.00     0.317 C 
HETATM   21  N   UNL     1      42.081 -16.141   1.765  1.00  0.00    -0.312 N 
HETATM   22  O   UNL     1      39.870 -16.779   2.068  1.00  0.00    -0.252 OA
HETATM   23  H   UNL     1      42.600 -15.277   1.624  1.00  0.00     0.170 HD
HETATM   24  H   UNL     1      39.299 -14.793   0.954  1.00  0.00     0.158 HD
BRANCH  21  25
HETATM   25  C   UNL     1      42.796 -17.226   2.307  1.00  0.00     0.036 A 
HETATM   26  C   UNL     1      43.304 -18.280   1.544  1.00  0.00     0.031 A 
HETATM   27  C   UNL     1      43.995 -19.330   2.158  1.00  0.00     0.026 A 
HETATM   28  C   UNL     1      44.184 -19.325   3.537  1.00  0.00     0.034 A 
HETATM   29 CL   UNL     1      45.028 -20.621   4.292  1.00  0.00    -0.084 Cl
HETATM   30  C   UNL     1      43.694 -18.274   4.307  1.00  0.00     0.026 A 
HETATM   31  C   UNL     1      43.005 -17.226   3.692  1.00  0.00     0.031 A 
ENDBRANCH  21  25
ENDBRANCH   1  19
BRANCH   3  32
HETATM   32  C   UNL     1      42.085 -10.804  -0.575  1.00  0.00     0.086 C 
HETATM   33  C   UNL     1      43.239 -10.366  -1.486  1.00  0.00     0.025 C 
HETATM   34  C   UNL     1      42.820 -10.218  -2.951  1.00  0.00     0.002 C 
HETATM   35  C   UNL     1      41.596  -9.319  -3.110  1.00  0.00     0.000 C 
HETATM   36  C   UNL     1      40.440  -9.761  -2.218  1.00  0.00     0.002 C 
HETATM   37  C   UNL     1      40.872  -9.876  -0.754  1.00  0.00     0.025 C 
ENDBRANCH   3  32
TORSDOF 6
ENDMDL
MODEL 3
REMARK VINA RESULT:      -8.9      3.975      7.336
REMARK  6 active torsions:
REMARK  status: ('A' for Active; 'I' for Inactive)
REMARK    1  A    between atoms: O_2  and  C_3 
REMARK    2  A    between atoms: C_6  and  C_7 
REMARK    3  A    between atoms: C_9  and  N_10 
REMARK    4  A    between atoms: N_10  and  N_11 
REMARK       I    between atoms: N_10  and  C_22 
REMARK       I    between atoms: N_11  and  C_12 
REMARK       I    between atoms: C_12  and  N_13 
REMARK    5  A    between atoms: N_13  and  C_14 
REMARK       I    between atoms: C_22  and  N_23 
REMARK    6  A    between atoms: N_23  and  C_24 
ROOT
HETATM    1  N   UNL     1      43.594 -14.254   6.829  1.00  0.00    -0.195 N 
HETATM    2  C   UNL     1      43.470 -15.649   6.925  1.00  0.00     0.340 C 
HETATM    3  N   UNL     1      42.820 -16.290   5.892  1.00  0.00    -0.337 N 
HETATM    4  O   UNL     1      43.982 -16.285   7.853  1.00  0.00    -0.245 OA
HETATM    5  H   UNL     1      42.620 -15.739   5.071  1.00  0.00     0.164 HD
ENDROOT
BRANCH   1   6
HETATM    6  C   UNL     1      42.995 -13.530   5.809  1.00  0.00     0.193 A 
HETATM    7  N   UNL     1      43.143 -13.797   4.532  1.00  0.00    -0.222 NA
HETATM    8  C   UNL     1      42.339 -12.954   3.782  1.00  0.00     0.076 A 
HETATM    9  C   UNL     1      41.694 -11.970   4.508  1.00  0.00     0.085 A 
HETATM   10  S   UNL     1      42.042 -12.159   6.181  1.00  0.00    -0.060 SA
BRANCH   8  11
HETATM   11  C   UNL     1      42.162 -13.181   2.355  1.00  0.00    -0.007 A 
HETATM   12  C   UNL     1      42.123 -14.502   1.883  1.00  0.00     0.016 A 
HETATM   13  C   UNL     1      41.932 -14.778   0.525  1.00  0.00     0.037 A 
HETATM   14  C   UNL     1      41.789 -13.733  -0.385  1.00  0.00     0.068 A 
HETATM   15  C   UNL     1      41.824 -12.415   0.080  1.00  0.00     0.037 A 
HETATM   16  C   UNL     1      42.011 -12.136   1.439  1.00  0.00     0.016 A 
BRANCH  14  17
HETATM   17  O   UNL     1      41.606 -13.865  -1.733  1.00  0.00    -0.356 OA
HETATM   18  C   UNL     1      40.728 -14.902  -2.158  1.00  0.00     0.210 C 
ENDBRANCH  14  17
ENDBRANCH   8  11
ENDBRANCH   1   6
BRANCH   1  19
HETATM   19  N   UNL     1      44.867 -13.727   7.239  1.00  0.00    -0.142 NA
HETATM   20  C   UNL     1      44.926 -12.692   8.149  1.00  0.00     0.317 C 
HETATM   21  N   UNL     1      44.053 -12.802   9.200  1.00  0.00    -0.312 N 
HETATM   22  O   UNL     1      45.758 -11.806   7.978  1.00  0.00    -0.252 OA
HETATM   23  H   UNL     1      43.653 -13.731   9.309  1.00  0.00     0.170 HD
HETATM   24  H   UNL     1      45.489 -13.566   6.449  1.00  0.00     0.158 HD
BRANCH  21  25
HETATM   25  C   UNL     1      43.873 -11.907  10.271  1.00  0.00     0.036 A 
HETATM   26  C   UNL     1      43.775 -10.522  10.118  1.00  0.00     0.031 A 
HETATM   27  C   UNL     1      43.608  -9.696  11.236  1.00  0.00     0.026 A 
HETATM   28  C   UNL     1      43.534 -10.256  12.508  1.00  0.00     0.034 A 
HETATM   29 CL   UNL     1      43.336  -9.238  13.882  1.00  0.00    -0.084 Cl
HETATM   30  C   UNL     1      43.619 -11.635  12.673  1.00  0.00     0.026 A 
HETATM   31  C   UNL     1      43.784 -12.458  11.556  1.00  0.00     0.031 A 
ENDBRANCH  21  25
ENDBRANCH   1  19
BRANCH   3  32
HETATM   32  C   UNL     1      42.991 -17.719   5.649  1.00  0.00     0.086 C 
HETATM   33  C   UNL     1      41.707 -18.324   5.068  1.00  0.00     0.025 C 
HETATM   34  C   UNL     1      41.427 -17.866   3.635  1.00  0.00     0.002 C 
HETATM   35  C   UNL     1      42.626 -18.086   2.717  1.00  0.00     0.000 C 
HETATM   36  C   UNL     1      43.903 -17.472   3.283  1.00  0.00     0.002 C 
HETATM   37  C   UNL     1      44.180 -17.964   4.705  1.00  0.00     0.025 C 
ENDBRANCH   3  32
TORSDOF 6
ENDMDL
MODEL 4
REMARK VINA RESULT:      -8.8      3.389      7.095
REMARK  6 active torsions:
REMARK  status: ('A' for Active; 'I' for Inactive)
REMARK    1  A    between atoms: O_2  and  C_3 
REMARK    2  A    between atoms: C_6  and  C_7 
REMARK    3  A    between atoms: C_9  and  N_10 
REMARK    4  A    between atoms: N_10  and  N_11 
REMARK       I    between atoms: N_10  and  C_22 
REMARK       I    between atoms: N_11  and  C_12 
REMARK       I    between atoms: C_12  and  N_13 
REMARK    5  A    between atoms: N_13  and  C_14 
REMARK       I    between atoms: C_22  and  N_23 
REMARK    6  A    between atoms: N_23  and  C_24 
ROOT
HETATM    1  N   UNL     1      41.608 -13.146   1.687  1.00  0.00    -0.195 N 
HETATM    2  C   UNL     1      41.153 -12.801   2.968  1.00  0.00     0.340 C 
HETATM    3  N   UNL     1      41.046 -13.822   3.889  1.00  0.00    -0.337 N 
HETATM    4  O   UNL     1      40.928 -11.627   3.284  1.00  0.00    -0.245 OA
HETATM    5  H   UNL     1      41.448 -14.710   3.629  1.00  0.00     0.164 HD
ENDROOT
BRANCH   1   6
HETATM    6  C   UNL     1      41.831 -14.464   1.314  1.00  0.00     0.193 A 
HETATM    7  N   UNL     1      42.606 -15.294   1.975  1.00  0.00    -0.222 NA
HETATM    8  C   UNL     1      42.537 -16.553   1.402  1.00  0.00     0.076 A 
HETATM    9  C   UNL     1      41.807 -16.618   0.229  1.00  0.00     0.085 A 
HETATM   10  S   UNL     1      41.124 -15.078  -0.117  1.00  0.00    -0.060 SA
BRANCH   8  11
HETATM   11  C   UNL     1      43.139 -17.699   2.067  1.00  0.00    -0.007 A 
HETATM   12  C   UNL     1      43.529 -17.571   3.409  1.00  0.00     0.016 A 
HETATM   13  C   UNL     1      44.091 -18.647   4.103  1.00  0.00     0.037 A 
HETATM   14  C   UNL     1      44.282 -19.868   3.459  1.00  0.00     0.068 A 
HETATM   15  C   UNL     1      43.893 -20.002   2.123  1.00  0.00     0.037 A 
HETATM   16  C   UNL     1      43.327 -18.928   1.427  1.00  0.00     0.016 A 
BRANCH  14  17
HETATM   17  O   UNL     1      44.826 -20.991   4.018  1.00  0.00    -0.356 OA
HETATM   18  C   UNL     1      44.545 -22.226   3.369  1.00  0.00     0.210 C 
ENDBRANCH  14  17
ENDBRANCH   8  11
ENDBRANCH   1   6
BRANCH   1  19
HETATM   19  N   UNL     1      42.534 -12.217   1.098  1.00  0.00    -0.142 NA
HETATM   20  C   UNL     1      42.333 -11.761  -0.188  1.00  0.00     0.317 C 
HETATM   21  N   UNL     1      41.033 -11.450  -0.489  1.00  0.00    -0.312 N 
HETATM   22  O   UNL     1      43.306 -11.630  -0.924  1.00  0.00    -0.252 OA
HETATM   23  H   UNL     1      40.430 -11.361   0.326  1.00  0.00     0.170 HD
HETATM   24  H   UNL     1      43.503 -12.492   1.250  1.00  0.00     0.158 HD
BRANCH  21  25
HETATM   25  C   UNL     1      40.518 -10.976  -1.710  1.00  0.00     0.036 A 
HETATM   26  C   UNL     1      40.468  -9.624  -2.060  1.00  0.00     0.031 A 
HETATM   27  C   UNL     1      39.930  -9.230  -3.290  1.00  0.00     0.026 A 
HETATM   28  C   UNL     1      39.444 -10.188  -4.174  1.00  0.00     0.034 A 
HETATM   29 CL   UNL     1      38.775  -9.701  -5.683  1.00  0.00    -0.084 Cl
HETATM   30  C   UNL     1      39.498 -11.539  -3.843  1.00  0.00     0.026 A 
HETATM   31  C   UNL     1      40.037 -11.930  -2.615  1.00  0.00     0.031 A 
ENDBRANCH  21  25
ENDBRANCH   1  19
BRANCH   3  32
HETATM   32  C   UNL     1      41.007 -13.557   5.323  1.00  0.00     0.086 C 
HETATM   33  C   UNL     1      40.230 -14.661   6.053  1.00  0.00     0.025 C 
HETATM   34  C   UNL     1      40.970 -16.000   6.072  1.00  0.00     0.002 C 
HETATM   35  C   UNL     1      42.394 -15.862   6.603  1.00  0.00     0.000 C 
HETATM   36  C   UNL     1      43.177 -14.776   5.869  1.00  0.00     0.002 C 
HETATM   37  C   UNL     1      42.433 -13.439   5.886  1.00  0.00     0.025 C 
ENDBRANCH   3  32
TORSDOF 6
ENDMDL
MODEL 5
REMARK VINA RESULT:      -8.4      3.230      6.882
REMARK  6 active torsions:
REMARK  status: ('A' for Active; 'I' for Inactive)
REMARK    1  A    between atoms: O_2  and  C_3 
REMARK    2  A    between atoms: C_6  and  C_7 
REMARK    3  A    between atoms: C_9  and  N_10 
REMARK    4  A    between atoms: N_10  and  N_11 
REMARK       I    between atoms: N_10  and  C_22 
REMARK       I    between atoms: N_11  and  C_12 
REMARK       I    between atoms: C_12  and  N_13 
REMARK    5  A    between atoms: N_13  and  C_14 
REMARK       I    between atoms: C_22  and  N_23 
REMARK    6  A    between atoms: N_23  and  C_24 
ROOT
HETATM    1  N   UNL     1      42.448 -14.201   5.692  1.00  0.00    -0.195 N 
HETATM    2  C   UNL     1      42.771 -12.982   6.308  1.00  0.00     0.340 C 
HETATM    3  N   UNL     1      42.035 -11.878   5.933  1.00  0.00    -0.337 N 
HETATM    4  O   UNL     1      43.623 -12.911   7.200  1.00  0.00    -0.245 OA
HETATM    5  H   UNL     1      41.220 -12.050   5.364  1.00  0.00     0.164 HD
ENDROOT
BRANCH   1   6
HETATM    6  C   UNL     1      41.516 -14.284   4.667  1.00  0.00     0.193 A 
HETATM    7  N   UNL     1      41.824 -14.277   3.391  1.00  0.00    -0.222 NA
HETATM    8  C   UNL     1      40.680 -14.473   2.634  1.00  0.00     0.076 A 
HETATM    9  C   UNL     1      39.502 -14.492   3.357  1.00  0.00     0.085 A 
HETATM   10  S   UNL     1      39.846 -14.341   5.035  1.00  0.00    -0.060 SA
BRANCH   8  11
HETATM   11  C   UNL     1      40.777 -14.713   1.201  1.00  0.00    -0.007 A 
HETATM   12  C   UNL     1      41.303 -15.935   0.757  1.00  0.00     0.016 A 
HETATM   13  C   UNL     1      41.398 -16.227  -0.607  1.00  0.00     0.037 A 
HETATM   14  C   UNL     1      40.976 -15.293  -1.551  1.00  0.00     0.068 A 
HETATM   15  C   UNL     1      40.448 -14.074  -1.114  1.00  0.00     0.037 A 
HETATM   16  C   UNL     1      40.349 -13.781   0.251  1.00  0.00     0.016 A 
BRANCH  14  17
HETATM   17  O   UNL     1      41.021 -15.449  -2.908  1.00  0.00    -0.356 OA
HETATM   18  C   UNL     1      39.792 -15.760  -3.555  1.00  0.00     0.210 C 
ENDBRANCH  14  17
ENDBRANCH   8  11
ENDBRANCH   1   6
BRANCH   1  19
HETATM   19  N   UNL     1      42.448 -15.343   6.564  1.00  0.00    -0.142 NA
HETATM   20  C   UNL     1      42.470 -16.617   6.035  1.00  0.00     0.317 C 
HETATM   21  N   UNL     1      43.321 -16.782   4.974  1.00  0.00    -0.312 N 
HETATM   22  O   UNL     1      41.785 -17.486   6.567  1.00  0.00    -0.252 OA
HETATM   23  H   UNL     1      43.997 -16.029   4.865  1.00  0.00     0.170 HD
HETATM   24  H   UNL     1      41.756 -15.259   7.308  1.00  0.00     0.158 HD
BRANCH  21  25
HETATM   25  C   UNL     1      43.552 -17.951   4.225  1.00  0.00     0.036 A 
HETATM   26  C   UNL     1      44.381 -18.994   4.648  1.00  0.00     0.031 A 
HETATM   27  C   UNL     1      44.569 -20.120   3.840  1.00  0.00     0.026 A 
HETATM   28  C   UNL     1      43.926 -20.208   2.609  1.00  0.00     0.034 A 
HETATM   29 CL   UNL     1      44.166 -21.591   1.614  1.00  0.00    -0.084 Cl
HETATM   30  C   UNL     1      43.089 -19.182   2.181  1.00  0.00     0.026 A 
HETATM   31  C   UNL     1      42.901 -18.059   2.990  1.00  0.00     0.031 A 
ENDBRANCH  21  25
ENDBRANCH   1  19
BRANCH   3  32
HETATM   32  C   UNL     1      41.965 -10.685   6.768  1.00  0.00     0.086 C 
HETATM   33  C   UNL     1      41.621  -9.453   5.920  1.00  0.00     0.025 C 
HETATM   34  C   UNL     1      40.182  -9.470   5.399  1.00  0.00     0.002 C 
HETATM   35  C   UNL     1      39.169  -9.691   6.519  1.00  0.00     0.000 C 
HETATM   36  C   UNL     1      39.498 -10.924   7.355  1.00  0.00     0.002 C 
HETATM   37  C   UNL     1      40.930 -10.875   7.890  1.00  0.00     0.025 C 
ENDBRANCH   3  32
TORSDOF 6
ENDMDL
MODEL 6
REMARK VINA RESULT:      -8.3      4.286      5.458
REMARK  6 active torsions:
REMARK  status: ('A' for Active; 'I' for Inactive)
REMARK    1  A    between atoms: O_2  and  C_3 
REMARK    2  A    between atoms: C_6  and  C_7 
REMARK    3  A    between atoms: C_9  and  N_10 
REMARK    4  A    between atoms: N_10  and  N_11 
REMARK       I    between atoms: N_10  and  C_22 
REMARK       I    between atoms: N_11  and  C_12 
REMARK       I    between atoms: C_12  and  N_13 
REMARK    5  A    between atoms: N_13  and  C_14 
REMARK       I    between atoms: C_22  and  N_23 
REMARK    6  A    between atoms: N_23  and  C_24 
ROOT
HETATM    1  N   UNL     1      40.195 -12.874   5.250  1.00  0.00    -0.195 N 
HETATM    2  C   UNL     1      39.764 -12.807   3.916  1.00  0.00     0.340 C 
HETATM    3  N   UNL     1      40.470 -13.550   2.993  1.00  0.00    -0.337 N 
HETATM    4  O   UNL     1      38.755 -12.173   3.591  1.00  0.00    -0.245 OA
HETATM    5  H   UNL     1      41.143 -14.206   3.360  1.00  0.00     0.164 HD
ENDROOT
BRANCH   1   6
HETATM    6  C   UNL     1      41.346 -13.557   5.618  1.00  0.00     0.193 A 
HETATM    7  N   UNL     1      41.496 -14.857   5.512  1.00  0.00    -0.222 NA
HETATM    8  C   UNL     1      42.787 -15.209   5.871  1.00  0.00     0.076 A 
HETATM    9  C   UNL     1      43.553 -14.173   6.371  1.00  0.00     0.085 A 
HETATM   10  S   UNL     1      42.657 -12.706   6.315  1.00  0.00    -0.060 SA
BRANCH   8  11
HETATM   11  C   UNL     1      43.272 -16.563   5.642  1.00  0.00    -0.007 A 
HETATM   12  C   UNL     1      42.732 -17.301   4.578  1.00  0.00     0.016 A 
HETATM   13  C   UNL     1      43.178 -18.597   4.299  1.00  0.00     0.037 A 
HETATM   14  C   UNL     1      44.166 -19.179   5.092  1.00  0.00     0.068 A 
HETATM   15  C   UNL     1      44.708 -18.447   6.152  1.00  0.00     0.037 A 
HETATM   16  C   UNL     1      44.266 -17.148   6.430  1.00  0.00     0.016 A 
BRANCH  14  17
HETATM   17  O   UNL     1      44.681 -20.435   4.933  1.00  0.00    -0.356 OA
HETATM   18  C   UNL     1      44.763 -20.926   3.600  1.00  0.00     0.210 C 
ENDBRANCH  14  17
ENDBRANCH   8  11
ENDBRANCH   1   6
BRANCH   1  19
HETATM   19  N   UNL     1      39.144 -12.949   6.227  1.00  0.00    -0.142 NA
HETATM   20  C   UNL     1      39.264 -12.276   7.425  1.00  0.00     0.317 C 
HETATM   21  N   UNL     1      39.781 -11.011   7.323  1.00  0.00    -0.312 N 
HETATM   22  O   UNL     1      38.870 -12.826   8.450  1.00  0.00    -0.252 OA
HETATM   23  H   UNL     1      39.782 -10.641   6.375  1.00  0.00     0.170 HD
HETATM   24  H   UNL     1      38.814 -13.903   6.365  1.00  0.00     0.158 HD
BRANCH  21  25
HETATM   25  C   UNL     1      40.031 -10.093   8.360  1.00  0.00     0.036 A 
HETATM   26  C   UNL     1      39.275  -8.938   8.573  1.00  0.00     0.031 A 
HETATM   27  C   UNL     1      39.593  -8.067   9.621  1.00  0.00     0.026 A 
HETATM   28  C   UNL     1      40.666  -8.352  10.460  1.00  0.00     0.034 A 
HETATM   29 CL   UNL     1      41.061  -7.276  11.743  1.00  0.00    -0.084 Cl
HETATM   30  C   UNL     1      41.420  -9.506  10.266  1.00  0.00     0.026 A 
HETATM   31  C   UNL     1      41.099 -10.375   9.220  1.00  0.00     0.031 A 
ENDBRANCH  21  25
ENDBRANCH   1  19
BRANCH   3  32
HETATM   32  C   UNL     1      39.898 -13.908   1.700  1.00  0.00     0.086 C 
HETATM   33  C   UNL     1      41.001 -14.043   0.642  1.00  0.00     0.025 C 
HETATM   34  C   UNL     1      41.893 -15.267   0.862  1.00  0.00     0.002 C 
HETATM   35  C   UNL     1      41.080 -16.552   1.004  1.00  0.00     0.000 C 
HETATM   36  C   UNL     1      39.993 -16.428   2.066  1.00  0.00     0.002 C 
HETATM   37  C   UNL     1      39.095 -15.215   1.813  1.00  0.00     0.025 C 
ENDBRANCH   3  32
TORSDOF 6
ENDMDL
MODEL 7
REMARK VINA RESULT:      -8.2      3.916      6.767
REMARK  6 active torsions:
REMARK  status: ('A' for Active; 'I' for Inactive)
REMARK    1  A    between atoms: O_2  and  C_3 
REMARK    2  A    between atoms: C_6  and  C_7 
REMARK    3  A    between atoms: C_9  and  N_10 
REMARK    4  A    between atoms: N_10  and  N_11 
REMARK       I    between atoms: N_10  and  C_22 
REMARK       I    between atoms: N_11  and  C_12 
REMARK       I    between atoms: C_12  and  N_13 
REMARK    5  A    between atoms: N_13  and  C_14 
REMARK       I    between atoms: C_22  and  N_23 
REMARK    6  A    between atoms: N_23  and  C_24 
ROOT
HETATM    1  N   UNL     1      40.911 -12.845   4.348  1.00  0.00    -0.195 N 
HETATM    2  C   UNL     1      41.376 -14.086   4.810  1.00  0.00     0.340 C 
HETATM    3  N   UNL     1      41.206 -15.168   3.972  1.00  0.00    -0.337 N 
HETATM    4  O   UNL     1      41.977 -14.195   5.884  1.00  0.00    -0.245 OA
HETATM    5  H   UNL     1      40.906 -14.968   3.030  1.00  0.00     0.164 HD
ENDROOT
BRANCH   1   6
HETATM    6  C   UNL     1      40.207 -12.719   3.159  1.00  0.00     0.193 A 
HETATM    7  N   UNL     1      40.606 -13.216   2.011  1.00  0.00    -0.222 NA
HETATM    8  C   UNL     1      39.636 -13.002   1.046  1.00  0.00     0.076 A 
HETATM    9  C   UNL     1      38.570 -12.223   1.458  1.00  0.00     0.085 A 
HETATM   10  S   UNL     1      38.753 -11.819   3.119  1.00  0.00    -0.060 SA
BRANCH   8  11
HETATM   11  C   UNL     1      39.742 -13.637  -0.259  1.00  0.00    -0.007 A 
HETATM   12  C   UNL     1      40.832 -14.484  -0.510  1.00  0.00     0.016 A 
HETATM   13  C   UNL     1      40.970 -15.138  -1.738  1.00  0.00     0.037 A 
HETATM   14  C   UNL     1      40.023 -14.944  -2.741  1.00  0.00     0.068 A 
HETATM   15  C   UNL     1      38.934 -14.103  -2.496  1.00  0.00     0.037 A 
HETATM   16  C   UNL     1      38.790 -13.450  -1.266  1.00  0.00     0.016 A 
BRANCH  14  17
HETATM   17  O   UNL     1      40.045 -15.514  -3.984  1.00  0.00    -0.356 OA
HETATM   18  C   UNL     1      38.869 -16.206  -4.388  1.00  0.00     0.210 C 
ENDBRANCH  14  17
ENDBRANCH   8  11
ENDBRANCH   1   6
BRANCH   1  19
HETATM   19  N   UNL     1      41.772 -11.729   4.628  1.00  0.00    -0.142 NA
HETATM   20  C   UNL     1      41.480 -10.874   5.671  1.00  0.00     0.317 C 
HETATM   21  N   UNL     1      41.052 -11.493   6.817  1.00  0.00    -0.312 N 
HETATM   22  O   UNL     1      41.662  -9.671   5.514  1.00  0.00    -0.252 OA
HETATM   23  H   UNL     1      41.234 -12.495   6.838  1.00  0.00     0.170 HD
HETATM   24  H   UNL     1      42.025 -11.216   3.785  1.00  0.00     0.158 HD
BRANCH  21  25
HETATM   25  C   UNL     1      40.673 -10.895   8.033  1.00  0.00     0.036 A 
HETATM   26  C   UNL     1      41.579 -10.497   9.019  1.00  0.00     0.031 A 
HETATM   27  C   UNL     1      41.122  -9.918  10.208  1.00  0.00     0.026 A 
HETATM   28  C   UNL     1      39.758  -9.732  10.411  1.00  0.00     0.034 A 
HETATM   29 CL   UNL     1      39.198  -9.028  11.877  1.00  0.00    -0.084 Cl
HETATM   30  C   UNL     1      38.846 -10.113   9.432  1.00  0.00     0.026 A 
HETATM   31  C   UNL     1      39.304 -10.690   8.244  1.00  0.00     0.031 A 
ENDBRANCH  21  25
ENDBRANCH   1  19
BRANCH   3  32
HETATM   32  C   UNL     1      41.997 -16.384   4.124  1.00  0.00     0.086 C 
HETATM   33  C   UNL     1      41.316 -17.561   3.413  1.00  0.00     0.025 C 
HETATM   34  C   UNL     1      41.350 -17.437   1.887  1.00  0.00     0.002 C 
HETATM   35  C   UNL     1      42.762 -17.195   1.362  1.00  0.00     0.000 C 
HETATM   36  C   UNL     1      43.437 -16.016   2.055  1.00  0.00     0.002 C 
HETATM   37  C   UNL     1      43.419 -16.172   3.577  1.00  0.00     0.025 C 
ENDBRANCH   3  32
TORSDOF 6
ENDMDL
MODEL 8
REMARK VINA RESULT:      -8.1      4.195      8.951
REMARK  6 active torsions:
REMARK  status: ('A' for Active; 'I' for Inactive)
REMARK    1  A    between atoms: O_2  and  C_3 
REMARK    2  A    between atoms: C_6  and  C_7 
REMARK    3  A    between atoms: C_9  and  N_10 
REMARK    4  A    between atoms: N_10  and  N_11 
REMARK       I    between atoms: N_10  and  C_22 
REMARK       I    between atoms: N_11  and  C_12 
REMARK       I    between atoms: C_12  and  N_13 
REMARK    5  A    between atoms: N_13  and  C_14 
REMARK       I    between atoms: C_22  and  N_23 
REMARK    6  A    between atoms: N_23  and  C_24 
ROOT
HETATM    1  N   UNL     1      40.673 -15.439   3.029  1.00  0.00    -0.195 N 
HETATM    2  C   UNL     1      41.148 -16.652   3.551  1.00  0.00     0.340 C 
HETATM    3  N   UNL     1      41.828 -16.593   4.749  1.00  0.00    -0.337 N 
HETATM    4  O   UNL     1      40.905 -17.734   3.005  1.00  0.00    -0.245 OA
HETATM    5  H   UNL     1      41.801 -15.712   5.242  1.00  0.00     0.164 HD
ENDROOT
BRANCH   1   6
HETATM    6  C   UNL     1      40.968 -14.218   3.618  1.00  0.00     0.193 A 
HETATM    7  N   UNL     1      40.395 -13.771   4.711  1.00  0.00    -0.222 NA
HETATM    8  C   UNL     1      40.980 -12.573   5.089  1.00  0.00     0.076 A 
HETATM    9  C   UNL     1      41.902 -12.069   4.191  1.00  0.00     0.085 A 
HETATM   10  S   UNL     1      42.099 -13.166   2.882  1.00  0.00    -0.060 SA
BRANCH   8  11
HETATM   11  C   UNL     1      40.668 -11.976   6.380  1.00  0.00    -0.007 A 
HETATM   12  C   UNL     1      41.573 -11.058   6.933  1.00  0.00     0.016 A 
HETATM   13  C   UNL     1      41.312 -10.437   8.160  1.00  0.00     0.037 A 
HETATM   14  C   UNL     1      40.144 -10.737   8.857  1.00  0.00     0.068 A 
HETATM   15  C   UNL     1      39.238 -11.649   8.309  1.00  0.00     0.037 A 
HETATM   16  C   UNL     1      39.494 -12.269   7.081  1.00  0.00     0.016 A 
BRANCH  14  17
HETATM   17  O   UNL     1      39.775 -10.209  10.063  1.00  0.00    -0.356 OA
HETATM   18  C   UNL     1      40.263 -10.872  11.224  1.00  0.00     0.210 C 
ENDBRANCH  14  17
ENDBRANCH   8  11
ENDBRANCH   1   6
BRANCH   1  19
HETATM   19  N   UNL     1      39.358 -15.497   2.452  1.00  0.00    -0.142 NA
HETATM   20  C   UNL     1      39.043 -14.705   1.368  1.00  0.00     0.317 C 
HETATM   21  N   UNL     1      40.020 -14.628   0.410  1.00  0.00    -0.312 N 
HETATM   22  O   UNL     1      37.932 -14.184   1.323  1.00  0.00    -0.252 OA
HETATM   23  H   UNL     1      40.740 -15.343   0.496  1.00  0.00     0.170 HD
HETATM   24  H   UNL     1      38.626 -15.470   3.160  1.00  0.00     0.158 HD
BRANCH  21  25
HETATM   25  C   UNL     1      39.996 -13.898  -0.793  1.00  0.00     0.036 A 
HETATM   26  C   UNL     1      39.633 -14.444  -2.026  1.00  0.00     0.031 A 
HETATM   27  C   UNL     1      39.646 -13.655  -3.182  1.00  0.00     0.026 A 
HETATM   28  C   UNL     1      40.018 -12.316  -3.104  1.00  0.00     0.034 A 
HETATM   29 CL   UNL     1      40.040 -11.349  -4.527  1.00  0.00    -0.084 Cl
HETATM   30  C   UNL     1      40.370 -11.756  -1.880  1.00  0.00     0.026 A 
HETATM   31  C   UNL     1      40.356 -12.546  -0.727  1.00  0.00     0.031 A 
ENDBRANCH  21  25
ENDBRANCH   1  19
BRANCH   3  32
HETATM   32  C   UNL     1      41.991 -17.770   5.595  1.00  0.00     0.086 C 
HETATM   33  C   UNL     1      43.098 -18.678   5.045  1.00  0.00     0.025 C 
HETATM   34  C   UNL     1      44.496 -18.074   5.196  1.00  0.00     0.002 C 
HETATM   35  C   UNL     1      44.781 -17.635   6.629  1.00  0.00     0.000 C 
HETATM   36  C   UNL     1      43.691 -16.718   7.175  1.00  0.00     0.002 C 
HETATM   37  C   UNL     1      42.305 -17.351   7.042  1.00  0.00     0.025 C 
ENDBRANCH   3  32
TORSDOF 6
ENDMDL
MODEL 9
REMARK VINA RESULT:      -8.1      3.091      3.631
REMARK  6 active torsions:
REMARK  status: ('A' for Active; 'I' for Inactive)
REMARK    1  A    between atoms: O_2  and  C_3 
REMARK    2  A    between atoms: C_6  and  C_7 
REMARK    3  A    between atoms: C_9  and  N_10 
REMARK    4  A    between atoms: N_10  and  N_11 
REMARK       I    between atoms: N_10  and  C_22 
REMARK       I    between atoms: N_11  and  C_12 
REMARK       I    between atoms: C_12  and  N_13 
REMARK    5  A    between atoms: N_13  and  C_14 
REMARK       I    between atoms: C_22  and  N_23 
REMARK    6  A    between atoms: N_23  and  C_24 
ROOT
HETATM    1  N   UNL     1      40.535 -12.791   3.100  1.00  0.00    -0.195 N 
HETATM    2  C   UNL     1      41.044 -11.764   2.290  1.00  0.00     0.340 C 
HETATM    3  N   UNL     1      41.488 -12.121   1.035  1.00  0.00    -0.337 N 
HETATM    4  O   UNL     1      41.026 -10.582   2.652  1.00  0.00    -0.245 OA
HETATM    5  H   UNL     1      41.274 -13.058   0.729  1.00  0.00     0.164 HD
ENDROOT
BRANCH   1   6
HETATM    6  C   UNL     1      40.581 -14.123   2.715  1.00  0.00     0.193 A 
HETATM    7  N   UNL     1      41.634 -14.894   2.856  1.00  0.00    -0.222 NA
HETATM    8  C   UNL     1      41.322 -16.187   2.467  1.00  0.00     0.076 A 
HETATM    9  C   UNL     1      40.066 -16.338   1.911  1.00  0.00     0.085 A 
HETATM   10  S   UNL     1      39.227 -14.838   1.952  1.00  0.00    -0.060 SA
BRANCH   8  11
HETATM   11  C   UNL     1      42.253 -17.277   2.720  1.00  0.00    -0.007 A 
HETATM   12  C   UNL     1      42.676 -17.509   4.038  1.00  0.00     0.016 A 
HETATM   13  C   UNL     1      43.551 -18.557   4.341  1.00  0.00     0.037 A 
HETATM   14  C   UNL     1      44.026 -19.384   3.324  1.00  0.00     0.068 A 
HETATM   15  C   UNL     1      43.606 -19.159   2.011  1.00  0.00     0.037 A 
HETATM   16  C   UNL     1      42.727 -18.113   1.705  1.00  0.00     0.016 A 
BRANCH  14  17
HETATM   17  O   UNL     1      44.887 -20.433   3.484  1.00  0.00    -0.356 OA
HETATM   18  C   UNL     1      44.954 -21.011   4.782  1.00  0.00     0.210 C 
ENDBRANCH  14  17
ENDBRANCH   8  11
ENDBRANCH   1   6
BRANCH   1  19
HETATM   19  N   UNL     1      39.359 -12.448   3.851  1.00  0.00    -0.142 NA
HETATM   20  C   UNL     1      39.462 -12.126   5.189  1.00  0.00     0.317 C 
HETATM   21  N   UNL     1      40.525 -11.321   5.505  1.00  0.00    -0.312 N 
HETATM   22  O   UNL     1      38.597 -12.534   5.960  1.00  0.00    -0.252 OA
HETATM   23  H   UNL     1      40.954 -10.870   4.700  1.00  0.00     0.170 HD
HETATM   24  H   UNL     1      38.591 -13.096   3.681  1.00  0.00     0.158 HD
BRANCH  21  25
HETATM   25  C   UNL     1      40.896 -10.838   6.773  1.00  0.00     0.036 A 
HETATM   26  C   UNL     1      40.110  -9.968   7.533  1.00  0.00     0.031 A 
HETATM   27  C   UNL     1      40.554  -9.521   8.783  1.00  0.00     0.026 A 
HETATM   28  C   UNL     1      41.783  -9.948   9.277  1.00  0.00     0.034 A 
HETATM   29 CL   UNL     1      42.331  -9.392  10.810  1.00  0.00    -0.084 Cl
HETATM   30  C   UNL     1      42.570 -10.824   8.535  1.00  0.00     0.026 A 
HETATM   31  C   UNL     1      42.125 -11.269   7.288  1.00  0.00     0.031 A 
ENDBRANCH  21  25
ENDBRANCH   1  19
BRANCH   3  32
HETATM   32  C   UNL     1      41.631 -11.139  -0.035  1.00  0.00     0.086 C 
HETATM   33  C   UNL     1      42.796 -11.515  -0.959  1.00  0.00     0.025 C 
HETATM   34  C   UNL     1      42.508 -12.757  -1.806  1.00  0.00     0.002 C 
HETATM   35  C   UNL     1      41.191 -12.640  -2.569  1.00  0.00     0.000 C 
HETATM   36  C   UNL     1      40.027 -12.282  -1.651  1.00  0.00     0.002 C 
HETATM   37  C   UNL     1      40.322 -11.022  -0.834  1.00  0.00     0.025 C 
ENDBRANCH   3  32
TORSDOF 6
ENDMDL
MODEL 10
REMARK VINA RESULT:      -8.0      3.381      7.223
REMARK  6 active torsions:
REMARK  status: ('A' for Active; 'I' for Inactive)
REMARK    1  A    between atoms: O_2  and  C_3 
REMARK    2  A    between atoms: C_6  and  C_7 
REMARK    3  A    between atoms: C_9  and  N_10 
REMARK    4  A    between atoms: N_10  and  N_11 
REMARK       I    between atoms: N_10  and  C_22 
REMARK       I    between atoms: N_11  and  C_12 
REMARK       I    between atoms: C_12  and  N_13 
REMARK    5  A    between atoms: N_13  and  C_14 
REMARK       I    between atoms: C_22  and  N_23 
REMARK    6  A    between atoms: N_23  and  C_24 
ROOT
HETATM    1  N   UNL     1      40.408 -14.235   1.493  1.00  0.00    -0.195 N 
HETATM    2  C   UNL     1      39.960 -13.932   2.788  1.00  0.00     0.340 C 
HETATM    3  N   UNL     1      40.445 -14.714   3.815  1.00  0.00    -0.337 N 
HETATM    4  O   UNL     1      39.225 -12.964   3.012  1.00  0.00    -0.245 OA
HETATM    5  H   UNL     1      41.202 -15.342   3.588  1.00  0.00     0.164 HD
ENDROOT
BRANCH   1   6
HETATM    6  C   UNL     1      41.207 -15.338   1.229  1.00  0.00     0.193 A 
HETATM    7  N   UNL     1      41.925 -15.960   2.136  1.00  0.00    -0.222 NA
HETATM    8  C   UNL     1      42.526 -17.074   1.571  1.00  0.00     0.076 A 
HETATM    9  C   UNL     1      42.354 -17.196   0.205  1.00  0.00     0.085 A 
HETATM   10  S   UNL     1      41.347 -15.927  -0.371  1.00  0.00    -0.060 SA
BRANCH   8  11
HETATM   11  C   UNL     1      43.207 -18.048   2.411  1.00  0.00    -0.007 A 
HETATM   12  C   UNL     1      43.575 -17.676   3.713  1.00  0.00     0.016 A 
HETATM   13  C   UNL     1      44.210 -18.580   4.570  1.00  0.00     0.037 A 
HETATM   14  C   UNL     1      44.498 -19.871   4.131  1.00  0.00     0.068 A 
HETATM   15  C   UNL     1      44.132 -20.248   2.836  1.00  0.00     0.037 A 
HETATM   16  C   UNL     1      43.492 -19.346   1.978  1.00  0.00     0.016 A 
BRANCH  14  17
HETATM   17  O   UNL     1      45.120 -20.844   4.863  1.00  0.00    -0.356 OA
HETATM   18  C   UNL     1      44.345 -21.470   5.880  1.00  0.00     0.210 C 
ENDBRANCH  14  17
ENDBRANCH   8  11
ENDBRANCH   1   6
BRANCH   1  19
HETATM   19  N   UNL     1      40.711 -13.095   0.672  1.00  0.00    -0.142 NA
HETATM   20  C   UNL     1      40.209 -13.014  -0.611  1.00  0.00     0.317 C 
HETATM   21  N   UNL     1      38.903 -13.408  -0.742  1.00  0.00    -0.312 N 
HETATM   22  O   UNL     1      40.931 -12.567  -1.497  1.00  0.00    -0.252 OA
HETATM   23  H   UNL     1      38.402 -13.477   0.142  1.00  0.00     0.170 HD
HETATM   24  H   UNL     1      41.699 -12.850   0.703  1.00  0.00     0.158 HD
BRANCH  21  25
HETATM   25  C   UNL     1      38.126 -13.448  -1.914  1.00  0.00     0.036 A 
HETATM   26  C   UNL     1      38.001 -14.579  -2.725  1.00  0.00     0.031 A 
HETATM   27  C   UNL     1      37.217 -14.537  -3.883  1.00  0.00     0.026 A 
HETATM   28  C   UNL     1      36.552 -13.364  -4.229  1.00  0.00     0.034 A 
HETATM   29 CL   UNL     1      35.594 -13.312  -5.658  1.00  0.00    -0.084 Cl
HETATM   30  C   UNL     1      36.658 -12.235  -3.424  1.00  0.00     0.026 A 
HETATM   31  C   UNL     1      37.441 -12.279  -2.267  1.00  0.00     0.031 A 
ENDBRANCH  21  25
ENDBRANCH   1  19
BRANCH   3  32
HETATM   32  C   UNL     1      40.413 -14.263   5.202  1.00  0.00     0.086 C 
HETATM   33  C   UNL     1      40.220 -15.453   6.151  1.00  0.00     0.025 C 
HETATM   34  C   UNL     1      41.447 -16.366   6.221  1.00  0.00     0.002 C 
HETATM   35  C   UNL     1      42.723 -15.590   6.533  1.00  0.00     0.000 C 
HETATM   36  C   UNL     1      42.928 -14.415   5.582  1.00  0.00     0.002 C 
HETATM   37  C   UNL     1      41.702 -13.499   5.548  1.00  0.00     0.025 C 
ENDBRANCH   3  32
TORSDOF 6
ENDMDL
