MODEL 1
REMARK VINA RESULT:      -9.3      0.000      0.000
REMARK  6 active torsions:
REMARK  status: ('A' for Active; 'I' for Inactive)
REMARK    1  A    between atoms: O_2  and  C_3 
REMARK    2  A    between atoms: C_5  and  N_6 
REMARK    3  A    between atoms: C_7  and  C_9 
REMARK    4  A    between atoms: C_7  and  O_8 
REMARK       I    between atoms: C_9  and  N_10 
REMARK    5  A    between atoms: N_10  and  C_11 
REMARK    6  A    between atoms: C_11  and  C_12 
ROOT
HETATM    1  N   UNL     1      41.337 -15.237   3.559  1.00  0.00    -0.254 N 
HETATM    2  C   UNL     1      41.363 -16.070   2.342  1.00  0.00     0.256 C 
HETATM    3  C   UNL     1      41.098 -15.337   1.040  1.00  0.00     0.034 A 
HETATM    4  C   UNL     1      40.680 -14.017   1.085  1.00  0.00     0.048 A 
HETATM    5  N   UNL     1      40.509 -13.413   2.315  1.00  0.00    -0.308 N 
HETATM    6  C   UNL     1      40.790 -13.962   3.526  1.00  0.00     0.330 C 
HETATM    7  O   UNL     1      40.503 -13.276   4.509  1.00  0.00    -0.246 OA
HETATM    8  C   UNL     1      41.211 -15.954  -0.220  1.00  0.00     0.015 A 
HETATM    9  C   UNL     1      40.943 -15.243  -1.393  1.00  0.00     0.001 A 
HETATM   10  C   UNL     1      40.540 -13.913  -1.323  1.00  0.00     0.002 A 
HETATM   11  C   UNL     1      40.400 -13.299  -0.081  1.00  0.00     0.030 A 
HETATM   12  H   UNL     1      40.152 -12.467   2.368  1.00  0.00     0.170 HD
ENDROOT
BRANCH   2  13
HETATM   13  C   UNL     1      42.775 -16.796   2.194  1.00  0.00     0.279 C 
HETATM   14  N   UNL     1      42.676 -18.179   2.219  1.00  0.00    -0.352 N 
HETATM   15  H   UNL     1      41.735 -18.566   2.196  1.00  0.00     0.162 HD
HETATM   16  O   UNL     1      43.846 -16.210   2.049  1.00  0.00    -0.268 OA
BRANCH  14  17
HETATM   17  C   UNL     1      43.797 -19.044   1.948  1.00  0.00     0.163 C 
BRANCH  17  18
HETATM   18  C   UNL     1      44.120 -19.900   3.145  1.00  0.00    -0.019 A 
HETATM   19  C   UNL     1      44.408 -21.270   3.043  1.00  0.00     0.042 A 
HETATM   20 CL   UNL     1      44.408 -22.087   1.520  1.00  0.00    -0.084 Cl
HETATM   21  C   UNL     1      44.691 -22.026   4.186  1.00  0.00     0.024 A 
HETATM   22  C   UNL     1      44.688 -21.424   5.444  1.00  0.00     0.002 A 
HETATM   23  C   UNL     1      44.395 -20.068   5.562  1.00  0.00     0.001 A 
HETATM   24  C   UNL     1      44.109 -19.312   4.423  1.00  0.00     0.010 A 
ENDBRANCH  17  18
ENDBRANCH  14  17
ENDBRANCH   2  13
BRANCH   2  25
HETATM   25  O   UNL     1      40.282 -17.002   2.454  1.00  0.00    -0.359 OA
HETATM   26  H   UNL     1      40.281 -17.448   1.590  1.00  0.00     0.213 HD
ENDBRANCH   2  25
BRANCH   1  27
HETATM   27  C   UNL     1      41.839 -15.774   4.817  1.00  0.00     0.045 A 
HETATM   28  C   UNL     1      43.068 -15.341   5.345  1.00  0.00     0.066 A 
HETATM   29  C   UNL     1      43.576 -15.826   6.559  1.00  0.00     0.070 A 
HETATM   30  C   UNL     1      42.870 -16.797   7.258  1.00  0.00     0.037 A 
HETATM   31  C   UNL     1      41.659 -17.261   6.751  1.00  0.00     0.005 A 
HETATM   32  C   UNL     1      41.150 -16.754   5.550  1.00  0.00     0.030 A 
BRANCH  29  33
HETATM   33  O   UNL     1      44.780 -15.294   6.934  1.00  0.00    -0.356 OA
HETATM   34  C   UNL     1      44.803 -13.894   7.176  1.00  0.00     0.210 C 
ENDBRANCH  29  33
ENDBRANCH   1  27
TORSDOF 6
ENDMDL
MODEL 2
REMARK VINA RESULT:      -9.0      1.525      5.115
REMARK  6 active torsions:
REMARK  status: ('A' for Active; 'I' for Inactive)
REMARK    1  A    between atoms: O_2  and  C_3 
REMARK    2  A    between atoms: C_5  and  N_6 
REMARK    3  A    between atoms: C_7  and  C_9 
REMARK    4  A    between atoms: C_7  and  O_8 
REMARK       I    between atoms: C_9  and  N_10 
REMARK    5  A    between atoms: N_10  and  C_11 
REMARK    6  A    between atoms: C_11  and  C_12 
ROOT
HETATM    1  N   UNL     1      41.526 -15.297   2.521  1.00  0.00    -0.254 N 
HETATM    2  C   UNL     1      42.793 -15.620   3.204  1.00  0.00     0.256 C 
HETATM    3  C   UNL     1      42.660 -16.127   4.627  1.00  0.00     0.034 A 
HETATM    4  C   UNL     1      41.421 -16.085   5.243  1.00  0.00     0.048 A 
HETATM    5  N   UNL     1      40.345 -15.572   4.544  1.00  0.00    -0.308 N 
HETATM    6  C   UNL     1      40.350 -15.163   3.248  1.00  0.00     0.330 C 
HETATM    7  O   UNL     1      39.298 -14.676   2.831  1.00  0.00    -0.246 OA
HETATM    8  C   UNL     1      43.756 -16.599   5.376  1.00  0.00     0.015 A 
HETATM    9  C   UNL     1      43.588 -17.044   6.689  1.00  0.00     0.001 A 
HETATM   10  C   UNL     1      42.330 -17.006   7.281  1.00  0.00     0.002 A 
HETATM   11  C   UNL     1      41.243 -16.517   6.560  1.00  0.00     0.030 A 
HETATM   12  H   UNL     1      39.444 -15.482   4.996  1.00  0.00     0.170 HD
ENDROOT
BRANCH   2  13
HETATM   13  C   UNL     1      43.602 -16.723   2.384  1.00  0.00     0.279 C 
HETATM   14  N   UNL     1      43.236 -18.019   2.719  1.00  0.00    -0.352 N 
HETATM   15  H   UNL     1      42.430 -18.118   3.331  1.00  0.00     0.162 HD
HETATM   16  O   UNL     1      44.446 -16.472   1.527  1.00  0.00    -0.268 OA
BRANCH  14  17
HETATM   17  C   UNL     1      43.720 -19.172   2.002  1.00  0.00     0.163 C 
BRANCH  17  18
HETATM   18  C   UNL     1      44.134 -20.265   2.952  1.00  0.00    -0.019 A 
HETATM   19  C   UNL     1      44.256 -21.607   2.559  1.00  0.00     0.042 A 
HETATM   20 CL   UNL     1      43.932 -22.112   0.938  1.00  0.00    -0.084 Cl
HETATM   21  C   UNL     1      44.633 -22.588   3.483  1.00  0.00     0.024 A 
HETATM   22  C   UNL     1      44.890 -22.242   4.809  1.00  0.00     0.002 A 
HETATM   23  C   UNL     1      44.764 -20.917   5.215  1.00  0.00     0.001 A 
HETATM   24  C   UNL     1      44.385 -19.936   4.297  1.00  0.00     0.010 A 
ENDBRANCH  17  18
ENDBRANCH  14  17
ENDBRANCH   2  13
BRANCH   2  25
HETATM   25  O   UNL     1      43.521 -14.393   3.328  1.00  0.00    -0.359 OA
HETATM   26  H   UNL     1      44.411 -14.629   3.015  1.00  0.00     0.213 HD
ENDBRANCH   2  25
BRANCH   1  27
HETATM   27  C   UNL     1      41.514 -15.064   1.083  1.00  0.00     0.045 A 
HETATM   28  C   UNL     1      41.844 -13.803   0.555  1.00  0.00     0.066 A 
HETATM   29  C   UNL     1      41.855 -13.547  -0.823  1.00  0.00     0.070 A 
HETATM   30  C   UNL     1      41.492 -14.552  -1.711  1.00  0.00     0.037 A 
HETATM   31  C   UNL     1      41.140 -15.806  -1.218  1.00  0.00     0.005 A 
HETATM   32  C   UNL     1      41.154 -16.059   0.159  1.00  0.00     0.030 A 
BRANCH  29  33
HETATM   33  O   UNL     1      42.207 -12.270  -1.169  1.00  0.00    -0.356 OA
HETATM   34  C   UNL     1      42.547 -12.058  -2.534  1.00  0.00     0.210 C 
ENDBRANCH  29  33
ENDBRANCH   1  27
TORSDOF 6
ENDMDL
MODEL 3
REMARK VINA RESULT:      -8.4      1.661      2.306
REMARK  6 active torsions:
REMARK  status: ('A' for Active; 'I' for Inactive)
REMARK    1  A    between atoms: O_2  and  C_3 
REMARK    2  A    between atoms: C_5  and  N_6 
REMARK    3  A    between atoms: C_7  and  C_9 
REMARK    4  A    between atoms: C_7  and  O_8 
REMARK       I    between atoms: C_9  and  N_10 
REMARK    5  A    between atoms: N_10  and  C_11 
REMARK    6  A    between atoms: C_11  and  C_12 
ROOT
HETATM    1  N   UNL     1      41.297 -13.858   1.705  1.00  0.00    -0.254 N 
HETATM    2  C   UNL     1      41.046 -15.049   0.872  1.00  0.00     0.256 C 
HETATM    3  C   UNL     1      41.092 -14.822  -0.628  1.00  0.00     0.034 A 
HETATM    4  C   UNL     1      41.178 -13.526  -1.109  1.00  0.00     0.048 A 
HETATM    5  N   UNL     1      41.211 -12.480  -0.207  1.00  0.00    -0.308 N 
HETATM    6  C   UNL     1      41.248 -12.588   1.147  1.00  0.00     0.330 C 
HETATM    7  O   UNL     1      41.208 -11.528   1.773  1.00  0.00    -0.246 OA
HETATM    8  C   UNL     1      41.000 -15.871  -1.562  1.00  0.00     0.015 A 
HETATM    9  C   UNL     1      41.032 -15.613  -2.935  1.00  0.00     0.001 A 
HETATM   10  C   UNL     1      41.135 -14.304  -3.394  1.00  0.00     0.002 A 
HETATM   11  C   UNL     1      41.200 -13.255  -2.480  1.00  0.00     0.030 A 
HETATM   12  H   UNL     1      41.218 -11.525  -0.541  1.00  0.00     0.170 HD
ENDROOT
BRANCH   2  13
HETATM   13  C   UNL     1      42.103 -16.195   1.206  1.00  0.00     0.279 C 
HETATM   14  N   UNL     1      41.514 -17.335   1.733  1.00  0.00    -0.352 N 
HETATM   15  H   UNL     1      40.498 -17.365   1.724  1.00  0.00     0.162 HD
HETATM   16  O   UNL     1      43.313 -16.105   1.004  1.00  0.00    -0.268 OA
BRANCH  14  17
HETATM   17  C   UNL     1      42.250 -18.553   1.965  1.00  0.00     0.163 C 
BRANCH  17  18
HETATM   18  C   UNL     1      42.773 -18.606   3.377  1.00  0.00    -0.019 A 
HETATM   19  C   UNL     1      43.905 -19.353   3.740  1.00  0.00     0.042 A 
HETATM   20 CL   UNL     1      44.791 -20.281   2.581  1.00  0.00    -0.084 Cl
HETATM   21  C   UNL     1      44.345 -19.380   5.068  1.00  0.00     0.024 A 
HETATM   22  C   UNL     1      43.660 -18.666   6.049  1.00  0.00     0.002 A 
HETATM   23  C   UNL     1      42.530 -17.928   5.706  1.00  0.00     0.001 A 
HETATM   24  C   UNL     1      42.087 -17.902   4.383  1.00  0.00     0.010 A 
ENDBRANCH  17  18
ENDBRANCH  14  17
ENDBRANCH   2  13
BRANCH   2  25
HETATM   25  O   UNL     1      39.699 -15.460   1.130  1.00  0.00    -0.359 OA
HETATM   26  H   UNL     1      39.684 -16.382   0.821  1.00  0.00     0.213 HD
ENDBRANCH   2  25
BRANCH   1  27
HETATM   27  C   UNL     1      41.544 -14.009   3.133  1.00  0.00     0.045 A 
HETATM   28  C   UNL     1      42.833 -13.826   3.663  1.00  0.00     0.066 A 
HETATM   29  C   UNL     1      43.105 -13.951   5.033  1.00  0.00     0.070 A 
HETATM   30  C   UNL     1      42.084 -14.305   5.905  1.00  0.00     0.037 A 
HETATM   31  C   UNL     1      40.800 -14.514   5.408  1.00  0.00     0.005 A 
HETATM   32  C   UNL     1      40.534 -14.364   4.041  1.00  0.00     0.030 A 
BRANCH  29  33
HETATM   33  O   UNL     1      44.410 -13.732   5.384  1.00  0.00    -0.356 OA
HETATM   34  C   UNL     1      44.763 -14.048   6.725  1.00  0.00     0.210 C 
ENDBRANCH  29  33
ENDBRANCH   1  27
TORSDOF 6
ENDMDL
MODEL 4
REMARK VINA RESULT:      -8.3      2.337      6.432
REMARK  6 active torsions:
REMARK  status: ('A' for Active; 'I' for Inactive)
REMARK    1  A    between atoms: O_2  and  C_3 
REMARK    2  A    between atoms: C_5  and  N_6 
REMARK    3  A    between atoms: C_7  and  C_9 
REMARK    4  A    between atoms: C_7  and  O_8 
REMARK       I    between atoms: C_9  and  N_10 
REMARK    5  A    between atoms: N_10  and  C_11 
REMARK    6  A    between atoms: C_11  and  C_12 
ROOT
HETATM    1  N   UNL     1      43.494 -16.994   4.049  1.00  0.00    -0.254 N 
HETATM    2  C   UNL     1      43.511 -17.673   2.740  1.00  0.00     0.256 C 
HETATM    3  C   UNL     1      43.800 -19.162   2.777  1.00  0.00     0.034 A 
HETATM    4  C   UNL     1      44.200 -19.740   3.970  1.00  0.00     0.048 A 
HETATM    5  N   UNL     1      44.331 -18.938   5.088  1.00  0.00    -0.308 N 
HETATM    6  C   UNL     1      44.026 -17.617   5.170  1.00  0.00     0.330 C 
HETATM    7  O   UNL     1      44.278 -17.070   6.245  1.00  0.00    -0.246 OA
HETATM    8  C   UNL     1      43.728 -19.983   1.635  1.00  0.00     0.015 A 
HETATM    9  C   UNL     1      44.018 -21.347   1.714  1.00  0.00     0.001 A 
HETATM   10  C   UNL     1      44.402 -21.908   2.928  1.00  0.00     0.002 A 
HETATM   11  C   UNL     1      44.502 -21.101   4.059  1.00  0.00     0.030 A 
HETATM   12  H   UNL     1      44.675 -19.332   5.954  1.00  0.00     0.170 HD
ENDROOT
BRANCH   2  13
HETATM   13  C   UNL     1      42.112 -17.484   1.997  1.00  0.00     0.279 C 
HETATM   14  N   UNL     1      42.222 -16.769   0.813  1.00  0.00    -0.352 N 
HETATM   15  H   UNL     1      43.167 -16.566   0.494  1.00  0.00     0.162 HD
HETATM   16  O   UNL     1      41.044 -17.937   2.402  1.00  0.00    -0.268 OA
BRANCH  14  17
HETATM   17  C   UNL     1      41.121 -16.608  -0.102  1.00  0.00     0.163 C 
BRANCH  17  18
HETATM   18  C   UNL     1      40.933 -15.160  -0.472  1.00  0.00    -0.019 A 
HETATM   19  C   UNL     1      40.689 -14.737  -1.788  1.00  0.00     0.042 A 
HETATM   20 CL   UNL     1      40.590 -15.860  -3.099  1.00  0.00    -0.084 Cl
HETATM   21  C   UNL     1      40.533 -13.378  -2.084  1.00  0.00     0.024 A 
HETATM   22  C   UNL     1      40.621 -12.426  -1.070  1.00  0.00     0.002 A 
HETATM   23  C   UNL     1      40.872 -12.828   0.239  1.00  0.00     0.001 A 
HETATM   24  C   UNL     1      41.031 -14.183   0.536  1.00  0.00     0.010 A 
ENDBRANCH  17  18
ENDBRANCH  14  17
ENDBRANCH   2  13
BRANCH   2  25
HETATM   25  O   UNL     1      44.600 -17.115   1.996  1.00  0.00    -0.359 OA
HETATM   26  H   UNL     1      44.562 -16.170   2.219  1.00  0.00     0.213 HD
ENDBRANCH   2  25
BRANCH   1  27
HETATM   27  C   UNL     1      42.967 -15.640   4.159  1.00  0.00     0.045 A 
HETATM   28  C   UNL     1      41.807 -15.379   4.910  1.00  0.00     0.066 A 
HETATM   29  C   UNL     1      41.279 -14.087   5.047  1.00  0.00     0.070 A 
HETATM   30  C   UNL     1      41.888 -13.024   4.394  1.00  0.00     0.037 A 
HETATM   31  C   UNL     1      43.026 -13.254   3.625  1.00  0.00     0.005 A 
HETATM   32  C   UNL     1      43.560 -14.543   3.513  1.00  0.00     0.030 A 
BRANCH  29  33
HETATM   33  O   UNL     1      40.151 -14.005   5.819  1.00  0.00    -0.356 OA
HETATM   34  C   UNL     1      39.491 -12.746   5.838  1.00  0.00     0.210 C 
ENDBRANCH  29  33
ENDBRANCH   1  27
TORSDOF 6
ENDMDL
MODEL 5
REMARK VINA RESULT:      -8.2      1.823      2.368
REMARK  6 active torsions:
REMARK  status: ('A' for Active; 'I' for Inactive)
REMARK    1  A    between atoms: O_2  and  C_3 
REMARK    2  A    between atoms: C_5  and  N_6 
REMARK    3  A    between atoms: C_7  and  C_9 
REMARK    4  A    between atoms: C_7  and  O_8 
REMARK       I    between atoms: C_9  and  N_10 
REMARK    5  A    between atoms: N_10  and  C_11 
REMARK    6  A    between atoms: C_11  and  C_12 
ROOT
HETATM    1  N   UNL     1      41.317 -14.071   4.748  1.00  0.00    -0.254 N 
HETATM    2  C   UNL     1      40.667 -14.941   3.750  1.00  0.00     0.256 C 
HETATM    3  C   UNL     1      39.739 -14.242   2.775  1.00  0.00     0.034 A 
HETATM    4  C   UNL     1      39.423 -12.910   2.984  1.00  0.00     0.048 A 
HETATM    5  N   UNL     1      39.958 -12.262   4.081  1.00  0.00    -0.308 N 
HETATM    6  C   UNL     1      40.850 -12.781   4.965  1.00  0.00     0.330 C 
HETATM    7  O   UNL     1      41.153 -12.057   5.914  1.00  0.00    -0.246 OA
HETATM    8  C   UNL     1      39.139 -14.901   1.684  1.00  0.00     0.015 A 
HETATM    9  C   UNL     1      38.279 -14.220   0.819  1.00  0.00     0.001 A 
HETATM   10  C   UNL     1      37.990 -12.877   1.042  1.00  0.00     0.002 A 
HETATM   11  C   UNL     1      38.557 -12.221   2.132  1.00  0.00     0.030 A 
HETATM   12  H   UNL     1      39.695 -11.305   4.281  1.00  0.00     0.170 HD
ENDROOT
BRANCH   2  13
HETATM   13  C   UNL     1      41.763 -15.713   2.886  1.00  0.00     0.279 C 
HETATM   14  N   UNL     1      41.752 -17.083   3.102  1.00  0.00    -0.352 N 
HETATM   15  H   UNL     1      40.988 -17.447   3.665  1.00  0.00     0.162 HD
HETATM   16  O   UNL     1      42.528 -15.171   2.091  1.00  0.00    -0.268 OA
BRANCH  14  17
HETATM   17  C   UNL     1      42.546 -17.998   2.320  1.00  0.00     0.163 C 
BRANCH  17  18
HETATM   18  C   UNL     1      43.484 -18.785   3.197  1.00  0.00    -0.019 A 
HETATM   19  C   UNL     1      43.824 -20.122   2.938  1.00  0.00     0.042 A 
HETATM   20 CL   UNL     1      43.182 -20.976   1.579  1.00  0.00    -0.084 Cl
HETATM   21  C   UNL     1      44.692 -20.815   3.790  1.00  0.00     0.024 A 
HETATM   22  C   UNL     1      45.226 -20.183   4.912  1.00  0.00     0.002 A 
HETATM   23  C   UNL     1      44.891 -18.860   5.187  1.00  0.00     0.001 A 
HETATM   24  C   UNL     1      44.023 -18.168   4.340  1.00  0.00     0.010 A 
ENDBRANCH  17  18
ENDBRANCH  14  17
ENDBRANCH   2  13
BRANCH   2  25
HETATM   25  O   UNL     1      39.816 -15.837   4.473  1.00  0.00    -0.359 OA
HETATM   26  H   UNL     1      38.987 -15.337   4.561  1.00  0.00     0.213 HD
ENDBRANCH   2  25
BRANCH   1  27
HETATM   27  C   UNL     1      42.421 -14.582   5.549  1.00  0.00     0.045 A 
HETATM   28  C   UNL     1      42.232 -15.664   6.427  1.00  0.00     0.066 A 
HETATM   29  C   UNL     1      43.274 -16.190   7.204  1.00  0.00     0.070 A 
HETATM   30  C   UNL     1      44.534 -15.608   7.145  1.00  0.00     0.037 A 
HETATM   31  C   UNL     1      44.748 -14.521   6.302  1.00  0.00     0.005 A 
HETATM   32  C   UNL     1      43.706 -14.018   5.512  1.00  0.00     0.030 A 
BRANCH  29  33
HETATM   33  O   UNL     1      42.924 -17.249   7.998  1.00  0.00    -0.356 OA
HETATM   34  C   UNL     1      43.993 -18.032   8.512  1.00  0.00     0.210 C 
ENDBRANCH  29  33
ENDBRANCH   1  27
TORSDOF 6
ENDMDL
MODEL 6
REMARK VINA RESULT:      -7.9      2.737      4.014
REMARK  6 active torsions:
REMARK  status: ('A' for Active; 'I' for Inactive)
REMARK    1  A    between atoms: O_2  and  C_3 
REMARK    2  A    between atoms: C_5  and  N_6 
REMARK    3  A    between atoms: C_7  and  C_9 
REMARK    4  A    between atoms: C_7  and  O_8 
REMARK       I    between atoms: C_9  and  N_10 
REMARK    5  A    between atoms: N_10  and  C_11 
REMARK    6  A    between atoms: C_11  and  C_12 
ROOT
HETATM    1  N   UNL     1      41.151 -12.964   1.047  1.00  0.00    -0.254 N 
HETATM    2  C   UNL     1      39.798 -13.467   0.743  1.00  0.00     0.256 C 
HETATM    3  C   UNL     1      39.432 -13.516  -0.728  1.00  0.00     0.034 A 
HETATM    4  C   UNL     1      40.283 -12.934  -1.653  1.00  0.00     0.048 A 
HETATM    5  N   UNL     1      41.437 -12.320  -1.204  1.00  0.00    -0.308 N 
HETATM    6  C   UNL     1      41.884 -12.290   0.079  1.00  0.00     0.330 C 
HETATM    7  O   UNL     1      42.905 -11.631   0.279  1.00  0.00    -0.246 OA
HETATM    8  C   UNL     1      38.233 -14.085  -1.198  1.00  0.00     0.015 A 
HETATM    9  C   UNL     1      37.930 -14.095  -2.562  1.00  0.00     0.001 A 
HETATM   10  C   UNL     1      38.810 -13.519  -3.474  1.00  0.00     0.002 A 
HETATM   11  C   UNL     1      39.987 -12.929  -3.018  1.00  0.00     0.030 A 
HETATM   12  H   UNL     1      42.043 -11.843  -1.859  1.00  0.00     0.170 HD
ENDROOT
BRANCH   2  13
HETATM   13  C   UNL     1      39.609 -14.940   1.324  1.00  0.00     0.279 C 
HETATM   14  N   UNL     1      40.545 -15.838   0.832  1.00  0.00    -0.352 N 
HETATM   15  H   UNL     1      41.302 -15.445   0.279  1.00  0.00     0.162 HD
HETATM   16  O   UNL     1      38.746 -15.259   2.139  1.00  0.00    -0.268 OA
BRANCH  14  17
HETATM   17  C   UNL     1      40.665 -17.185   1.332  1.00  0.00     0.163 C 
BRANCH  17  18
HETATM   18  C   UNL     1      41.624 -17.247   2.491  1.00  0.00    -0.019 A 
HETATM   19  C   UNL     1      43.000 -17.474   2.328  1.00  0.00     0.042 A 
HETATM   20 CL   UNL     1      43.703 -17.707   0.766  1.00  0.00    -0.084 Cl
HETATM   21  C   UNL     1      43.849 -17.535   3.439  1.00  0.00     0.024 A 
HETATM   22  C   UNL     1      43.335 -17.373   4.725  1.00  0.00     0.002 A 
HETATM   23  C   UNL     1      41.972 -17.156   4.903  1.00  0.00     0.001 A 
HETATM   24  C   UNL     1      41.122 -17.098   3.797  1.00  0.00     0.010 A 
ENDBRANCH  17  18
ENDBRANCH  14  17
ENDBRANCH   2  13
BRANCH   2  25
HETATM   25  O   UNL     1      38.872 -12.535   1.312  1.00  0.00    -0.359 OA
HETATM   26  H   UNL     1      38.034 -13.029   1.317  1.00  0.00     0.213 HD
ENDBRANCH   2  25
BRANCH   1  27
HETATM   27  C   UNL     1      41.703 -13.126   2.385  1.00  0.00     0.045 A 
HETATM   28  C   UNL     1      41.045 -12.588   3.505  1.00  0.00     0.066 A 
HETATM   29  C   UNL     1      41.541 -12.734   4.809  1.00  0.00     0.070 A 
HETATM   30  C   UNL     1      42.743 -13.399   5.014  1.00  0.00     0.037 A 
HETATM   31  C   UNL     1      43.430 -13.925   3.923  1.00  0.00     0.005 A 
HETATM   32  C   UNL     1      42.915 -13.793   2.628  1.00  0.00     0.030 A 
BRANCH  29  33
HETATM   33  O   UNL     1      40.774 -12.159   5.786  1.00  0.00    -0.356 OA
HETATM   34  C   UNL     1      41.445 -11.273   6.673  1.00  0.00     0.210 C 
ENDBRANCH  29  33
ENDBRANCH   1  27
TORSDOF 6
ENDMDL
MODEL 7
REMARK VINA RESULT:      -7.9      3.284      7.363
REMARK  6 active torsions:
REMARK  status: ('A' for Active; 'I' for Inactive)
REMARK    1  A    between atoms: O_2  and  C_3 
REMARK    2  A    between atoms: C_5  and  N_6 
REMARK    3  A    between atoms: C_7  and  C_9 
REMARK    4  A    between atoms: C_7  and  O_8 
REMARK       I    between atoms: C_9  and  N_10 
REMARK    5  A    between atoms: N_10  and  C_11 
REMARK    6  A    between atoms: C_11  and  C_12 
ROOT
HETATM    1  N   UNL     1      40.538 -15.175   0.880  1.00  0.00    -0.254 N 
HETATM    2  C   UNL     1      40.713 -15.872   2.168  1.00  0.00     0.256 C 
HETATM    3  C   UNL     1      41.873 -16.848   2.234  1.00  0.00     0.034 A 
HETATM    4  C   UNL     1      42.559 -17.156   1.072  1.00  0.00     0.048 A 
HETATM    5  N   UNL     1      42.160 -16.569  -0.114  1.00  0.00    -0.308 N 
HETATM    6  C   UNL     1      41.186 -15.634  -0.260  1.00  0.00     0.330 C 
HETATM    7  O   UNL     1      40.940 -15.286  -1.416  1.00  0.00    -0.246 OA
HETATM    8  C   UNL     1      42.257 -17.499   3.422  1.00  0.00     0.015 A 
HETATM    9  C   UNL     1      43.323 -18.401   3.433  1.00  0.00     0.001 A 
HETATM   10  C   UNL     1      44.008 -18.682   2.255  1.00  0.00     0.002 A 
HETATM   11  C   UNL     1      43.621 -18.064   1.068  1.00  0.00     0.030 A 
HETATM   12  H   UNL     1      42.614 -16.824  -0.982  1.00  0.00     0.170 HD
ENDROOT
BRANCH   2  13
HETATM   13  C   UNL     1      40.917 -14.818   3.348  1.00  0.00     0.279 C 
HETATM   14  N   UNL     1      39.826 -14.747   4.202  1.00  0.00    -0.352 N 
HETATM   15  H   UNL     1      39.098 -15.444   4.066  1.00  0.00     0.162 HD
HETATM   16  O   UNL     1      41.934 -14.148   3.512  1.00  0.00    -0.268 OA
BRANCH  14  17
HETATM   17  C   UNL     1      39.845 -13.981   5.423  1.00  0.00     0.163 C 
BRANCH  17  18
HETATM   18  C   UNL     1      39.755 -12.505   5.136  1.00  0.00    -0.019 A 
HETATM   19  C   UNL     1      40.693 -11.579   5.617  1.00  0.00     0.042 A 
HETATM   20 CL   UNL     1      42.036 -12.068   6.590  1.00  0.00    -0.084 Cl
HETATM   21  C   UNL     1      40.560 -10.215   5.332  1.00  0.00     0.024 A 
HETATM   22  C   UNL     1      39.487  -9.760   4.567  1.00  0.00     0.002 A 
HETATM   23  C   UNL     1      38.543 -10.665   4.090  1.00  0.00     0.001 A 
HETATM   24  C   UNL     1      38.672 -12.026   4.376  1.00  0.00     0.010 A 
ENDBRANCH  17  18
ENDBRANCH  14  17
ENDBRANCH   2  13
BRANCH   2  25
HETATM   25  O   UNL     1      39.550 -16.685   2.362  1.00  0.00    -0.359 OA
HETATM   26  H   UNL     1      38.945 -16.379   1.665  1.00  0.00     0.213 HD
ENDBRANCH   2  25
BRANCH   1  27
HETATM   27  C   UNL     1      39.639 -14.033   0.787  1.00  0.00     0.045 A 
HETATM   28  C   UNL     1      40.143 -12.735   0.589  1.00  0.00     0.066 A 
HETATM   29  C   UNL     1      39.307 -11.615   0.483  1.00  0.00     0.070 A 
HETATM   30  C   UNL     1      37.932 -11.769   0.614  1.00  0.00     0.037 A 
HETATM   31  C   UNL     1      37.404 -13.039   0.833  1.00  0.00     0.005 A 
HETATM   32  C   UNL     1      38.246 -14.155   0.914  1.00  0.00     0.030 A 
BRANCH  29  33
HETATM   33  O   UNL     1      39.957 -10.427   0.282  1.00  0.00    -0.356 OA
HETATM   34  C   UNL     1      40.943 -10.077   1.244  1.00  0.00     0.210 C 
ENDBRANCH  29  33
ENDBRANCH   1  27
TORSDOF 6
ENDMDL
MODEL 8
REMARK VINA RESULT:      -7.8      2.955      6.224
REMARK  6 active torsions:
REMARK  status: ('A' for Active; 'I' for Inactive)
REMARK    1  A    between atoms: O_2  and  C_3 
REMARK    2  A    between atoms: C_5  and  N_6 
REMARK    3  A    between atoms: C_7  and  C_9 
REMARK    4  A    between atoms: C_7  and  O_8 
REMARK       I    between atoms: C_9  and  N_10 
REMARK    5  A    between atoms: N_10  and  C_11 
REMARK    6  A    between atoms: C_11  and  C_12 
ROOT
HETATM    1  N   UNL     1      42.010 -15.152   4.818  1.00  0.00    -0.254 N 
HETATM    2  C   UNL     1      42.440 -15.115   3.408  1.00  0.00     0.256 C 
HETATM    3  C   UNL     1      42.955 -16.426   2.844  1.00  0.00     0.034 A 
HETATM    4  C   UNL     1      43.159 -17.493   3.703  1.00  0.00     0.048 A 
HETATM    5  N   UNL     1      42.895 -17.326   5.049  1.00  0.00    -0.308 N 
HETATM    6  C   UNL     1      42.365 -16.219   5.633  1.00  0.00     0.330 C 
HETATM    7  O   UNL     1      42.269 -16.250   6.860  1.00  0.00    -0.246 OA
HETATM    8  C   UNL     1      43.284 -16.597   1.486  1.00  0.00     0.015 A 
HETATM    9  C   UNL     1      43.769 -17.819   1.014  1.00  0.00     0.001 A 
HETATM   10  C   UNL     1      43.951 -18.882   1.894  1.00  0.00     0.002 A 
HETATM   11  C   UNL     1      43.653 -18.717   3.245  1.00  0.00     0.030 A 
HETATM   12  H   UNL     1      43.090 -18.076   5.699  1.00  0.00     0.170 HD
ENDROOT
BRANCH   2  13
HETATM   13  C   UNL     1      41.238 -14.641   2.472  1.00  0.00     0.279 C 
HETATM   14  N   UNL     1      41.520 -13.469   1.785  1.00  0.00    -0.352 N 
HETATM   15  H   UNL     1      42.476 -13.126   1.848  1.00  0.00     0.162 HD
HETATM   16  O   UNL     1      40.177 -15.247   2.343  1.00  0.00    -0.268 OA
BRANCH  14  17
HETATM   17  C   UNL     1      40.649 -12.937   0.768  1.00  0.00     0.163 C 
BRANCH  17  18
HETATM   18  C   UNL     1      41.044 -13.436  -0.598  1.00  0.00    -0.019 A 
HETATM   19  C   UNL     1      41.978 -12.773  -1.408  1.00  0.00     0.042 A 
HETATM   20 CL   UNL     1      42.751 -11.314  -0.896  1.00  0.00    -0.084 Cl
HETATM   21  C   UNL     1      42.304 -13.271  -2.675  1.00  0.00     0.024 A 
HETATM   22  C   UNL     1      41.698 -14.434  -3.148  1.00  0.00     0.002 A 
HETATM   23  C   UNL     1      40.763 -15.098  -2.360  1.00  0.00     0.001 A 
HETATM   24  C   UNL     1      40.434 -14.602  -1.097  1.00  0.00     0.010 A 
ENDBRANCH  17  18
ENDBRANCH  14  17
ENDBRANCH   2  13
BRANCH   2  25
HETATM   25  O   UNL     1      43.563 -14.230   3.339  1.00  0.00    -0.359 OA
HETATM   26  H   UNL     1      43.328 -13.626   2.614  1.00  0.00     0.213 HD
ENDBRANCH   2  25
BRANCH   1  27
HETATM   27  C   UNL     1      41.256 -14.039   5.378  1.00  0.00     0.045 A 
HETATM   28  C   UNL     1      41.913 -12.891   5.855  1.00  0.00     0.066 A 
HETATM   29  C   UNL     1      41.219 -11.796   6.389  1.00  0.00     0.070 A 
HETATM   30  C   UNL     1      39.834 -11.846   6.491  1.00  0.00     0.037 A 
HETATM   31  C   UNL     1      39.155 -12.978   6.046  1.00  0.00     0.005 A 
HETATM   32  C   UNL     1      39.856 -14.057   5.494  1.00  0.00     0.030 A 
BRANCH  29  33
HETATM   33  O   UNL     1      42.009 -10.757   6.800  1.00  0.00    -0.356 OA
HETATM   34  C   UNL     1      41.992 -10.463   8.191  1.00  0.00     0.210 C 
ENDBRANCH  29  33
ENDBRANCH   1  27
TORSDOF 6
ENDMDL
MODEL 9
REMARK VINA RESULT:      -7.7      2.747      6.516
REMARK  6 active torsions:
REMARK  status: ('A' for Active; 'I' for Inactive)
REMARK    1  A    between atoms: O_2  and  C_3 
REMARK    2  A    between atoms: C_5  and  N_6 
REMARK    3  A    between atoms: C_7  and  C_9 
REMARK    4  A    between atoms: C_7  and  O_8 
REMARK       I    between atoms: C_9  and  N_10 
REMARK    5  A    between atoms: N_10  and  C_11 
REMARK    6  A    between atoms: C_11  and  C_12 
ROOT
HETATM    1  N   UNL     1      42.367 -15.859   4.759  1.00  0.00    -0.254 N 
HETATM    2  C   UNL     1      42.633 -16.235   3.358  1.00  0.00     0.256 C 
HETATM    3  C   UNL     1      43.272 -17.595   3.154  1.00  0.00     0.034 A 
HETATM    4  C   UNL     1      43.723 -18.299   4.258  1.00  0.00     0.048 A 
HETATM    5  N   UNL     1      43.582 -17.735   5.512  1.00  0.00    -0.308 N 
HETATM    6  C   UNL     1      42.960 -16.561   5.800  1.00  0.00     0.330 C 
HETATM    7  O   UNL     1      43.002 -16.204   6.978  1.00  0.00    -0.246 OA
HETATM    8  C   UNL     1      43.477 -18.160   1.880  1.00  0.00     0.015 A 
HETATM    9  C   UNL     1      44.083 -19.411   1.740  1.00  0.00     0.001 A 
HETATM   10  C   UNL     1      44.512 -20.106   2.866  1.00  0.00     0.002 A 
HETATM   11  C   UNL     1      44.340 -19.546   4.129  1.00  0.00     0.030 A 
HETATM   12  H   UNL     1      43.955 -18.210   6.324  1.00  0.00     0.170 HD
ENDROOT
BRANCH   2  13
HETATM   13  C   UNL     1      41.282 -16.218   2.511  1.00  0.00     0.279 C 
HETATM   14  N   UNL     1      41.280 -15.251   1.517  1.00  0.00    -0.352 N 
HETATM   15  H   UNL     1      42.159 -14.765   1.357  1.00  0.00     0.162 HD
HETATM   16  O   UNL     1      40.340 -16.988   2.690  1.00  0.00    -0.268 OA
BRANCH  14  17
HETATM   17  C   UNL     1      40.233 -15.152   0.531  1.00  0.00     0.163 C 
BRANCH  17  18
HETATM   18  C   UNL     1      39.348 -13.964   0.800  1.00  0.00    -0.019 A 
HETATM   19  C   UNL     1      38.449 -13.456  -0.151  1.00  0.00     0.042 A 
HETATM   20 CL   UNL     1      38.292 -14.163  -1.721  1.00  0.00    -0.084 Cl
HETATM   21  C   UNL     1      37.656 -12.341   0.142  1.00  0.00     0.024 A 
HETATM   22  C   UNL     1      37.753 -11.718   1.386  1.00  0.00     0.002 A 
HETATM   23  C   UNL     1      38.646 -12.205   2.336  1.00  0.00     0.001 A 
HETATM   24  C   UNL     1      39.442 -13.315   2.045  1.00  0.00     0.010 A 
ENDBRANCH  17  18
ENDBRANCH  14  17
ENDBRANCH   2  13
BRANCH   2  25
HETATM   25  O   UNL     1      43.600 -15.306   2.855  1.00  0.00    -0.359 OA
HETATM   26  H   UNL     1      43.686 -15.557   1.920  1.00  0.00     0.213 HD
ENDBRANCH   2  25
BRANCH   1  27
HETATM   27  C   UNL     1      41.521 -14.711   5.056  1.00  0.00     0.045 A 
HETATM   28  C   UNL     1      41.990 -13.400   4.857  1.00  0.00     0.066 A 
HETATM   29  C   UNL     1      41.199 -12.273   5.120  1.00  0.00     0.070 A 
HETATM   30  C   UNL     1      39.918 -12.438   5.631  1.00  0.00     0.037 A 
HETATM   31  C   UNL     1      39.432 -13.723   5.859  1.00  0.00     0.005 A 
HETATM   32  C   UNL     1      40.221 -14.843   5.571  1.00  0.00     0.030 A 
BRANCH  29  33
HETATM   33  O   UNL     1      41.804 -11.072   4.864  1.00  0.00    -0.356 OA
HETATM   34  C   UNL     1      40.964 -10.036   4.370  1.00  0.00     0.210 C 
ENDBRANCH  29  33
ENDBRANCH   1  27
TORSDOF 6
ENDMDL
MODEL 10
REMARK VINA RESULT:      -7.7      2.430      3.429
REMARK  6 active torsions:
REMARK  status: ('A' for Active; 'I' for Inactive)
REMARK    1  A    between atoms: O_2  and  C_3 
REMARK    2  A    between atoms: C_5  and  N_6 
REMARK    3  A    between atoms: C_7  and  C_9 
REMARK    4  A    between atoms: C_7  and  O_8 
REMARK       I    between atoms: C_9  and  N_10 
REMARK    5  A    between atoms: N_10  and  C_11 
REMARK    6  A    between atoms: C_11  and  C_12 
ROOT
HETATM    1  N   UNL     1      41.902 -13.683   1.654  1.00  0.00    -0.254 N 
HETATM    2  C   UNL     1      41.325 -14.884   1.019  1.00  0.00     0.256 C 
HETATM    3  C   UNL     1      41.328 -14.889  -0.498  1.00  0.00     0.034 A 
HETATM    4  C   UNL     1      41.686 -13.735  -1.174  1.00  0.00     0.048 A 
HETATM    5  N   UNL     1      42.021 -12.611  -0.443  1.00  0.00    -0.308 N 
HETATM    6  C   UNL     1      42.118 -12.531   0.910  1.00  0.00     0.330 C 
HETATM    7  O   UNL     1      42.368 -11.415   1.368  1.00  0.00    -0.246 OA
HETATM    8  C   UNL     1      40.933 -16.006  -1.258  1.00  0.00     0.015 A 
HETATM    9  C   UNL     1      40.938 -15.961  -2.655  1.00  0.00     0.001 A 
HETATM   10  C   UNL     1      41.317 -14.794  -3.311  1.00  0.00     0.002 A 
HETATM   11  C   UNL     1      41.684 -13.674  -2.570  1.00  0.00     0.030 A 
HETATM   12  H   UNL     1      42.231 -11.743  -0.919  1.00  0.00     0.170 HD
ENDROOT
BRANCH   2  13
HETATM   13  C   UNL     1      42.103 -16.192   1.496  1.00  0.00     0.279 C 
HETATM   14  N   UNL     1      41.505 -16.808   2.586  1.00  0.00    -0.352 N 
HETATM   15  H   UNL     1      40.597 -16.446   2.868  1.00  0.00     0.162 HD
HETATM   16  O   UNL     1      43.112 -16.637   0.953  1.00  0.00    -0.268 OA
BRANCH  14  17
HETATM   17  C   UNL     1      41.940 -18.086   3.091  1.00  0.00     0.163 C 
BRANCH  17  18
HETATM   18  C   UNL     1      42.731 -17.923   4.363  1.00  0.00    -0.019 A 
HETATM   19  C   UNL     1      42.176 -17.402   5.542  1.00  0.00     0.042 A 
HETATM   20 CL   UNL     1      40.524 -16.899   5.622  1.00  0.00    -0.084 Cl
HETATM   21  C   UNL     1      42.955 -17.260   6.695  1.00  0.00     0.024 A 
HETATM   22  C   UNL     1      44.299 -17.633   6.684  1.00  0.00     0.002 A 
HETATM   23  C   UNL     1      44.866 -18.142   5.519  1.00  0.00     0.001 A 
HETATM   24  C   UNL     1      44.091 -18.282   4.366  1.00  0.00     0.010 A 
ENDBRANCH  17  18
ENDBRANCH  14  17
ENDBRANCH   2  13
BRANCH   2  25
HETATM   25  O   UNL     1      39.939 -14.916   1.375  1.00  0.00    -0.359 OA
HETATM   26  H   UNL     1      39.873 -14.248   2.078  1.00  0.00     0.213 HD
ENDBRANCH   2  25
BRANCH   1  27
HETATM   27  C   UNL     1      42.197 -13.686   3.080  1.00  0.00     0.045 A 
HETATM   28  C   UNL     1      41.185 -13.438   4.025  1.00  0.00     0.066 A 
HETATM   29  C   UNL     1      41.430 -13.444   5.405  1.00  0.00     0.070 A 
HETATM   30  C   UNL     1      42.720 -13.664   5.872  1.00  0.00     0.037 A 
HETATM   31  C   UNL     1      43.748 -13.891   4.961  1.00  0.00     0.005 A 
HETATM   32  C   UNL     1      43.489 -13.906   3.585  1.00  0.00     0.030 A 
BRANCH  29  33
HETATM   33  O   UNL     1      40.334 -13.194   6.187  1.00  0.00    -0.356 OA
HETATM   34  C   UNL     1      40.054 -11.827   6.461  1.00  0.00     0.210 C 
ENDBRANCH  29  33
ENDBRANCH   1  27
TORSDOF 6
ENDMDL
