MODEL 1
REMARK VINA RESULT:      -9.3      0.000      0.000
REMARK  5 active torsions:
REMARK  status: ('A' for Active; 'I' for Inactive)
REMARK    1  A    between atoms: C_7  and  C_8 
REMARK    2  A    between atoms: N_9  and  N_10 
REMARK       I    between atoms: N_10  and  C_11 
REMARK    3  A    between atoms: C_11  and  C_12 
REMARK    4  A    between atoms: C_12  and  N_13 
REMARK       I    between atoms: N_13  and  C_14 
REMARK    5  A    between atoms: C_14  and  C_15 
ROOT
HETATM    1  N   UNL     1      43.597 -14.135   7.076  1.00  0.00    -0.246 N 
HETATM    2  C   UNL     1      44.322 -13.204   7.805  1.00  0.00     0.255 C 
HETATM    3  O   UNL     1      45.426 -13.386   8.314  1.00  0.00    -0.270 OA
HETATM    4  H   UNL     1      42.725 -13.841   6.624  1.00  0.00     0.192 HD
ENDROOT
BRANCH   1   5
HETATM    5  N   UNL     1      44.061 -15.407   6.921  1.00  0.00    -0.184 NA
HETATM    6  C   UNL     1      43.436 -16.122   6.042  1.00  0.00     0.153 C 
BRANCH   6   7
HETATM    7  C   UNL     1      43.822 -17.503   5.810  1.00  0.00     0.018 A 
HETATM    8  C   UNL     1      44.127 -18.460   6.771  1.00  0.00     0.018 A 
HETATM    9  C   UNL     1      44.159 -18.381   8.256  1.00  0.00     0.069 C 
HETATM   10  N   UNL     1      44.428 -19.628   6.116  1.00  0.00    -0.358 N 
HETATM   11  H   UNL     1      44.685 -20.495   6.568  1.00  0.00     0.166 HD
HETATM   12  C   UNL     1      44.324 -19.464   4.756  1.00  0.00     0.043 A 
HETATM   13  C   UNL     1      43.948 -18.141   4.530  1.00  0.00     0.004 A 
HETATM   14  C   UNL     1      44.533 -20.385   3.722  1.00  0.00     0.030 A 
HETATM   15  C   UNL     1      43.771 -17.717   3.194  1.00  0.00     0.014 A 
HETATM   16  C   UNL     1      43.975 -18.624   2.147  1.00  0.00     0.001 A 
HETATM   17  C   UNL     1      44.350 -19.939   2.411  1.00  0.00     0.002 A 
ENDBRANCH   6   7
ENDBRANCH   1   5
BRANCH   2  18
HETATM   18  C   UNL     1      43.574 -11.881   7.972  1.00  0.00     0.227 C 
BRANCH  18  19
HETATM   19  N   UNL     1      43.099 -11.653   9.328  1.00  0.00    -0.348 N 
HETATM   20  C   UNL     1      43.767 -10.822  10.196  1.00  0.00     0.252 C 
HETATM   21  O   UNL     1      44.847 -10.308   9.920  1.00  0.00    -0.268 OA
HETATM   22  H   UNL     1      42.370 -12.264   9.676  1.00  0.00     0.163 HD
BRANCH  20  23
HETATM   23  C   UNL     1      43.139 -10.619  11.528  1.00  0.00     0.032 A 
HETATM   24  C   UNL     1      41.902 -11.223  11.789  1.00  0.00     0.020 A 
HETATM   25  C   UNL     1      41.297 -11.065  13.037  1.00  0.00     0.043 A 
HETATM   26  C   UNL     1      41.936 -10.315  14.019  1.00  0.00     0.116 A 
HETATM   27  F   UNL     1      41.358 -10.169  15.219  1.00  0.00    -0.206 F 
HETATM   28  C   UNL     1      43.172  -9.722  13.779  1.00  0.00     0.043 A 
HETATM   29  C   UNL     1      43.779  -9.874  12.531  1.00  0.00     0.020 A 
ENDBRANCH  20  23
ENDBRANCH  18  19
ENDBRANCH   2  18
TORSDOF 5
ENDMDL
MODEL 2
REMARK VINA RESULT:      -9.1      1.857      2.194
REMARK  5 active torsions:
REMARK  status: ('A' for Active; 'I' for Inactive)
REMARK    1  A    between atoms: C_7  and  C_8 
REMARK    2  A    between atoms: N_9  and  N_10 
REMARK       I    between atoms: N_10  and  C_11 
REMARK    3  A    between atoms: C_11  and  C_12 
REMARK    4  A    between atoms: C_12  and  N_13 
REMARK       I    between atoms: N_13  and  C_14 
REMARK    5  A    between atoms: C_14  and  C_15 
ROOT
HETATM    1  N   UNL     1      42.605 -14.346   6.457  1.00  0.00    -0.246 N 
HETATM    2  C   UNL     1      42.482 -13.272   5.588  1.00  0.00     0.255 C 
HETATM    3  O   UNL     1      42.938 -13.209   4.448  1.00  0.00    -0.270 OA
HETATM    4  H   UNL     1      42.107 -14.320   7.352  1.00  0.00     0.192 HD
ENDROOT
BRANCH   1   5
HETATM    5  N   UNL     1      43.337 -15.441   6.106  1.00  0.00    -0.184 NA
HETATM    6  C   UNL     1      42.668 -16.543   5.993  1.00  0.00     0.153 C 
BRANCH   6   7
HETATM    7  C   UNL     1      43.345 -17.781   5.651  1.00  0.00     0.018 A 
HETATM    8  C   UNL     1      44.002 -18.644   6.520  1.00  0.00     0.018 A 
HETATM    9  C   UNL     1      44.215 -18.578   7.991  1.00  0.00     0.069 C 
HETATM   10  N   UNL     1      44.488 -19.693   5.780  1.00  0.00    -0.358 N 
HETATM   11  H   UNL     1      45.008 -20.474   6.155  1.00  0.00     0.166 HD
HETATM   12  C   UNL     1      44.165 -19.543   4.454  1.00  0.00     0.043 A 
HETATM   13  C   UNL     1      43.449 -18.352   4.338  1.00  0.00     0.004 A 
HETATM   14  C   UNL     1      44.450 -20.370   3.360  1.00  0.00     0.030 A 
HETATM   15  C   UNL     1      42.995 -17.970   3.056  1.00  0.00     0.014 A 
HETATM   16  C   UNL     1      43.271 -18.785   1.952  1.00  0.00     0.001 A 
HETATM   17  C   UNL     1      43.988 -19.968   2.105  1.00  0.00     0.002 A 
ENDBRANCH   6   7
ENDBRANCH   1   5
BRANCH   2  18
HETATM   18  C   UNL     1      41.735 -12.095   6.216  1.00  0.00     0.227 C 
BRANCH  18  19
HETATM   19  N   UNL     1      42.190 -11.772   7.559  1.00  0.00    -0.348 N 
HETATM   20  C   UNL     1      42.222 -10.476   8.018  1.00  0.00     0.252 C 
HETATM   21  O   UNL     1      41.971  -9.513   7.298  1.00  0.00    -0.268 OA
HETATM   22  H   UNL     1      42.655 -12.503   8.082  1.00  0.00     0.163 HD
BRANCH  20  23
HETATM   23  C   UNL     1      42.640 -10.288   9.432  1.00  0.00     0.032 A 
HETATM   24  C   UNL     1      43.867 -10.821   9.848  1.00  0.00     0.020 A 
HETATM   25  C   UNL     1      44.294 -10.646  11.166  1.00  0.00     0.043 A 
HETATM   26  C   UNL     1      43.499  -9.928  12.054  1.00  0.00     0.116 A 
HETATM   27  F   UNL     1      43.912  -9.754  13.316  1.00  0.00    -0.206 F 
HETATM   28  C   UNL     1      42.286  -9.381  11.651  1.00  0.00     0.043 A 
HETATM   29  C   UNL     1      41.852  -9.557  10.335  1.00  0.00     0.020 A 
ENDBRANCH  20  23
ENDBRANCH  18  19
ENDBRANCH   2  18
TORSDOF 5
ENDMDL
MODEL 3
REMARK VINA RESULT:      -9.0      7.124     10.008
REMARK  5 active torsions:
REMARK  status: ('A' for Active; 'I' for Inactive)
REMARK    1  A    between atoms: C_7  and  C_8 
REMARK    2  A    between atoms: N_9  and  N_10 
REMARK       I    between atoms: N_10  and  C_11 
REMARK    3  A    between atoms: C_11  and  C_12 
REMARK    4  A    between atoms: C_12  and  N_13 
REMARK       I    between atoms: N_13  and  C_14 
REMARK    5  A    between atoms: C_14  and  C_15 
ROOT
HETATM    1  N   UNL     1      42.191 -15.461   2.543  1.00  0.00    -0.246 N 
HETATM    2  C   UNL     1      42.800 -14.215   2.537  1.00  0.00     0.255 C 
HETATM    3  O   UNL     1      43.753 -13.873   3.235  1.00  0.00    -0.270 OA
HETATM    4  H   UNL     1      41.460 -15.660   1.854  1.00  0.00     0.192 HD
ENDROOT
BRANCH   1   5
HETATM    5  N   UNL     1      42.593 -16.424   3.421  1.00  0.00    -0.184 NA
HETATM    6  C   UNL     1      43.462 -17.265   2.962  1.00  0.00     0.153 C 
BRANCH   6   7
HETATM    7  C   UNL     1      43.943 -18.352   3.796  1.00  0.00     0.018 A 
HETATM    8  C   UNL     1      44.330 -18.277   5.129  1.00  0.00     0.018 A 
HETATM    9  C   UNL     1      44.379 -17.126   6.072  1.00  0.00     0.069 C 
HETATM   10  N   UNL     1      44.703 -19.536   5.528  1.00  0.00    -0.358 N 
HETATM   11  H   UNL     1      45.028 -19.778   6.454  1.00  0.00     0.166 HD
HETATM   12  C   UNL     1      44.568 -20.433   4.496  1.00  0.00     0.043 A 
HETATM   13  C   UNL     1      44.095 -19.722   3.394  1.00  0.00     0.004 A 
HETATM   14  C   UNL     1      44.826 -21.809   4.462  1.00  0.00     0.030 A 
HETATM   15  C   UNL     1      43.868 -20.429   2.192  1.00  0.00     0.014 A 
HETATM   16  C   UNL     1      44.121 -21.805   2.140  1.00  0.00     0.001 A 
HETATM   17  C   UNL     1      44.592 -22.483   3.261  1.00  0.00     0.002 A 
ENDBRANCH   6   7
ENDBRANCH   1   5
BRANCH   2  18
HETATM   18  C   UNL     1      42.123 -13.238   1.576  1.00  0.00     0.227 C 
BRANCH  18  19
HETATM   19  N   UNL     1      41.618 -13.872   0.368  1.00  0.00    -0.348 N 
HETATM   20  C   UNL     1      40.336 -13.655  -0.080  1.00  0.00     0.252 C 
HETATM   21  O   UNL     1      39.514 -13.003   0.559  1.00  0.00    -0.268 OA
HETATM   22  H   UNL     1      42.171 -14.620  -0.032  1.00  0.00     0.163 HD
BRANCH  20  23
HETATM   23  C   UNL     1      39.967 -14.306  -1.364  1.00  0.00     0.032 A 
HETATM   24  C   UNL     1      40.844 -15.248  -1.918  1.00  0.00     0.020 A 
HETATM   25  C   UNL     1      40.516 -15.888  -3.114  1.00  0.00     0.043 A 
HETATM   26  C   UNL     1      39.310 -15.594  -3.742  1.00  0.00     0.116 A 
HETATM   27  F   UNL     1      38.992 -16.214  -4.885  1.00  0.00    -0.206 F 
HETATM   28  C   UNL     1      38.422 -14.672  -3.195  1.00  0.00     0.043 A 
HETATM   29  C   UNL     1      38.748 -14.026  -2.000  1.00  0.00     0.020 A 
ENDBRANCH  20  23
ENDBRANCH  18  19
ENDBRANCH   2  18
TORSDOF 5
ENDMDL
MODEL 4
REMARK VINA RESULT:      -9.0      6.944      9.261
REMARK  5 active torsions:
REMARK  status: ('A' for Active; 'I' for Inactive)
REMARK    1  A    between atoms: C_7  and  C_8 
REMARK    2  A    between atoms: N_9  and  N_10 
REMARK       I    between atoms: N_10  and  C_11 
REMARK    3  A    between atoms: C_11  and  C_12 
REMARK    4  A    between atoms: C_12  and  N_13 
REMARK       I    between atoms: N_13  and  C_14 
REMARK    5  A    between atoms: C_14  and  C_15 
ROOT
HETATM    1  N   UNL     1      42.906 -15.062   2.484  1.00  0.00    -0.246 N 
HETATM    2  C   UNL     1      43.119 -13.842   3.108  1.00  0.00     0.255 C 
HETATM    3  O   UNL     1      43.979 -13.603   3.953  1.00  0.00    -0.270 OA
HETATM    4  H   UNL     1      42.214 -15.120   1.729  1.00  0.00     0.192 HD
ENDROOT
BRANCH   1   5
HETATM    5  N   UNL     1      43.639 -16.157   2.834  1.00  0.00    -0.184 NA
HETATM    6  C   UNL     1      43.045 -16.992   3.624  1.00  0.00     0.153 C 
BRANCH   6   7
HETATM    7  C   UNL     1      43.737 -18.181   4.089  1.00  0.00     0.018 A 
HETATM    8  C   UNL     1      44.414 -18.340   5.292  1.00  0.00     0.018 A 
HETATM    9  C   UNL     1      44.640 -17.397   6.421  1.00  0.00     0.069 C 
HETATM   10  N   UNL     1      44.908 -19.620   5.328  1.00  0.00    -0.358 N 
HETATM   11  H   UNL     1      45.443 -20.013   6.091  1.00  0.00     0.166 HD
HETATM   12  C   UNL     1      44.570 -20.304   4.186  1.00  0.00     0.043 A 
HETATM   13  C   UNL     1      43.836 -19.429   3.386  1.00  0.00     0.004 A 
HETATM   14  C   UNL     1      44.857 -21.622   3.810  1.00  0.00     0.030 A 
HETATM   15  C   UNL     1      43.364 -19.902   2.141  1.00  0.00     0.014 A 
HETATM   16  C   UNL     1      43.642 -21.217   1.749  1.00  0.00     0.001 A 
HETATM   17  C   UNL     1      44.377 -22.063   2.575  1.00  0.00     0.002 A 
ENDBRANCH   6   7
ENDBRANCH   1   5
BRANCH   2  18
HETATM   18  C   UNL     1      42.112 -12.778   2.670  1.00  0.00     0.227 C 
BRANCH  18  19
HETATM   19  N   UNL     1      42.400 -12.215   1.360  1.00  0.00    -0.348 N 
HETATM   20  C   UNL     1      41.863 -12.750   0.211  1.00  0.00     0.252 C 
HETATM   21  O   UNL     1      41.201 -13.784   0.210  1.00  0.00    -0.268 OA
HETATM   22  H   UNL     1      43.149 -11.537   1.297  1.00  0.00     0.163 HD
BRANCH  20  23
HETATM   23  C   UNL     1      42.178 -12.040  -1.056  1.00  0.00     0.032 A 
HETATM   24  C   UNL     1      41.864 -12.661  -2.272  1.00  0.00     0.020 A 
HETATM   25  C   UNL     1      42.133 -12.011  -3.478  1.00  0.00     0.043 A 
HETATM   26  C   UNL     1      42.701 -10.741  -3.461  1.00  0.00     0.116 A 
HETATM   27  F   UNL     1      42.952 -10.115  -4.618  1.00  0.00    -0.206 F 
HETATM   28  C   UNL     1      43.004 -10.106  -2.260  1.00  0.00     0.043 A 
HETATM   29  C   UNL     1      42.741 -10.754  -1.051  1.00  0.00     0.020 A 
ENDBRANCH  20  23
ENDBRANCH  18  19
ENDBRANCH   2  18
TORSDOF 5
ENDMDL
MODEL 5
REMARK VINA RESULT:      -8.8      2.225      3.242
REMARK  5 active torsions:
REMARK  status: ('A' for Active; 'I' for Inactive)
REMARK    1  A    between atoms: C_7  and  C_8 
REMARK    2  A    between atoms: N_9  and  N_10 
REMARK       I    between atoms: N_10  and  C_11 
REMARK    3  A    between atoms: C_11  and  C_12 
REMARK    4  A    between atoms: C_12  and  N_13 
REMARK       I    between atoms: N_13  and  C_14 
REMARK    5  A    between atoms: C_14  and  C_15 
ROOT
HETATM    1  N   UNL     1      42.484 -14.801   5.757  1.00  0.00    -0.246 N 
HETATM    2  C   UNL     1      42.731 -13.530   5.260  1.00  0.00     0.255 C 
HETATM    3  O   UNL     1      43.561 -13.239   4.400  1.00  0.00    -0.270 OA
HETATM    4  H   UNL     1      41.706 -14.936   6.410  1.00  0.00     0.192 HD
ENDROOT
BRANCH   1   5
HETATM    5  N   UNL     1      43.234 -15.863   5.348  1.00  0.00    -0.184 NA
HETATM    6  C   UNL     1      42.679 -16.624   4.459  1.00  0.00     0.153 C 
BRANCH   6   7
HETATM    7  C   UNL     1      43.371 -17.802   3.968  1.00  0.00     0.018 A 
HETATM    8  C   UNL     1      43.867 -18.009   2.686  1.00  0.00     0.018 A 
HETATM    9  C   UNL     1      43.845 -17.143   1.476  1.00  0.00     0.069 C 
HETATM   10  N   UNL     1      44.454 -19.249   2.660  1.00  0.00    -0.358 N 
HETATM   11  H   UNL     1      44.901 -19.661   1.852  1.00  0.00     0.166 HD
HETATM   12  C   UNL     1      44.360 -19.857   3.888  1.00  0.00     0.043 A 
HETATM   13  C   UNL     1      43.684 -18.977   4.731  1.00  0.00     0.004 A 
HETATM   14  C   UNL     1      44.824 -21.111   4.307  1.00  0.00     0.030 A 
HETATM   15  C   UNL     1      43.460 -19.375   6.068  1.00  0.00     0.014 A 
HETATM   16  C   UNL     1      43.916 -20.625   6.504  1.00  0.00     0.001 A 
HETATM   17  C   UNL     1      44.589 -21.478   5.634  1.00  0.00     0.002 A 
ENDBRANCH   6   7
ENDBRANCH   1   5
BRANCH   2  18
HETATM   18  C   UNL     1      41.875 -12.460   5.938  1.00  0.00     0.227 C 
BRANCH  18  19
HETATM   19  N   UNL     1      42.356 -12.087   7.259  1.00  0.00    -0.348 N 
HETATM   20  C   UNL     1      42.244 -10.799   7.730  1.00  0.00     0.252 C 
HETATM   21  O   UNL     1      41.831  -9.875   7.035  1.00  0.00    -0.268 OA
HETATM   22  H   UNL     1      42.940 -12.753   7.748  1.00  0.00     0.163 HD
BRANCH  20  23
HETATM   23  C   UNL     1      42.710 -10.564   9.121  1.00  0.00     0.032 A 
HETATM   24  C   UNL     1      43.898 -11.176   9.546  1.00  0.00     0.020 A 
HETATM   25  C   UNL     1      44.369 -10.959  10.842  1.00  0.00     0.043 A 
HETATM   26  C   UNL     1      43.660 -10.125  11.700  1.00  0.00     0.116 A 
HETATM   27  F   UNL     1      44.117  -9.912  12.941  1.00  0.00    -0.206 F 
HETATM   28  C   UNL     1      42.488  -9.499  11.286  1.00  0.00     0.043 A 
HETATM   29  C   UNL     1      42.010  -9.715   9.992  1.00  0.00     0.020 A 
ENDBRANCH  20  23
ENDBRANCH  18  19
ENDBRANCH   2  18
TORSDOF 5
ENDMDL
MODEL 6
REMARK VINA RESULT:      -8.5      7.060      8.856
REMARK  5 active torsions:
REMARK  status: ('A' for Active; 'I' for Inactive)
REMARK    1  A    between atoms: C_7  and  C_8 
REMARK    2  A    between atoms: N_9  and  N_10 
REMARK       I    between atoms: N_10  and  C_11 
REMARK    3  A    between atoms: C_11  and  C_12 
REMARK    4  A    between atoms: C_12  and  N_13 
REMARK       I    between atoms: N_13  and  C_14 
REMARK    5  A    between atoms: C_14  and  C_15 
ROOT
HETATM    1  N   UNL     1      40.845 -15.881   3.810  1.00  0.00    -0.246 N 
HETATM    2  C   UNL     1      40.098 -15.857   2.641  1.00  0.00     0.255 C 
HETATM    3  O   UNL     1      39.913 -16.807   1.883  1.00  0.00    -0.270 OA
HETATM    4  H   UNL     1      40.857 -15.049   4.408  1.00  0.00     0.192 HD
ENDROOT
BRANCH   1   5
HETATM    5  N   UNL     1      41.512 -17.009   4.182  1.00  0.00    -0.184 NA
HETATM    6  C   UNL     1      42.781 -17.014   3.925  1.00  0.00     0.153 C 
BRANCH   6   7
HETATM    7  C   UNL     1      43.591 -18.174   4.251  1.00  0.00     0.018 A 
HETATM    8  C   UNL     1      44.371 -18.359   5.386  1.00  0.00     0.018 A 
HETATM    9  C   UNL     1      44.618 -17.478   6.559  1.00  0.00     0.069 C 
HETATM   10  N   UNL     1      44.957 -19.597   5.294  1.00  0.00    -0.358 N 
HETATM   11  H   UNL     1      45.577 -19.997   5.984  1.00  0.00     0.166 HD
HETATM   12  C   UNL     1      44.579 -20.229   4.134  1.00  0.00     0.043 A 
HETATM   13  C   UNL     1      43.723 -19.362   3.455  1.00  0.00     0.004 A 
HETATM   14  C   UNL     1      44.928 -21.493   3.645  1.00  0.00     0.030 A 
HETATM   15  C   UNL     1      43.188 -19.787   2.219  1.00  0.00     0.014 A 
HETATM   16  C   UNL     1      43.527 -21.048   1.714  1.00  0.00     0.001 A 
HETATM   17  C   UNL     1      44.385 -21.887   2.420  1.00  0.00     0.002 A 
ENDBRANCH   6   7
ENDBRANCH   1   5
BRANCH   2  18
HETATM   18  C   UNL     1      39.538 -14.468   2.333  1.00  0.00     0.227 C 
BRANCH  18  19
HETATM   19  N   UNL     1      40.482 -13.605   1.642  1.00  0.00    -0.348 N 
HETATM   20  C   UNL     1      40.393 -13.377   0.288  1.00  0.00     0.252 C 
HETATM   21  O   UNL     1      39.587 -13.962  -0.430  1.00  0.00    -0.268 OA
HETATM   22  H   UNL     1      41.313 -13.323   2.146  1.00  0.00     0.163 HD
BRANCH  20  23
HETATM   23  C   UNL     1      41.376 -12.419  -0.285  1.00  0.00     0.032 A 
HETATM   24  C   UNL     1      41.569 -11.189   0.357  1.00  0.00     0.020 A 
HETATM   25  C   UNL     1      42.497 -10.277  -0.148  1.00  0.00     0.043 A 
HETATM   26  C   UNL     1      43.234 -10.604  -1.282  1.00  0.00     0.116 A 
HETATM   27  F   UNL     1      44.129  -9.731  -1.762  1.00  0.00    -0.206 F 
HETATM   28  C   UNL     1      43.062 -11.828  -1.920  1.00  0.00     0.043 A 
HETATM   29  C   UNL     1      42.132 -12.743  -1.422  1.00  0.00     0.020 A 
ENDBRANCH  20  23
ENDBRANCH  18  19
ENDBRANCH   2  18
TORSDOF 5
ENDMDL
MODEL 7
REMARK VINA RESULT:      -8.5      6.956      9.233
REMARK  5 active torsions:
REMARK  status: ('A' for Active; 'I' for Inactive)
REMARK    1  A    between atoms: C_7  and  C_8 
REMARK    2  A    between atoms: N_9  and  N_10 
REMARK       I    between atoms: N_10  and  C_11 
REMARK    3  A    between atoms: C_11  and  C_12 
REMARK    4  A    between atoms: C_12  and  N_13 
REMARK       I    between atoms: N_13  and  C_14 
REMARK    5  A    between atoms: C_14  and  C_15 
ROOT
HETATM    1  N   UNL     1      41.120 -15.895   3.548  1.00  0.00    -0.246 N 
HETATM    2  C   UNL     1      40.645 -14.938   4.433  1.00  0.00     0.255 C 
HETATM    3  O   UNL     1      40.751 -14.969   5.657  1.00  0.00    -0.270 OA
HETATM    4  H   UNL     1      41.050 -15.719   2.541  1.00  0.00     0.192 HD
ENDROOT
BRANCH   1   5
HETATM    5  N   UNL     1      41.716 -17.030   4.011  1.00  0.00    -0.184 NA
HETATM    6  C   UNL     1      42.969 -17.159   3.714  1.00  0.00     0.153 C 
BRANCH   6   7
HETATM    7  C   UNL     1      43.702 -18.342   4.129  1.00  0.00     0.018 A 
HETATM    8  C   UNL     1      44.406 -18.519   5.314  1.00  0.00     0.018 A 
HETATM    9  C   UNL     1      44.626 -17.606   6.468  1.00  0.00     0.069 C 
HETATM   10  N   UNL     1      44.936 -19.785   5.301  1.00  0.00    -0.358 N 
HETATM   11  H   UNL     1      45.496 -20.186   6.041  1.00  0.00     0.166 HD
HETATM   12  C   UNL     1      44.596 -20.442   4.144  1.00  0.00     0.043 A 
HETATM   13  C   UNL     1      43.823 -19.565   3.385  1.00  0.00     0.004 A 
HETATM   14  C   UNL     1      44.912 -21.740   3.722  1.00  0.00     0.030 A 
HETATM   15  C   UNL     1      43.342 -20.011   2.135  1.00  0.00     0.014 A 
HETATM   16  C   UNL     1      43.648 -21.305   1.696  1.00  0.00     0.001 A 
HETATM   17  C   UNL     1      44.423 -22.155   2.481  1.00  0.00     0.002 A 
ENDBRANCH   6   7
ENDBRANCH   1   5
BRANCH   2  18
HETATM   18  C   UNL     1      39.897 -13.808   3.725  1.00  0.00     0.227 C 
BRANCH  18  19
HETATM   19  N   UNL     1      40.136 -13.767   2.291  1.00  0.00    -0.348 N 
HETATM   20  C   UNL     1      39.354 -14.477   1.408  1.00  0.00     0.252 C 
HETATM   21  O   UNL     1      38.484 -15.260   1.779  1.00  0.00    -0.268 OA
HETATM   22  H   UNL     1      41.003 -13.351   1.973  1.00  0.00     0.163 HD
BRANCH  20  23
HETATM   23  C   UNL     1      39.658 -14.294  -0.035  1.00  0.00     0.032 A 
HETATM   24  C   UNL     1      38.687 -13.707  -0.859  1.00  0.00     0.020 A 
HETATM   25  C   UNL     1      38.951 -13.507  -2.215  1.00  0.00     0.043 A 
HETATM   26  C   UNL     1      40.185 -13.883  -2.736  1.00  0.00     0.116 A 
HETATM   27  F   UNL     1      40.439 -13.684  -4.036  1.00  0.00    -0.206 F 
HETATM   28  C   UNL     1      41.162 -14.453  -1.928  1.00  0.00     0.043 A 
HETATM   29  C   UNL     1      40.902 -14.659  -0.571  1.00  0.00     0.020 A 
ENDBRANCH  20  23
ENDBRANCH  18  19
ENDBRANCH   2  18
TORSDOF 5
ENDMDL
MODEL 8
REMARK VINA RESULT:      -8.4      7.692     10.852
REMARK  5 active torsions:
REMARK  status: ('A' for Active; 'I' for Inactive)
REMARK    1  A    between atoms: C_7  and  C_8 
REMARK    2  A    between atoms: N_9  and  N_10 
REMARK       I    between atoms: N_10  and  C_11 
REMARK    3  A    between atoms: C_11  and  C_12 
REMARK    4  A    between atoms: C_12  and  N_13 
REMARK       I    between atoms: N_13  and  C_14 
REMARK    5  A    between atoms: C_14  and  C_15 
ROOT
HETATM    1  N   UNL     1      42.661 -15.629   1.670  1.00  0.00    -0.246 N 
HETATM    2  C   UNL     1      41.742 -15.727   0.635  1.00  0.00     0.255 C 
HETATM    3  O   UNL     1      41.395 -16.764   0.074  1.00  0.00    -0.270 OA
HETATM    4  H   UNL     1      42.807 -14.720   2.120  1.00  0.00     0.192 HD
ENDROOT
BRANCH   1   5
HETATM    5  N   UNL     1      43.324 -16.734   2.115  1.00  0.00    -0.184 NA
HETATM    6  C   UNL     1      43.032 -17.109   3.319  1.00  0.00     0.153 C 
BRANCH   6   7
HETATM    7  C   UNL     1      43.695 -18.257   3.911  1.00  0.00     0.018 A 
HETATM    8  C   UNL     1      44.288 -18.327   5.166  1.00  0.00     0.018 A 
HETATM    9  C   UNL     1      44.431 -17.306   6.240  1.00  0.00     0.069 C 
HETATM   10  N   UNL     1      44.784 -19.597   5.324  1.00  0.00    -0.358 N 
HETATM   11  H   UNL     1      45.267 -19.932   6.147  1.00  0.00     0.166 HD
HETATM   12  C   UNL     1      44.529 -20.360   4.211  1.00  0.00     0.043 A 
HETATM   13  C   UNL     1      43.849 -19.549   3.304  1.00  0.00     0.004 A 
HETATM   14  C   UNL     1      44.848 -21.698   3.948  1.00  0.00     0.030 A 
HETATM   15  C   UNL     1      43.467 -20.110   2.065  1.00  0.00     0.014 A 
HETATM   16  C   UNL     1      43.777 -21.446   1.785  1.00  0.00     0.001 A 
HETATM   17  C   UNL     1      44.457 -22.227   2.715  1.00  0.00     0.002 A 
ENDBRANCH   6   7
ENDBRANCH   1   5
BRANCH   2  18
HETATM   18  C   UNL     1      41.208 -14.363   0.197  1.00  0.00     0.227 C 
BRANCH  18  19
HETATM   19  N   UNL     1      40.108 -14.450  -0.749  1.00  0.00    -0.348 N 
HETATM   20  C   UNL     1      39.805 -13.413  -1.601  1.00  0.00     0.252 C 
HETATM   21  O   UNL     1      40.371 -12.325  -1.545  1.00  0.00    -0.268 OA
HETATM   22  H   UNL     1      39.456 -15.217  -0.638  1.00  0.00     0.163 HD
BRANCH  20  23
HETATM   23  C   UNL     1      38.702 -13.655  -2.568  1.00  0.00     0.032 A 
HETATM   24  C   UNL     1      38.579 -14.927  -3.145  1.00  0.00     0.020 A 
HETATM   25  C   UNL     1      37.543 -15.188  -4.043  1.00  0.00     0.043 A 
HETATM   26  C   UNL     1      36.630 -14.184  -4.349  1.00  0.00     0.116 A 
HETATM   27  F   UNL     1      35.632 -14.438  -5.205  1.00  0.00    -0.206 F 
HETATM   28  C   UNL     1      36.731 -12.922  -3.772  1.00  0.00     0.043 A 
HETATM   29  C   UNL     1      37.769 -12.654  -2.876  1.00  0.00     0.020 A 
ENDBRANCH  20  23
ENDBRANCH  18  19
ENDBRANCH   2  18
TORSDOF 5
ENDMDL
MODEL 9
REMARK VINA RESULT:      -8.4      2.409      3.295
REMARK  5 active torsions:
REMARK  status: ('A' for Active; 'I' for Inactive)
REMARK    1  A    between atoms: C_7  and  C_8 
REMARK    2  A    between atoms: N_9  and  N_10 
REMARK       I    between atoms: N_10  and  C_11 
REMARK    3  A    between atoms: C_11  and  C_12 
REMARK    4  A    between atoms: C_12  and  N_13 
REMARK       I    between atoms: N_13  and  C_14 
REMARK    5  A    between atoms: C_14  and  C_15 
ROOT
HETATM    1  N   UNL     1      40.944 -13.548   6.236  1.00  0.00    -0.246 N 
HETATM    2  C   UNL     1      41.062 -12.203   5.917  1.00  0.00     0.255 C 
HETATM    3  O   UNL     1      41.757 -11.732   5.019  1.00  0.00    -0.270 OA
HETATM    4  H   UNL     1      40.265 -13.832   6.950  1.00  0.00     0.192 HD
ENDROOT
BRANCH   1   5
HETATM    5  N   UNL     1      41.685 -14.484   5.578  1.00  0.00    -0.184 NA
HETATM    6  C   UNL     1      41.044 -15.552   5.226  1.00  0.00     0.153 C 
BRANCH   6   7
HETATM    7  C   UNL     1      41.736 -16.631   4.543  1.00  0.00     0.018 A 
HETATM    8  C   UNL     1      41.457 -17.138   3.280  1.00  0.00     0.018 A 
HETATM    9  C   UNL     1      40.418 -16.764   2.282  1.00  0.00     0.069 C 
HETATM   10  N   UNL     1      42.359 -18.140   3.023  1.00  0.00    -0.358 N 
HETATM   11  H   UNL     1      42.392 -18.685   2.172  1.00  0.00     0.166 HD
HETATM   12  C   UNL     1      43.222 -18.300   4.080  1.00  0.00     0.043 A 
HETATM   13  C   UNL     1      42.857 -17.370   5.052  1.00  0.00     0.004 A 
HETATM   14  C   UNL     1      44.289 -19.192   4.240  1.00  0.00     0.030 A 
HETATM   15  C   UNL     1      43.604 -17.331   6.250  1.00  0.00     0.014 A 
HETATM   16  C   UNL     1      44.675 -18.216   6.428  1.00  0.00     0.001 A 
HETATM   17  C   UNL     1      45.010 -19.132   5.435  1.00  0.00     0.002 A 
ENDBRANCH   6   7
ENDBRANCH   1   5
BRANCH   2  18
HETATM   18  C   UNL     1      40.250 -11.307   6.853  1.00  0.00     0.227 C 
BRANCH  18  19
HETATM   19  N   UNL     1      40.691 -11.368   8.238  1.00  0.00    -0.348 N 
HETATM   20  C   UNL     1      41.660 -10.521   8.724  1.00  0.00     0.252 C 
HETATM   21  O   UNL     1      42.278  -9.741   8.005  1.00  0.00    -0.268 OA
HETATM   22  H   UNL     1      40.402 -12.170   8.785  1.00  0.00     0.163 HD
BRANCH  20  23
HETATM   23  C   UNL     1      41.970 -10.638  10.173  1.00  0.00     0.032 A 
HETATM   24  C   UNL     1      43.250 -10.282  10.619  1.00  0.00     0.020 A 
HETATM   25  C   UNL     1      43.565 -10.365  11.976  1.00  0.00     0.043 A 
HETATM   26  C   UNL     1      42.598 -10.792  12.880  1.00  0.00     0.116 A 
HETATM   27  F   UNL     1      42.898 -10.864  14.183  1.00  0.00    -0.206 F 
HETATM   28  C   UNL     1      41.318 -11.134  12.453  1.00  0.00     0.043 A 
HETATM   29  C   UNL     1      40.999 -11.056  11.096  1.00  0.00     0.020 A 
ENDBRANCH  20  23
ENDBRANCH  18  19
ENDBRANCH   2  18
TORSDOF 5
ENDMDL
MODEL 10
REMARK VINA RESULT:      -8.3      6.886     10.281
REMARK  5 active torsions:
REMARK  status: ('A' for Active; 'I' for Inactive)
REMARK    1  A    between atoms: C_7  and  C_8 
REMARK    2  A    between atoms: N_9  and  N_10 
REMARK       I    between atoms: N_10  and  C_11 
REMARK    3  A    between atoms: C_11  and  C_12 
REMARK    4  A    between atoms: C_12  and  N_13 
REMARK       I    between atoms: N_13  and  C_14 
REMARK    5  A    between atoms: C_14  and  C_15 
ROOT
HETATM    1  N   UNL     1      40.417 -15.710   3.451  1.00  0.00    -0.246 N 
HETATM    2  C   UNL     1      40.775 -15.389   4.753  1.00  0.00     0.255 C 
HETATM    3  O   UNL     1      40.911 -14.254   5.206  1.00  0.00    -0.270 OA
HETATM    4  H   UNL     1      40.249 -16.692   3.210  1.00  0.00     0.192 HD
ENDROOT
BRANCH   1   5
HETATM    5  N   UNL     1      40.245 -14.731   2.519  1.00  0.00    -0.184 NA
HETATM    6  C   UNL     1      39.660 -15.102   1.426  1.00  0.00     0.153 C 
BRANCH   6   7
HETATM    7  C   UNL     1      39.448 -14.152   0.348  1.00  0.00     0.018 A 
HETATM    8  C   UNL     1      38.686 -12.990   0.394  1.00  0.00     0.018 A 
HETATM    9  C   UNL     1      37.887 -12.386   1.494  1.00  0.00     0.069 C 
HETATM   10  N   UNL     1      38.767 -12.389  -0.838  1.00  0.00    -0.358 N 
HETATM   11  H   UNL     1      38.312 -11.523  -1.090  1.00  0.00     0.166 HD
HETATM   12  C   UNL     1      39.563 -13.121  -1.685  1.00  0.00     0.043 A 
HETATM   13  C   UNL     1      40.004 -14.236  -0.973  1.00  0.00     0.004 A 
HETATM   14  C   UNL     1      39.920 -12.877  -3.016  1.00  0.00     0.030 A 
HETATM   15  C   UNL     1      40.850 -15.155  -1.632  1.00  0.00     0.014 A 
HETATM   16  C   UNL     1      41.218 -14.927  -2.963  1.00  0.00     0.001 A 
HETATM   17  C   UNL     1      40.758 -13.802  -3.643  1.00  0.00     0.002 A 
ENDBRANCH   6   7
ENDBRANCH   1   5
BRANCH   2  18
HETATM   18  C   UNL     1      41.047 -16.628   5.606  1.00  0.00     0.227 C 
BRANCH  18  19
HETATM   19  N   UNL     1      41.654 -17.721   4.862  1.00  0.00    -0.348 N 
HETATM   20  C   UNL     1      43.019 -17.828   4.723  1.00  0.00     0.252 C 
HETATM   21  O   UNL     1      43.794 -16.965   5.124  1.00  0.00    -0.268 OA
HETATM   22  H   UNL     1      41.043 -18.295   4.295  1.00  0.00     0.163 HD
BRANCH  20  23
HETATM   23  C   UNL     1      43.515 -19.028   3.999  1.00  0.00     0.032 A 
HETATM   24  C   UNL     1      43.126 -19.219   2.666  1.00  0.00     0.020 A 
HETATM   25  C   UNL     1      43.590 -20.328   1.956  1.00  0.00     0.043 A 
HETATM   26  C   UNL     1      44.447 -21.231   2.577  1.00  0.00     0.116 A 
HETATM   27  F   UNL     1      44.897 -22.290   1.893  1.00  0.00    -0.206 F 
HETATM   28  C   UNL     1      44.853 -21.045   3.895  1.00  0.00     0.043 A 
HETATM   29  C   UNL     1      44.388 -19.940   4.611  1.00  0.00     0.020 A 
ENDBRANCH  20  23
ENDBRANCH  18  19
ENDBRANCH   2  18
TORSDOF 5
ENDMDL
