MODEL 1
REMARK VINA RESULT:      -8.2      0.000      0.000
REMARK  4 active torsions:
REMARK  status: ('A' for Active; 'I' for Inactive)
REMARK    1  A    between atoms: O_2  and  C_3 
REMARK    2  A    between atoms: C_5  and  N_6 
REMARK    3  A    between atoms: C_10  and  C_11 
REMARK    4  A    between atoms: C_22  and  O_23 
ROOT
HETATM    1  N   UNL     1      42.146 -15.869   2.718  1.00  0.00    -0.315 N 
HETATM    2  C   UNL     1      41.509 -16.531   1.664  1.00  0.00     0.225 C 
HETATM    3  O   UNL     1      40.320 -16.550   1.380  1.00  0.00    -0.273 OA
HETATM    4  C   UNL     1      42.576 -17.125   0.775  1.00  0.00     0.117 C 
HETATM    5  C   UNL     1      43.810 -17.171   1.671  1.00  0.00     0.082 C 
HETATM    6  C   UNL     1      43.581 -16.008   2.631  1.00  0.00     0.145 C 
ENDROOT
BRANCH   1   7
HETATM    7  C   UNL     1      41.497 -15.153   3.762  1.00  0.00     0.073 A 
HETATM    8  C   UNL     1      41.088 -13.828   3.540  1.00  0.00     0.069 A 
HETATM    9  C   UNL     1      40.380 -13.102   4.505  1.00  0.00     0.070 A 
HETATM   10  C   UNL     1      40.111 -13.685   5.739  1.00  0.00     0.039 A 
HETATM   11  C   UNL     1      40.527 -14.992   5.995  1.00  0.00     0.042 A 
HETATM   12  C   UNL     1      41.225 -15.723   5.022  1.00  0.00     0.095 A 
BRANCH   9  13
HETATM   13  O   UNL     1      40.003 -11.843   4.125  1.00  0.00    -0.356 OA
HETATM   14  C   UNL     1      38.675 -11.453   4.447  1.00  0.00     0.210 C 
ENDBRANCH   9  13
BRANCH  12  15
HETATM   15  O   UNL     1      41.651 -17.000   5.299  1.00  0.00    -0.354 OA
HETATM   16  C   UNL     1      42.067 -17.173   6.655  1.00  0.00     0.210 C 
ENDBRANCH  12  15
ENDBRANCH   1   7
BRANCH   5  17
HETATM   17  C   UNL     1      43.916 -18.501   2.355  1.00  0.00     0.111 A 
HETATM   18  N   UNL     1      43.922 -19.686   1.780  1.00  0.00    -0.233 NA
HETATM   19  C   UNL     1      44.204 -20.587   2.776  1.00  0.00     0.085 A 
HETATM   20  C   UNL     1      44.343 -19.943   3.999  1.00  0.00     0.062 A 
HETATM   21  C   UNL     1      44.379 -21.977   2.708  1.00  0.00     0.034 A 
HETATM   22  N   UNL     1      44.127 -18.621   3.710  1.00  0.00    -0.342 N 
HETATM   23  C   UNL     1      44.655 -20.611   5.187  1.00  0.00     0.032 A 
HETATM   24  H   UNL     1      44.178 -17.861   4.372  1.00  0.00     0.167 HD
HETATM   25  C   UNL     1      44.834 -21.996   5.098  1.00  0.00     0.002 A 
HETATM   26  C   UNL     1      44.700 -22.672   3.882  1.00  0.00     0.002 A 
ENDBRANCH   5  17
TORSDOF 4
ENDMDL
MODEL 2
REMARK VINA RESULT:      -8.1      0.518      1.271
REMARK  4 active torsions:
REMARK  status: ('A' for Active; 'I' for Inactive)
REMARK    1  A    between atoms: O_2  and  C_3 
REMARK    2  A    between atoms: C_5  and  N_6 
REMARK    3  A    between atoms: C_10  and  C_11 
REMARK    4  A    between atoms: C_22  and  O_23 
ROOT
HETATM    1  N   UNL     1      41.948 -16.104   2.777  1.00  0.00    -0.315 N 
HETATM    2  C   UNL     1      41.338 -16.957   1.852  1.00  0.00     0.225 C 
HETATM    3  O   UNL     1      40.148 -17.184   1.689  1.00  0.00    -0.273 OA
HETATM    4  C   UNL     1      42.408 -17.469   0.917  1.00  0.00     0.117 C 
HETATM    5  C   UNL     1      43.704 -17.239   1.687  1.00  0.00     0.082 C 
HETATM    6  C   UNL     1      43.374 -16.033   2.562  1.00  0.00     0.145 C 
ENDROOT
BRANCH   1   7
HETATM    7  C   UNL     1      41.282 -15.394   3.815  1.00  0.00     0.073 A 
HETATM    8  C   UNL     1      40.721 -14.136   3.540  1.00  0.00     0.069 A 
HETATM    9  C   UNL     1      39.991 -13.428   4.502  1.00  0.00     0.070 A 
HETATM   10  C   UNL     1      39.855 -13.954   5.783  1.00  0.00     0.039 A 
HETATM   11  C   UNL     1      40.424 -15.190   6.090  1.00  0.00     0.042 A 
HETATM   12  C   UNL     1      41.143 -15.905   5.121  1.00  0.00     0.095 A 
BRANCH   9  13
HETATM   13  O   UNL     1      39.460 -12.243   4.072  1.00  0.00    -0.356 OA
HETATM   14  C   UNL     1      39.138 -12.156   2.690  1.00  0.00     0.210 C 
ENDBRANCH   9  13
BRANCH  12  15
HETATM   15  O   UNL     1      41.720 -17.109   5.446  1.00  0.00    -0.354 OA
HETATM   16  C   UNL     1      42.364 -17.098   6.721  1.00  0.00     0.210 C 
ENDBRANCH  12  15
ENDBRANCH   1   7
BRANCH   5  17
HETATM   17  C   UNL     1      44.078 -18.462   2.469  1.00  0.00     0.111 A 
HETATM   18  N   UNL     1      44.277 -18.537   3.769  1.00  0.00    -0.233 NA
HETATM   19  C   UNL     1      44.429 -19.872   4.050  1.00  0.00     0.085 A 
HETATM   20  C   UNL     1      44.353 -20.632   2.891  1.00  0.00     0.062 A 
HETATM   21  C   UNL     1      44.615 -20.515   5.283  1.00  0.00     0.034 A 
HETATM   22  N   UNL     1      44.157 -19.711   1.895  1.00  0.00    -0.342 N 
HETATM   23  C   UNL     1      44.449 -22.027   2.880  1.00  0.00     0.032 A 
HETATM   24  H   UNL     1      44.031 -19.924   0.916  1.00  0.00     0.167 HD
HETATM   25  C   UNL     1      44.626 -22.652   4.120  1.00  0.00     0.002 A 
HETATM   26  C   UNL     1      44.708 -21.913   5.303  1.00  0.00     0.002 A 
ENDBRANCH   5  17
TORSDOF 4
ENDMDL
MODEL 3
REMARK VINA RESULT:      -8.1      1.874      3.436
REMARK  4 active torsions:
REMARK  status: ('A' for Active; 'I' for Inactive)
REMARK    1  A    between atoms: O_2  and  C_3 
REMARK    2  A    between atoms: C_5  and  N_6 
REMARK    3  A    between atoms: C_10  and  C_11 
REMARK    4  A    between atoms: C_22  and  O_23 
ROOT
HETATM    1  N   UNL     1      42.278 -15.058   5.798  1.00  0.00    -0.315 N 
HETATM    2  C   UNL     1      43.641 -14.744   5.833  1.00  0.00     0.225 C 
HETATM    3  O   UNL     1      44.205 -13.741   5.421  1.00  0.00    -0.273 OA
HETATM    4  C   UNL     1      44.342 -15.807   6.646  1.00  0.00     0.117 C 
HETATM    5  C   UNL     1      43.364 -16.978   6.632  1.00  0.00     0.082 C 
HETATM    6  C   UNL     1      42.008 -16.292   6.498  1.00  0.00     0.145 C 
ENDROOT
BRANCH   1   7
HETATM    7  C   UNL     1      41.267 -14.291   5.155  1.00  0.00     0.073 A 
HETATM    8  C   UNL     1      40.600 -13.287   5.875  1.00  0.00     0.069 A 
HETATM    9  C   UNL     1      39.649 -12.454   5.271  1.00  0.00     0.070 A 
HETATM   10  C   UNL     1      39.315 -12.652   3.935  1.00  0.00     0.039 A 
HETATM   11  C   UNL     1      39.945 -13.658   3.204  1.00  0.00     0.042 A 
HETATM   12  C   UNL     1      40.907 -14.483   3.805  1.00  0.00     0.095 A 
BRANCH   9  13
HETATM   13  O   UNL     1      39.124 -11.488   6.085  1.00  0.00    -0.356 OA
HETATM   14  C   UNL     1      39.509 -11.531   7.453  1.00  0.00     0.210 C 
ENDBRANCH   9  13
BRANCH  12  15
HETATM   15  O   UNL     1      41.500 -15.488   3.079  1.00  0.00    -0.354 OA
HETATM   16  C   UNL     1      40.574 -16.221   2.274  1.00  0.00     0.210 C 
ENDBRANCH  12  15
ENDBRANCH   1   7
BRANCH   5  17
HETATM   17  C   UNL     1      43.677 -17.912   5.502  1.00  0.00     0.111 A 
HETATM   18  N   UNL     1      44.506 -18.936   5.532  1.00  0.00    -0.233 NA
HETATM   19  C   UNL     1      44.341 -19.589   4.335  1.00  0.00     0.085 A 
HETATM   20  C   UNL     1      43.412 -18.932   3.539  1.00  0.00     0.062 A 
HETATM   21  C   UNL     1      44.938 -20.767   3.865  1.00  0.00     0.034 A 
HETATM   22  N   UNL     1      43.025 -17.853   4.292  1.00  0.00    -0.342 N 
HETATM   23  C   UNL     1      43.028 -19.386   2.274  1.00  0.00     0.032 A 
HETATM   24  H   UNL     1      42.332 -17.170   4.023  1.00  0.00     0.167 HD
HETATM   25  C   UNL     1      43.628 -20.568   1.824  1.00  0.00     0.002 A 
HETATM   26  C   UNL     1      44.567 -21.250   2.603  1.00  0.00     0.002 A 
ENDBRANCH   5  17
TORSDOF 4
ENDMDL
MODEL 4
REMARK VINA RESULT:      -7.7      1.732      2.859
REMARK  4 active torsions:
REMARK  status: ('A' for Active; 'I' for Inactive)
REMARK    1  A    between atoms: O_2  and  C_3 
REMARK    2  A    between atoms: C_5  and  N_6 
REMARK    3  A    between atoms: C_10  and  C_11 
REMARK    4  A    between atoms: C_22  and  O_23 
ROOT
HETATM    1  N   UNL     1      42.526 -15.910   2.585  1.00  0.00    -0.315 N 
HETATM    2  C   UNL     1      41.390 -16.567   2.103  1.00  0.00     0.225 C 
HETATM    3  O   UNL     1      40.218 -16.383   2.397  1.00  0.00    -0.273 OA
HETATM    4  C   UNL     1      41.822 -17.479   0.979  1.00  0.00     0.117 C 
HETATM    5  C   UNL     1      43.321 -17.651   1.207  1.00  0.00     0.082 C 
HETATM    6  C   UNL     1      43.716 -16.347   1.893  1.00  0.00     0.145 C 
ENDROOT
BRANCH   1   7
HETATM    7  C   UNL     1      42.545 -14.943   3.629  1.00  0.00     0.073 A 
HETATM    8  C   UNL     1      43.201 -15.240   4.834  1.00  0.00     0.069 A 
HETATM    9  C   UNL     1      43.313 -14.299   5.865  1.00  0.00     0.070 A 
HETATM   10  C   UNL     1      42.720 -13.049   5.718  1.00  0.00     0.039 A 
HETATM   11  C   UNL     1      42.041 -12.736   4.541  1.00  0.00     0.042 A 
HETATM   12  C   UNL     1      41.941 -13.675   3.503  1.00  0.00     0.095 A 
BRANCH   9  13
HETATM   13  O   UNL     1      44.026 -14.715   6.956  1.00  0.00    -0.356 OA
HETATM   14  C   UNL     1      44.680 -13.703   7.711  1.00  0.00     0.210 C 
ENDBRANCH   9  13
BRANCH  12  15
HETATM   15  O   UNL     1      41.246 -13.361   2.360  1.00  0.00    -0.354 OA
HETATM   16  C   UNL     1      41.986 -12.530   1.463  1.00  0.00     0.210 C 
ENDBRANCH  12  15
ENDBRANCH   1   7
BRANCH   5  17
HETATM   17  C   UNL     1      43.591 -18.870   2.038  1.00  0.00     0.111 A 
HETATM   18  N   UNL     1      43.623 -20.118   1.620  1.00  0.00    -0.233 NA
HETATM   19  C   UNL     1      44.069 -20.861   2.685  1.00  0.00     0.085 A 
HETATM   20  C   UNL     1      44.285 -20.053   3.794  1.00  0.00     0.062 A 
HETATM   21  C   UNL     1      44.335 -22.235   2.774  1.00  0.00     0.034 A 
HETATM   22  N   UNL     1      43.947 -18.795   3.365  1.00  0.00    -0.342 N 
HETATM   23  C   UNL     1      44.764 -20.537   5.014  1.00  0.00     0.032 A 
HETATM   24  H   UNL     1      44.011 -17.952   3.917  1.00  0.00     0.167 HD
HETATM   25  C   UNL     1      45.032 -21.910   5.082  1.00  0.00     0.002 A 
HETATM   26  C   UNL     1      44.822 -22.748   3.983  1.00  0.00     0.002 A 
ENDBRANCH   5  17
TORSDOF 4
ENDMDL
MODEL 5
REMARK VINA RESULT:      -7.7      1.879      3.366
REMARK  4 active torsions:
REMARK  status: ('A' for Active; 'I' for Inactive)
REMARK    1  A    between atoms: O_2  and  C_3 
REMARK    2  A    between atoms: C_5  and  N_6 
REMARK    3  A    between atoms: C_10  and  C_11 
REMARK    4  A    between atoms: C_22  and  O_23 
ROOT
HETATM    1  N   UNL     1      41.560 -14.667   3.867  1.00  0.00    -0.315 N 
HETATM    2  C   UNL     1      42.875 -14.199   3.776  1.00  0.00     0.225 C 
HETATM    3  O   UNL     1      43.331 -13.340   3.036  1.00  0.00    -0.273 OA
HETATM    4  C   UNL     1      43.670 -14.824   4.898  1.00  0.00     0.117 C 
HETATM    5  C   UNL     1      42.837 -16.037   5.302  1.00  0.00     0.082 C 
HETATM    6  C   UNL     1      41.415 -15.607   4.954  1.00  0.00     0.145 C 
ENDROOT
BRANCH   1   7
HETATM    7  C   UNL     1      40.487 -14.297   3.011  1.00  0.00     0.073 A 
HETATM    8  C   UNL     1      39.769 -13.118   3.274  1.00  0.00     0.069 A 
HETATM    9  C   UNL     1      38.753 -12.668   2.422  1.00  0.00     0.070 A 
HETATM   10  C   UNL     1      38.404 -13.427   1.310  1.00  0.00     0.039 A 
HETATM   11  C   UNL     1      39.085 -14.614   1.039  1.00  0.00     0.042 A 
HETATM   12  C   UNL     1      40.112 -15.058   1.885  1.00  0.00     0.095 A 
BRANCH   9  13
HETATM   13  O   UNL     1      38.181 -11.477   2.780  1.00  0.00    -0.356 OA
HETATM   14  C   UNL     1      38.490 -10.989   4.079  1.00  0.00     0.210 C 
ENDBRANCH   9  13
BRANCH  12  15
HETATM   15  O   UNL     1      40.755 -16.243   1.619  1.00  0.00    -0.354 OA
HETATM   16  C   UNL     1      41.450 -16.238   0.371  1.00  0.00     0.210 C 
ENDBRANCH  12  15
ENDBRANCH   1   7
BRANCH   5  17
HETATM   17  C   UNL     1      43.290 -17.259   4.562  1.00  0.00     0.111 A 
HETATM   18  N   UNL     1      44.141 -18.169   4.989  1.00  0.00    -0.233 NA
HETATM   19  C   UNL     1      44.119 -19.174   4.054  1.00  0.00     0.085 A 
HETATM   20  C   UNL     1      43.258 -18.859   3.011  1.00  0.00     0.062 A 
HETATM   21  C   UNL     1      44.795 -20.403   4.038  1.00  0.00     0.034 A 
HETATM   22  N   UNL     1      42.764 -17.624   3.343  1.00  0.00    -0.342 N 
HETATM   23  C   UNL     1      43.018 -19.710   1.929  1.00  0.00     0.032 A 
HETATM   24  H   UNL     1      42.083 -17.102   2.811  1.00  0.00     0.167 HD
HETATM   25  C   UNL     1      43.695 -20.936   1.935  1.00  0.00     0.002 A 
HETATM   26  C   UNL     1      44.570 -21.280   2.969  1.00  0.00     0.002 A 
ENDBRANCH   5  17
TORSDOF 4
ENDMDL
MODEL 6
REMARK VINA RESULT:      -7.5      2.255      6.852
REMARK  4 active torsions:
REMARK  status: ('A' for Active; 'I' for Inactive)
REMARK    1  A    between atoms: O_2  and  C_3 
REMARK    2  A    between atoms: C_5  and  N_6 
REMARK    3  A    between atoms: C_10  and  C_11 
REMARK    4  A    between atoms: C_22  and  O_23 
ROOT
HETATM    1  N   UNL     1      42.745 -17.786   2.419  1.00  0.00    -0.315 N 
HETATM    2  C   UNL     1      43.246 -16.842   1.517  1.00  0.00     0.225 C 
HETATM    3  O   UNL     1      44.410 -16.573   1.258  1.00  0.00    -0.273 OA
HETATM    4  C   UNL     1      42.079 -16.279   0.739  1.00  0.00     0.117 C 
HETATM    5  C   UNL     1      40.870 -16.607   1.610  1.00  0.00     0.082 C 
HETATM    6  C   UNL     1      41.306 -17.874   2.339  1.00  0.00     0.145 C 
ENDROOT
BRANCH   1   7
HETATM    7  C   UNL     1      43.523 -18.566   3.320  1.00  0.00     0.073 A 
HETATM    8  C   UNL     1      43.848 -18.042   4.582  1.00  0.00     0.069 A 
HETATM    9  C   UNL     1      44.547 -18.794   5.535  1.00  0.00     0.070 A 
HETATM   10  C   UNL     1      44.978 -20.077   5.213  1.00  0.00     0.039 A 
HETATM   11  C   UNL     1      44.689 -20.612   3.958  1.00  0.00     0.042 A 
HETATM   12  C   UNL     1      43.977 -19.864   3.009  1.00  0.00     0.095 A 
BRANCH   9  13
HETATM   13  O   UNL     1      44.743 -18.170   6.737  1.00  0.00    -0.356 OA
HETATM   14  C   UNL     1      43.911 -18.587   7.811  1.00  0.00     0.210 C 
ENDBRANCH   9  13
BRANCH  12  15
HETATM   15  O   UNL     1      43.724 -20.394   1.767  1.00  0.00    -0.354 OA
HETATM   16  C   UNL     1      43.843 -21.817   1.728  1.00  0.00     0.210 C 
ENDBRANCH  12  15
ENDBRANCH   1   7
BRANCH   5  17
HETATM   17  C   UNL     1      40.556 -15.465   2.528  1.00  0.00     0.111 A 
HETATM   18  N   UNL     1      40.171 -14.254   2.179  1.00  0.00    -0.233 NA
HETATM   19  C   UNL     1      39.843 -13.612   3.347  1.00  0.00     0.085 A 
HETATM   20  C   UNL     1      40.063 -14.437   4.442  1.00  0.00     0.062 A 
HETATM   21  C   UNL     1      39.328 -12.323   3.550  1.00  0.00     0.034 A 
HETATM   22  N   UNL     1      40.543 -15.600   3.898  1.00  0.00    -0.342 N 
HETATM   23  C   UNL     1      39.793 -14.052   5.759  1.00  0.00     0.032 A 
HETATM   24  H   UNL     1      40.785 -16.432   4.415  1.00  0.00     0.167 HD
HETATM   25  C   UNL     1      39.271 -12.766   5.941  1.00  0.00     0.002 A 
HETATM   26  C   UNL     1      39.041 -11.913   4.859  1.00  0.00     0.002 A 
ENDBRANCH   5  17
TORSDOF 4
ENDMDL
MODEL 7
REMARK VINA RESULT:      -7.3      2.485      7.311
REMARK  4 active torsions:
REMARK  status: ('A' for Active; 'I' for Inactive)
REMARK    1  A    between atoms: O_2  and  C_3 
REMARK    2  A    between atoms: C_5  and  N_6 
REMARK    3  A    between atoms: C_10  and  C_11 
REMARK    4  A    between atoms: C_22  and  O_23 
ROOT
HETATM    1  N   UNL     1      42.749 -16.608   3.862  1.00  0.00    -0.315 N 
HETATM    2  C   UNL     1      41.642 -16.464   4.705  1.00  0.00     0.225 C 
HETATM    3  O   UNL     1      41.001 -17.331   5.281  1.00  0.00    -0.273 OA
HETATM    4  C   UNL     1      41.436 -14.988   4.952  1.00  0.00     0.117 C 
HETATM    5  C   UNL     1      42.184 -14.319   3.803  1.00  0.00     0.082 C 
HETATM    6  C   UNL     1      43.286 -15.323   3.481  1.00  0.00     0.145 C 
ENDROOT
BRANCH   1   7
HETATM    7  C   UNL     1      43.292 -17.843   3.410  1.00  0.00     0.073 A 
HETATM    8  C   UNL     1      44.036 -18.636   4.299  1.00  0.00     0.069 A 
HETATM    9  C   UNL     1      44.530 -19.893   3.929  1.00  0.00     0.070 A 
HETATM   10  C   UNL     1      44.324 -20.356   2.633  1.00  0.00     0.039 A 
HETATM   11  C   UNL     1      43.609 -19.578   1.724  1.00  0.00     0.042 A 
HETATM   12  C   UNL     1      43.103 -18.324   2.098  1.00  0.00     0.095 A 
BRANCH   9  13
HETATM   13  O   UNL     1      45.189 -20.572   4.917  1.00  0.00    -0.356 OA
HETATM   14  C   UNL     1      44.828 -21.934   5.102  1.00  0.00     0.210 C 
ENDBRANCH   9  13
BRANCH  12  15
HETATM   15  O   UNL     1      42.423 -17.557   1.183  1.00  0.00    -0.354 OA
HETATM   16  C   UNL     1      41.005 -17.718   1.258  1.00  0.00     0.210 C 
ENDBRANCH  12  15
ENDBRANCH   1   7
BRANCH   5  17
HETATM   17  C   UNL     1      41.258 -14.057   2.653  1.00  0.00     0.111 A 
HETATM   18  N   UNL     1      41.596 -13.889   1.391  1.00  0.00    -0.233 NA
HETATM   19  C   UNL     1      40.417 -13.847   0.688  1.00  0.00     0.085 A 
HETATM   20  C   UNL     1      39.329 -13.960   1.543  1.00  0.00     0.062 A 
HETATM   21  C   UNL     1      40.198 -13.735  -0.692  1.00  0.00     0.034 A 
HETATM   22  N   UNL     1      39.889 -14.064   2.790  1.00  0.00    -0.342 N 
HETATM   23  C   UNL     1      38.003 -13.972   1.100  1.00  0.00     0.032 A 
HETATM   24  H   UNL     1      39.379 -14.188   3.653  1.00  0.00     0.167 HD
HETATM   25  C   UNL     1      37.804 -13.869  -0.282  1.00  0.00     0.002 A 
HETATM   26  C   UNL     1      38.879 -13.752  -1.166  1.00  0.00     0.002 A 
ENDBRANCH   5  17
TORSDOF 4
ENDMDL
MODEL 8
REMARK VINA RESULT:      -7.3      1.323      2.864
REMARK  4 active torsions:
REMARK  status: ('A' for Active; 'I' for Inactive)
REMARK    1  A    between atoms: O_2  and  C_3 
REMARK    2  A    between atoms: C_5  and  N_6 
REMARK    3  A    between atoms: C_10  and  C_11 
REMARK    4  A    between atoms: C_22  and  O_23 
ROOT
HETATM    1  N   UNL     1      42.313 -16.283   2.165  1.00  0.00    -0.315 N 
HETATM    2  C   UNL     1      41.899 -17.266   1.261  1.00  0.00     0.225 C 
HETATM    3  O   UNL     1      40.767 -17.529   0.883  1.00  0.00    -0.273 OA
HETATM    4  C   UNL     1      43.134 -17.889   0.654  1.00  0.00     0.117 C 
HETATM    5  C   UNL     1      44.242 -17.535   1.642  1.00  0.00     0.082 C 
HETATM    6  C   UNL     1      43.754 -16.223   2.249  1.00  0.00     0.145 C 
ENDROOT
BRANCH   1   7
HETATM    7  C   UNL     1      41.454 -15.443   2.928  1.00  0.00     0.073 A 
HETATM    8  C   UNL     1      41.160 -15.783   4.258  1.00  0.00     0.069 A 
HETATM    9  C   UNL     1      40.381 -14.955   5.076  1.00  0.00     0.070 A 
HETATM   10  C   UNL     1      39.841 -13.786   4.551  1.00  0.00     0.039 A 
HETATM   11  C   UNL     1      40.098 -13.437   3.225  1.00  0.00     0.042 A 
HETATM   12  C   UNL     1      40.889 -14.260   2.410  1.00  0.00     0.095 A 
BRANCH   9  13
HETATM   13  O   UNL     1      40.225 -15.392   6.363  1.00  0.00    -0.356 OA
HETATM   14  C   UNL     1      40.579 -16.744   6.622  1.00  0.00     0.210 C 
ENDBRANCH   9  13
BRANCH  12  15
HETATM   15  O   UNL     1      41.112 -13.916   1.099  1.00  0.00    -0.354 OA
HETATM   16  C   UNL     1      41.993 -12.801   0.952  1.00  0.00     0.210 C 
ENDBRANCH  12  15
ENDBRANCH   1   7
BRANCH   5  17
HETATM   17  C   UNL     1      44.421 -18.631   2.649  1.00  0.00     0.111 A 
HETATM   18  N   UNL     1      44.310 -18.526   3.957  1.00  0.00    -0.233 NA
HETATM   19  C   UNL     1      44.391 -19.807   4.446  1.00  0.00     0.085 A 
HETATM   20  C   UNL     1      44.588 -20.716   3.415  1.00  0.00     0.062 A 
HETATM   21  C   UNL     1      44.283 -20.274   5.763  1.00  0.00     0.034 A 
HETATM   22  N   UNL     1      44.632 -19.942   2.285  1.00  0.00    -0.342 N 
HETATM   23  C   UNL     1      44.684 -22.096   3.618  1.00  0.00     0.032 A 
HETATM   24  H   UNL     1      44.739 -20.287   1.342  1.00  0.00     0.167 HD
HETATM   25  C   UNL     1      44.565 -22.545   4.938  1.00  0.00     0.002 A 
HETATM   26  C   UNL     1      44.368 -21.653   5.996  1.00  0.00     0.002 A 
ENDBRANCH   5  17
TORSDOF 4
ENDMDL
MODEL 9
REMARK VINA RESULT:      -7.2      2.012      3.879
REMARK  4 active torsions:
REMARK  status: ('A' for Active; 'I' for Inactive)
REMARK    1  A    between atoms: O_2  and  C_3 
REMARK    2  A    between atoms: C_5  and  N_6 
REMARK    3  A    between atoms: C_10  and  C_11 
REMARK    4  A    between atoms: C_22  and  O_23 
ROOT
HETATM    1  N   UNL     1      41.806 -14.398   4.074  1.00  0.00    -0.315 N 
HETATM    2  C   UNL     1      43.186 -14.221   4.210  1.00  0.00     0.225 C 
HETATM    3  O   UNL     1      43.920 -13.444   3.617  1.00  0.00    -0.273 OA
HETATM    4  C   UNL     1      43.649 -15.061   5.377  1.00  0.00     0.117 C 
HETATM    5  C   UNL     1      42.531 -16.084   5.555  1.00  0.00     0.082 C 
HETATM    6  C   UNL     1      41.301 -15.339   5.046  1.00  0.00     0.145 C 
ENDROOT
BRANCH   1   7
HETATM    7  C   UNL     1      40.979 -13.759   3.108  1.00  0.00     0.073 A 
HETATM    8  C   UNL     1      40.891 -14.295   1.812  1.00  0.00     0.069 A 
HETATM    9  C   UNL     1      40.037 -13.751   0.845  1.00  0.00     0.070 A 
HETATM   10  C   UNL     1      39.288 -12.619   1.152  1.00  0.00     0.039 A 
HETATM   11  C   UNL     1      39.375 -12.053   2.423  1.00  0.00     0.042 A 
HETATM   12  C   UNL     1      40.221 -12.606   3.396  1.00  0.00     0.095 A 
BRANCH   9  13
HETATM   13  O   UNL     1      40.020 -14.413  -0.352  1.00  0.00    -0.356 OA
HETATM   14  C   UNL     1      41.121 -15.271  -0.620  1.00  0.00     0.210 C 
ENDBRANCH   9  13
BRANCH  12  15
HETATM   15  O   UNL     1      40.315 -12.021   4.636  1.00  0.00    -0.354 OA
HETATM   16  C   UNL     1      41.191 -10.892   4.659  1.00  0.00     0.210 C 
ENDBRANCH  12  15
ENDBRANCH   1   7
BRANCH   5  17
HETATM   17  C   UNL     1      42.834 -17.335   4.787  1.00  0.00     0.111 A 
HETATM   18  N   UNL     1      42.330 -17.687   3.622  1.00  0.00    -0.233 NA
HETATM   19  C   UNL     1      43.017 -18.811   3.238  1.00  0.00     0.085 A 
HETATM   20  C   UNL     1      43.944 -19.176   4.205  1.00  0.00     0.062 A 
HETATM   21  C   UNL     1      42.919 -19.566   2.060  1.00  0.00     0.034 A 
HETATM   22  N   UNL     1      43.789 -18.239   5.193  1.00  0.00    -0.342 N 
HETATM   23  C   UNL     1      44.803 -20.271   4.070  1.00  0.00     0.032 A 
HETATM   24  H   UNL     1      44.330 -18.189   6.044  1.00  0.00     0.167 HD
HETATM   25  C   UNL     1      44.697 -21.008   2.884  1.00  0.00     0.002 A 
HETATM   26  C   UNL     1      43.773 -20.665   1.894  1.00  0.00     0.002 A 
ENDBRANCH   5  17
TORSDOF 4
ENDMDL
MODEL 10
REMARK VINA RESULT:      -7.2      3.064      6.365
REMARK  4 active torsions:
REMARK  status: ('A' for Active; 'I' for Inactive)
REMARK    1  A    between atoms: O_2  and  C_3 
REMARK    2  A    between atoms: C_5  and  N_6 
REMARK    3  A    between atoms: C_10  and  C_11 
REMARK    4  A    between atoms: C_22  and  O_23 
ROOT
HETATM    1  N   UNL     1      42.288 -16.800   3.551  1.00  0.00    -0.315 N 
HETATM    2  C   UNL     1      42.994 -17.599   2.646  1.00  0.00     0.225 C 
HETATM    3  O   UNL     1      44.158 -17.968   2.698  1.00  0.00    -0.273 OA
HETATM    4  C   UNL     1      42.015 -18.111   1.616  1.00  0.00     0.117 C 
HETATM    5  C   UNL     1      40.837 -17.147   1.724  1.00  0.00     0.082 C 
HETATM    6  C   UNL     1      40.896 -16.696   3.180  1.00  0.00     0.145 C 
ENDROOT
BRANCH   1   7
HETATM    7  C   UNL     1      42.840 -16.150   4.690  1.00  0.00     0.073 A 
HETATM    8  C   UNL     1      42.912 -16.839   5.911  1.00  0.00     0.069 A 
HETATM    9  C   UNL     1      43.512 -16.275   7.043  1.00  0.00     0.070 A 
HETATM   10  C   UNL     1      44.010 -14.977   6.978  1.00  0.00     0.039 A 
HETATM   11  C   UNL     1      43.930 -14.261   5.784  1.00  0.00     0.042 A 
HETATM   12  C   UNL     1      43.340 -14.832   4.647  1.00  0.00     0.095 A 
BRANCH   9  13
HETATM   13  O   UNL     1      43.556 -17.086   8.143  1.00  0.00    -0.356 OA
HETATM   14  C   UNL     1      43.835 -18.460   7.908  1.00  0.00     0.210 C 
ENDBRANCH   9  13
BRANCH  12  15
HETATM   15  O   UNL     1      43.245 -14.105   3.485  1.00  0.00    -0.354 OA
HETATM   16  C   UNL     1      42.489 -12.901   3.636  1.00  0.00     0.210 C 
ENDBRANCH  12  15
ENDBRANCH   1   7
BRANCH   5  17
HETATM   17  C   UNL     1      40.983 -16.023   0.743  1.00  0.00     0.111 A 
HETATM   18  N   UNL     1      41.325 -14.780   1.012  1.00  0.00    -0.233 NA
HETATM   19  C   UNL     1      41.491 -14.163  -0.203  1.00  0.00     0.085 A 
HETATM   20  C   UNL     1      41.213 -15.040  -1.243  1.00  0.00     0.062 A 
HETATM   21  C   UNL     1      41.901 -12.855  -0.498  1.00  0.00     0.034 A 
HETATM   22  N   UNL     1      40.865 -16.208  -0.616  1.00  0.00    -0.342 N 
HETATM   23  C   UNL     1      41.323 -14.690  -2.592  1.00  0.00     0.032 A 
HETATM   24  H   UNL     1      40.625 -17.073  -1.079  1.00  0.00     0.167 HD
HETATM   25  C   UNL     1      41.741 -13.383  -2.868  1.00  0.00     0.002 A 
HETATM   26  C   UNL     1      42.026 -12.478  -1.842  1.00  0.00     0.002 A 
ENDBRANCH   5  17
TORSDOF 4
ENDMDL
