MODEL 1
REMARK VINA RESULT:      -9.4      0.000      0.000
REMARK  4 active torsions:
REMARK  status: ('A' for Active; 'I' for Inactive)
REMARK    1  A    between atoms: N_4  and  C_5 
REMARK    2  A    between atoms: C_15  and  C_16 
REMARK       I    between atoms: C_16  and  N_17 
REMARK    3  A    between atoms: N_17  and  C_18 
REMARK    4  A    between atoms: C_19  and  C_20 
REMARK       I    between atoms: C_20  and  N_21 
ROOT
HETATM    1  C   UNL     1      43.180 -15.404   5.434  1.00  0.00     0.073 C 
HETATM    2  C   UNL     1      43.146 -16.339   4.283  1.00  0.00     0.069 A 
HETATM    3  N   UNL     1      43.653 -17.573   4.404  1.00  0.00    -0.170 NA
HETATM    4  N   UNL     1      43.431 -18.181   3.198  1.00  0.00    -0.216 N 
HETATM    5  C   UNL     1      42.900 -17.269   2.297  1.00  0.00     0.145 A 
HETATM    6  C   UNL     1      42.683 -16.095   2.979  1.00  0.00     0.087 A 
HETATM    7  N   UNL     1      42.674 -17.389   0.966  1.00  0.00    -0.349 N 
HETATM    8  C   UNL     1      42.219 -16.277   0.278  1.00  0.00     0.111 A 
HETATM    9  C   UNL     1      41.932 -15.082   0.842  1.00  0.00     0.098 A 
HETATM   10  C   UNL     1      42.147 -14.922   2.322  1.00  0.00     0.205 A 
HETATM   11  O   UNL     1      41.916 -13.863   2.900  1.00  0.00    -0.286 OA
HETATM   12  H   UNL     1      43.062 -18.139   0.395  1.00  0.00     0.167 HD
ENDROOT
BRANCH   9  13
HETATM   13  C   UNL     1      41.488 -13.968  -0.052  1.00  0.00     0.261 C 
HETATM   14  N   UNL     1      42.471 -13.466  -0.885  1.00  0.00    -0.322 N 
HETATM   15  H   UNL     1      43.329 -14.019  -0.937  1.00  0.00     0.169 HD
HETATM   16  O   UNL     1      40.313 -13.617  -0.055  1.00  0.00    -0.267 OA
BRANCH  14  17
HETATM   17  C   UNL     1      42.247 -12.587  -1.975  1.00  0.00     0.050 A 
HETATM   18  C   UNL     1      41.663 -12.914  -3.213  1.00  0.00     0.058 A 
HETATM   19  C   UNL     1      41.660 -11.962  -4.250  1.00  0.00     0.019 A 
HETATM   20  C   UNL     1      42.175 -10.681  -4.049  1.00  0.00     0.001 A 
HETATM   21  C   UNL     1      42.677 -10.330  -2.802  1.00  0.00     0.002 A 
HETATM   22  C   UNL     1      42.705 -11.273  -1.772  1.00  0.00     0.030 A 
BRANCH  18  23
HETATM   23  C   UNL     1      40.875 -14.144  -3.500  1.00  0.00     0.251 C 
HETATM   24  N   UNL     1      39.575 -13.966  -3.886  1.00  0.00    -0.366 N 
HETATM   25  H   UNL     1      39.122 -13.064  -3.869  1.00  0.00     0.159 HD
HETATM   26  H   UNL     1      39.026 -14.797  -4.052  1.00  0.00     0.159 HD
HETATM   27  O   UNL     1      41.389 -15.256  -3.511  1.00  0.00    -0.268 OA
ENDBRANCH  18  23
ENDBRANCH  14  17
ENDBRANCH   9  13
BRANCH   4  28
HETATM   28  C   UNL     1      43.743 -19.560   3.030  1.00  0.00     0.060 A 
HETATM   29  C   UNL     1      43.398 -20.260   1.868  1.00  0.00     0.031 A 
HETATM   30  C   UNL     1      43.727 -21.613   1.739  1.00  0.00     0.002 A 
HETATM   31  C   UNL     1      44.395 -22.275   2.767  1.00  0.00     0.000 A 
HETATM   32  C   UNL     1      44.721 -21.593   3.937  1.00  0.00     0.002 A 
HETATM   33  C   UNL     1      44.388 -20.243   4.075  1.00  0.00     0.031 A 
ENDBRANCH   4  28
TORSDOF 4
ENDMDL
MODEL 2
REMARK VINA RESULT:      -9.3      2.031      2.359
REMARK  4 active torsions:
REMARK  status: ('A' for Active; 'I' for Inactive)
REMARK    1  A    between atoms: N_4  and  C_5 
REMARK    2  A    between atoms: C_15  and  C_16 
REMARK       I    between atoms: C_16  and  N_17 
REMARK    3  A    between atoms: N_17  and  C_18 
REMARK    4  A    between atoms: C_19  and  C_20 
REMARK       I    between atoms: C_20  and  N_21 
ROOT
HETATM    1  C   UNL     1      43.297 -15.311   5.500  1.00  0.00     0.073 C 
HETATM    2  C   UNL     1      43.274 -16.398   4.490  1.00  0.00     0.069 A 
HETATM    3  N   UNL     1      43.859 -17.574   4.754  1.00  0.00    -0.170 NA
HETATM    4  N   UNL     1      43.628 -18.355   3.654  1.00  0.00    -0.216 N 
HETATM    5  C   UNL     1      43.009 -17.607   2.662  1.00  0.00     0.145 A 
HETATM    6  C   UNL     1      42.747 -16.362   3.188  1.00  0.00     0.087 A 
HETATM    7  N   UNL     1      42.739 -17.922   1.372  1.00  0.00    -0.349 N 
HETATM    8  C   UNL     1      42.191 -16.942   0.560  1.00  0.00     0.111 A 
HETATM    9  C   UNL     1      41.855 -15.698   0.969  1.00  0.00     0.098 A 
HETATM   10  C   UNL     1      42.116 -15.323   2.402  1.00  0.00     0.205 A 
HETATM   11  O   UNL     1      41.845 -14.208   2.841  1.00  0.00    -0.286 OA
HETATM   12  H   UNL     1      43.149 -18.722   0.891  1.00  0.00     0.167 HD
ENDROOT
BRANCH   9  13
HETATM   13  C   UNL     1      41.310 -14.745  -0.046  1.00  0.00     0.261 C 
HETATM   14  N   UNL     1      40.003 -14.989  -0.428  1.00  0.00    -0.322 N 
HETATM   15  H   UNL     1      39.496 -15.664   0.147  1.00  0.00     0.169 HD
HETATM   16  O   UNL     1      41.990 -13.796  -0.421  1.00  0.00    -0.267 OA
BRANCH  14  17
HETATM   17  C   UNL     1      39.195 -14.103  -1.182  1.00  0.00     0.050 A 
HETATM   18  C   UNL     1      39.089 -14.046  -2.584  1.00  0.00     0.058 A 
HETATM   19  C   UNL     1      38.363 -12.999  -3.183  1.00  0.00     0.019 A 
HETATM   20  C   UNL     1      37.699 -12.051  -2.405  1.00  0.00     0.001 A 
HETATM   21  C   UNL     1      37.733 -12.152  -1.020  1.00  0.00     0.002 A 
HETATM   22  C   UNL     1      38.468 -13.174  -0.414  1.00  0.00     0.030 A 
BRANCH  18  23
HETATM   23  C   UNL     1      39.542 -15.104  -3.528  1.00  0.00     0.251 C 
HETATM   24  N   UNL     1      38.628 -15.541  -4.448  1.00  0.00    -0.366 N 
HETATM   25  H   UNL     1      37.659 -15.258  -4.427  1.00  0.00     0.159 HD
HETATM   26  H   UNL     1      38.919 -16.281  -5.071  1.00  0.00     0.159 HD
HETATM   27  O   UNL     1      40.706 -15.483  -3.569  1.00  0.00    -0.268 OA
ENDBRANCH  18  23
ENDBRANCH  14  17
ENDBRANCH   9  13
BRANCH   4  28
HETATM   28  C   UNL     1      44.016 -19.724   3.661  1.00  0.00     0.060 A 
HETATM   29  C   UNL     1      44.491 -20.353   4.817  1.00  0.00     0.031 A 
HETATM   30  C   UNL     1      44.856 -21.702   4.783  1.00  0.00     0.002 A 
HETATM   31  C   UNL     1      44.754 -22.429   3.599  1.00  0.00     0.000 A 
HETATM   32  C   UNL     1      44.304 -21.806   2.437  1.00  0.00     0.002 A 
HETATM   33  C   UNL     1      43.945 -20.456   2.463  1.00  0.00     0.031 A 
ENDBRANCH   4  28
TORSDOF 4
ENDMDL
MODEL 3
REMARK VINA RESULT:      -9.0      4.865      8.705
REMARK  4 active torsions:
REMARK  status: ('A' for Active; 'I' for Inactive)
REMARK    1  A    between atoms: N_4  and  C_5 
REMARK    2  A    between atoms: C_15  and  C_16 
REMARK       I    between atoms: C_16  and  N_17 
REMARK    3  A    between atoms: N_17  and  C_18 
REMARK    4  A    between atoms: C_19  and  C_20 
REMARK       I    between atoms: C_20  and  N_21 
ROOT
HETATM    1  C   UNL     1      40.569 -14.293   3.594  1.00  0.00     0.073 C 
HETATM    2  C   UNL     1      41.676 -15.175   4.038  1.00  0.00     0.069 A 
HETATM    3  N   UNL     1      41.791 -16.414   3.540  1.00  0.00    -0.170 NA
HETATM    4  N   UNL     1      42.917 -16.938   4.114  1.00  0.00    -0.216 N 
HETATM    5  C   UNL     1      43.419 -16.059   5.063  1.00  0.00     0.145 A 
HETATM    6  C   UNL     1      42.658 -14.915   5.009  1.00  0.00     0.087 A 
HETATM    7  N   UNL     1      44.413 -16.230   5.970  1.00  0.00    -0.349 N 
HETATM    8  C   UNL     1      44.651 -15.210   6.876  1.00  0.00     0.111 A 
HETATM    9  C   UNL     1      43.998 -14.026   6.899  1.00  0.00     0.098 A 
HETATM   10  C   UNL     1      42.908 -13.794   5.890  1.00  0.00     0.205 A 
HETATM   11  O   UNL     1      42.267 -12.746   5.856  1.00  0.00    -0.286 OA
HETATM   12  H   UNL     1      44.809 -17.139   6.206  1.00  0.00     0.167 HD
ENDROOT
BRANCH   9  13
HETATM   13  C   UNL     1      44.351 -13.047   7.973  1.00  0.00     0.261 C 
HETATM   14  N   UNL     1      43.294 -12.278   8.426  1.00  0.00    -0.322 N 
HETATM   15  H   UNL     1      42.367 -12.581   8.120  1.00  0.00     0.169 HD
HETATM   16  O   UNL     1      45.489 -13.022   8.429  1.00  0.00    -0.267 OA
BRANCH  14  17
HETATM   17  C   UNL     1      43.316 -11.461   9.583  1.00  0.00     0.050 A 
HETATM   18  C   UNL     1      42.787 -10.163   9.708  1.00  0.00     0.058 A 
HETATM   19  C   UNL     1      43.035  -9.423  10.880  1.00  0.00     0.019 A 
HETATM   20  C   UNL     1      43.747  -9.980  11.941  1.00  0.00     0.001 A 
HETATM   21  C   UNL     1      44.200 -11.290  11.854  1.00  0.00     0.002 A 
HETATM   22  C   UNL     1      43.979 -12.027  10.688  1.00  0.00     0.030 A 
BRANCH  18  23
HETATM   23  C   UNL     1      41.822  -9.529   8.769  1.00  0.00     0.251 C 
HETATM   24  N   UNL     1      40.798  -8.814   9.327  1.00  0.00    -0.366 N 
HETATM   25  H   UNL     1      40.623  -8.803  10.321  1.00  0.00     0.159 HD
HETATM   26  H   UNL     1      40.123  -8.407   8.696  1.00  0.00     0.159 HD
HETATM   27  O   UNL     1      41.995  -9.538   7.556  1.00  0.00    -0.268 OA
ENDBRANCH  18  23
ENDBRANCH  14  17
ENDBRANCH   9  13
BRANCH   4  28
HETATM   28  C   UNL     1      43.397 -18.213   3.700  1.00  0.00     0.060 A 
HETATM   29  C   UNL     1      44.147 -19.033   4.551  1.00  0.00     0.031 A 
HETATM   30  C   UNL     1      44.595 -20.281   4.108  1.00  0.00     0.002 A 
HETATM   31  C   UNL     1      44.306 -20.714   2.815  1.00  0.00     0.000 A 
HETATM   32  C   UNL     1      43.581 -19.894   1.953  1.00  0.00     0.002 A 
HETATM   33  C   UNL     1      43.136 -18.644   2.388  1.00  0.00     0.031 A 
ENDBRANCH   4  28
TORSDOF 4
ENDMDL
MODEL 4
REMARK VINA RESULT:      -8.9      2.785      8.729
REMARK  4 active torsions:
REMARK  status: ('A' for Active; 'I' for Inactive)
REMARK    1  A    between atoms: N_4  and  C_5 
REMARK    2  A    between atoms: C_15  and  C_16 
REMARK       I    between atoms: C_16  and  N_17 
REMARK    3  A    between atoms: N_17  and  C_18 
REMARK    4  A    between atoms: C_19  and  C_20 
REMARK       I    between atoms: C_20  and  N_21 
ROOT
HETATM    1  C   UNL     1      39.239 -12.915   3.133  1.00  0.00     0.073 C 
HETATM    2  C   UNL     1      39.392 -13.441   1.755  1.00  0.00     0.069 A 
HETATM    3  N   UNL     1      38.543 -13.060   0.791  1.00  0.00    -0.170 NA
HETATM    4  N   UNL     1      38.976 -13.683  -0.348  1.00  0.00    -0.216 N 
HETATM    5  C   UNL     1      40.019 -14.547  -0.049  1.00  0.00     0.145 A 
HETATM    6  C   UNL     1      40.320 -14.385   1.283  1.00  0.00     0.087 A 
HETATM    7  N   UNL     1      40.639 -15.468  -0.827  1.00  0.00    -0.349 N 
HETATM    8  C   UNL     1      41.600 -16.277  -0.243  1.00  0.00     0.111 A 
HETATM    9  C   UNL     1      42.008 -16.188   1.043  1.00  0.00     0.098 A 
HETATM   10  C   UNL     1      41.360 -15.159   1.928  1.00  0.00     0.205 A 
HETATM   11  O   UNL     1      41.674 -15.028   3.108  1.00  0.00    -0.286 OA
HETATM   12  H   UNL     1      40.270 -15.788  -1.722  1.00  0.00     0.167 HD
ENDROOT
BRANCH   9  13
HETATM   13  C   UNL     1      43.029 -17.167   1.528  1.00  0.00     0.261 C 
HETATM   14  N   UNL     1      42.539 -18.142   2.377  1.00  0.00    -0.322 N 
HETATM   15  H   UNL     1      41.521 -18.204   2.436  1.00  0.00     0.169 HD
HETATM   16  O   UNL     1      44.182 -17.105   1.114  1.00  0.00    -0.267 OA
BRANCH  14  17
HETATM   17  C   UNL     1      43.243 -19.306   2.776  1.00  0.00     0.050 A 
HETATM   18  C   UNL     1      44.029 -19.460   3.933  1.00  0.00     0.058 A 
HETATM   19  C   UNL     1      44.794 -20.630   4.101  1.00  0.00     0.019 A 
HETATM   20  C   UNL     1      44.739 -21.662   3.165  1.00  0.00     0.001 A 
HETATM   21  C   UNL     1      43.900 -21.548   2.064  1.00  0.00     0.002 A 
HETATM   22  C   UNL     1      43.153 -20.384   1.875  1.00  0.00     0.030 A 
BRANCH  18  23
HETATM   23  C   UNL     1      44.011 -18.558   5.117  1.00  0.00     0.251 C 
HETATM   24  N   UNL     1      45.180 -18.435   5.816  1.00  0.00    -0.366 N 
HETATM   25  H   UNL     1      45.990 -19.007   5.625  1.00  0.00     0.159 HD
HETATM   26  H   UNL     1      45.166 -17.849   6.638  1.00  0.00     0.159 HD
HETATM   27  O   UNL     1      43.039 -17.863   5.388  1.00  0.00    -0.268 OA
ENDBRANCH  18  23
ENDBRANCH  14  17
ENDBRANCH   9  13
BRANCH   4  28
HETATM   28  C   UNL     1      38.358 -13.389  -1.597  1.00  0.00     0.060 A 
HETATM   29  C   UNL     1      37.916 -14.399  -2.458  1.00  0.00     0.031 A 
HETATM   30  C   UNL     1      37.308 -14.069  -3.674  1.00  0.00     0.002 A 
HETATM   31  C   UNL     1      37.144 -12.734  -4.039  1.00  0.00     0.000 A 
HETATM   32  C   UNL     1      37.603 -11.723  -3.198  1.00  0.00     0.002 A 
HETATM   33  C   UNL     1      38.217 -12.046  -1.986  1.00  0.00     0.031 A 
ENDBRANCH   4  28
TORSDOF 4
ENDMDL
MODEL 5
REMARK VINA RESULT:      -8.9      1.917      2.686
REMARK  4 active torsions:
REMARK  status: ('A' for Active; 'I' for Inactive)
REMARK    1  A    between atoms: N_4  and  C_5 
REMARK    2  A    between atoms: C_15  and  C_16 
REMARK       I    between atoms: C_16  and  N_17 
REMARK    3  A    between atoms: N_17  and  C_18 
REMARK    4  A    between atoms: C_19  and  C_20 
REMARK       I    between atoms: C_20  and  N_21 
ROOT
HETATM    1  C   UNL     1      43.825 -14.659   6.424  1.00  0.00     0.073 C 
HETATM    2  C   UNL     1      43.614 -15.886   5.617  1.00  0.00     0.069 A 
HETATM    3  N   UNL     1      44.151 -17.050   6.009  1.00  0.00    -0.170 NA
HETATM    4  N   UNL     1      43.742 -17.973   5.085  1.00  0.00    -0.216 N 
HETATM    5  C   UNL     1      43.056 -17.343   4.056  1.00  0.00     0.145 A 
HETATM    6  C   UNL     1      42.938 -16.014   4.392  1.00  0.00     0.087 A 
HETATM    7  N   UNL     1      42.615 -17.836   2.873  1.00  0.00    -0.349 N 
HETATM    8  C   UNL     1      42.036 -16.955   1.974  1.00  0.00     0.111 A 
HETATM    9  C   UNL     1      41.830 -15.639   2.203  1.00  0.00     0.098 A 
HETATM   10  C   UNL     1      42.284 -15.065   3.517  1.00  0.00     0.205 A 
HETATM   11  O   UNL     1      42.138 -13.876   3.791  1.00  0.00    -0.286 OA
HETATM   12  H   UNL     1      42.914 -18.733   2.491  1.00  0.00     0.167 HD
ENDROOT
BRANCH   9  13
HETATM   13  C   UNL     1      41.229 -14.817   1.108  1.00  0.00     0.261 C 
HETATM   14  N   UNL     1      42.024 -14.675  -0.014  1.00  0.00    -0.322 N 
HETATM   15  H   UNL     1      42.843 -15.286  -0.053  1.00  0.00     0.169 HD
HETATM   16  O   UNL     1      40.085 -14.389   1.222  1.00  0.00    -0.267 OA
BRANCH  14  17
HETATM   17  C   UNL     1      41.593 -14.155  -1.260  1.00  0.00     0.050 A 
HETATM   18  C   UNL     1      41.702 -12.822  -1.698  1.00  0.00     0.058 A 
HETATM   19  C   UNL     1      41.077 -12.434  -2.899  1.00  0.00     0.019 A 
HETATM   20  C   UNL     1      40.403 -13.365  -3.689  1.00  0.00     0.001 A 
HETATM   21  C   UNL     1      40.365 -14.698  -3.300  1.00  0.00     0.002 A 
HETATM   22  C   UNL     1      40.962 -15.090  -2.100  1.00  0.00     0.030 A 
BRANCH  18  23
HETATM   23  C   UNL     1      42.573 -11.780  -1.090  1.00  0.00     0.251 C 
HETATM   24  N   UNL     1      43.063 -10.818  -1.931  1.00  0.00    -0.366 N 
HETATM   25  H   UNL     1      42.946 -10.863  -2.932  1.00  0.00     0.159 HD
HETATM   26  H   UNL     1      43.680 -10.127  -1.530  1.00  0.00     0.159 HD
HETATM   27  O   UNL     1      42.751 -11.707   0.120  1.00  0.00    -0.268 OA
ENDBRANCH  18  23
ENDBRANCH  14  17
ENDBRANCH   9  13
BRANCH   4  28
HETATM   28  C   UNL     1      44.041 -19.351   5.279  1.00  0.00     0.060 A 
HETATM   29  C   UNL     1      44.696 -20.110   4.302  1.00  0.00     0.031 A 
HETATM   30  C   UNL     1      44.976 -21.460   4.533  1.00  0.00     0.002 A 
HETATM   31  C   UNL     1      44.601 -22.061   5.733  1.00  0.00     0.000 A 
HETATM   32  C   UNL     1      43.927 -21.320   6.701  1.00  0.00     0.002 A 
HETATM   33  C   UNL     1      43.638 -19.973   6.473  1.00  0.00     0.031 A 
ENDBRANCH   4  28
TORSDOF 4
ENDMDL
MODEL 6
REMARK VINA RESULT:      -8.8      4.331      9.273
REMARK  4 active torsions:
REMARK  status: ('A' for Active; 'I' for Inactive)
REMARK    1  A    between atoms: N_4  and  C_5 
REMARK    2  A    between atoms: C_15  and  C_16 
REMARK       I    between atoms: C_16  and  N_17 
REMARK    3  A    between atoms: N_17  and  C_18 
REMARK    4  A    between atoms: C_19  and  C_20 
REMARK       I    between atoms: C_20  and  N_21 
ROOT
HETATM    1  C   UNL     1      38.873 -12.382   2.202  1.00  0.00     0.073 C 
HETATM    2  C   UNL     1      39.485 -12.432   3.553  1.00  0.00     0.069 A 
HETATM    3  N   UNL     1      39.617 -11.310   4.273  1.00  0.00    -0.170 NA
HETATM    4  N   UNL     1      40.170 -11.700   5.463  1.00  0.00    -0.216 N 
HETATM    5  C   UNL     1      40.494 -13.048   5.417  1.00  0.00     0.145 A 
HETATM    6  C   UNL     1      40.037 -13.541   4.216  1.00  0.00     0.087 A 
HETATM    7  N   UNL     1      41.191 -13.809   6.296  1.00  0.00    -0.349 N 
HETATM    8  C   UNL     1      41.456 -15.125   5.955  1.00  0.00     0.111 A 
HETATM    9  C   UNL     1      41.030 -15.732   4.825  1.00  0.00     0.098 A 
HETATM   10  C   UNL     1      40.231 -14.925   3.839  1.00  0.00     0.205 A 
HETATM   11  O   UNL     1      39.818 -15.409   2.788  1.00  0.00    -0.286 OA
HETATM   12  H   UNL     1      41.756 -13.420   7.051  1.00  0.00     0.167 HD
ENDROOT
BRANCH   9  13
HETATM   13  C   UNL     1      41.439 -17.151   4.590  1.00  0.00     0.261 C 
HETATM   14  N   UNL     1      42.515 -17.310   3.735  1.00  0.00    -0.322 N 
HETATM   15  H   UNL     1      43.024 -16.454   3.506  1.00  0.00     0.169 HD
HETATM   16  O   UNL     1      40.875 -18.059   5.192  1.00  0.00    -0.267 OA
BRANCH  14  17
HETATM   17  C   UNL     1      43.233 -18.516   3.542  1.00  0.00     0.050 A 
HETATM   18  C   UNL     1      44.200 -19.068   4.404  1.00  0.00     0.058 A 
HETATM   19  C   UNL     1      44.938 -20.192   3.988  1.00  0.00     0.019 A 
HETATM   20  C   UNL     1      44.685 -20.801   2.759  1.00  0.00     0.001 A 
HETATM   21  C   UNL     1      43.675 -20.309   1.943  1.00  0.00     0.002 A 
HETATM   22  C   UNL     1      42.950 -19.181   2.335  1.00  0.00     0.030 A 
BRANCH  18  23
HETATM   23  C   UNL     1      44.418 -18.674   5.822  1.00  0.00     0.251 C 
HETATM   24  N   UNL     1      43.488 -19.104   6.730  1.00  0.00    -0.366 N 
HETATM   25  H   UNL     1      42.633 -19.564   6.455  1.00  0.00     0.159 HD
HETATM   26  H   UNL     1      43.613 -18.814   7.690  1.00  0.00     0.159 HD
HETATM   27  O   UNL     1      45.436 -18.100   6.188  1.00  0.00    -0.268 OA
ENDBRANCH  18  23
ENDBRANCH  14  17
ENDBRANCH   9  13
BRANCH   4  28
HETATM   28  C   UNL     1      40.330 -10.755   6.515  1.00  0.00     0.060 A 
HETATM   29  C   UNL     1      41.330  -9.777   6.486  1.00  0.00     0.031 A 
HETATM   30  C   UNL     1      41.450  -8.862   7.538  1.00  0.00     0.002 A 
HETATM   31  C   UNL     1      40.579  -8.923   8.624  1.00  0.00     0.000 A 
HETATM   32  C   UNL     1      39.596  -9.908   8.673  1.00  0.00     0.002 A 
HETATM   33  C   UNL     1      39.476 -10.828   7.629  1.00  0.00     0.031 A 
ENDBRANCH   4  28
TORSDOF 4
ENDMDL
MODEL 7
REMARK VINA RESULT:      -8.7      4.939      8.460
REMARK  4 active torsions:
REMARK  status: ('A' for Active; 'I' for Inactive)
REMARK    1  A    between atoms: N_4  and  C_5 
REMARK    2  A    between atoms: C_15  and  C_16 
REMARK       I    between atoms: C_16  and  N_17 
REMARK    3  A    between atoms: N_17  and  C_18 
REMARK    4  A    between atoms: C_19  and  C_20 
REMARK       I    between atoms: C_20  and  N_21 
ROOT
HETATM    1  C   UNL     1      38.715 -14.675   1.735  1.00  0.00     0.073 C 
HETATM    2  C   UNL     1      39.874 -15.057   2.579  1.00  0.00     0.069 A 
HETATM    3  N   UNL     1      40.465 -16.248   2.412  1.00  0.00    -0.170 NA
HETATM    4  N   UNL     1      41.505 -16.271   3.301  1.00  0.00    -0.216 N 
HETATM    5  C   UNL     1      41.470 -15.138   4.102  1.00  0.00     0.145 A 
HETATM    6  C   UNL     1      40.454 -14.336   3.637  1.00  0.00     0.087 A 
HETATM    7  N   UNL     1      42.200 -14.823   5.200  1.00  0.00    -0.349 N 
HETATM    8  C   UNL     1      41.892 -13.654   5.876  1.00  0.00     0.111 A 
HETATM    9  C   UNL     1      40.944 -12.768   5.497  1.00  0.00     0.098 A 
HETATM   10  C   UNL     1      40.133 -13.073   4.267  1.00  0.00     0.205 A 
HETATM   11  O   UNL     1      39.250 -12.318   3.869  1.00  0.00    -0.286 OA
HETATM   12  H   UNL     1      42.765 -15.500   5.712  1.00  0.00     0.167 HD
ENDROOT
BRANCH   9  13
HETATM   13  C   UNL     1      40.709 -11.572   6.364  1.00  0.00     0.261 C 
HETATM   14  N   UNL     1      40.230 -11.858   7.629  1.00  0.00    -0.322 N 
HETATM   15  H   UNL     1      40.261 -12.843   7.899  1.00  0.00     0.169 HD
HETATM   16  O   UNL     1      41.007 -10.454   5.957  1.00  0.00    -0.267 OA
BRANCH  14  17
HETATM   17  C   UNL     1      40.155 -10.935   8.702  1.00  0.00     0.050 A 
HETATM   18  C   UNL     1      41.165 -10.651   9.640  1.00  0.00     0.058 A 
HETATM   19  C   UNL     1      40.874  -9.825  10.742  1.00  0.00     0.019 A 
HETATM   20  C   UNL     1      39.617  -9.238  10.886  1.00  0.00     0.001 A 
HETATM   21  C   UNL     1      38.644  -9.450   9.917  1.00  0.00     0.002 A 
HETATM   22  C   UNL     1      38.914 -10.285   8.830  1.00  0.00     0.030 A 
BRANCH  18  23
HETATM   23  C   UNL     1      42.602 -11.011   9.499  1.00  0.00     0.251 C 
HETATM   24  N   UNL     1      43.146 -11.776  10.495  1.00  0.00    -0.366 N 
HETATM   25  H   UNL     1      42.647 -11.995  11.344  1.00  0.00     0.159 HD
HETATM   26  H   UNL     1      44.128 -11.998  10.421  1.00  0.00     0.159 HD
HETATM   27  O   UNL     1      43.242 -10.745   8.489  1.00  0.00    -0.268 OA
ENDBRANCH  18  23
ENDBRANCH  14  17
ENDBRANCH   9  13
BRANCH   4  28
HETATM   28  C   UNL     1      42.421 -17.360   3.294  1.00  0.00     0.060 A 
HETATM   29  C   UNL     1      42.710 -18.091   4.452  1.00  0.00     0.031 A 
HETATM   30  C   UNL     1      43.612 -19.158   4.402  1.00  0.00     0.002 A 
HETATM   31  C   UNL     1      44.234 -19.498   3.202  1.00  0.00     0.000 A 
HETATM   32  C   UNL     1      43.971 -18.760   2.050  1.00  0.00     0.002 A 
HETATM   33  C   UNL     1      43.076 -17.689   2.095  1.00  0.00     0.031 A 
ENDBRANCH   4  28
TORSDOF 4
ENDMDL
MODEL 8
REMARK VINA RESULT:      -8.6      4.582      8.789
REMARK  4 active torsions:
REMARK  status: ('A' for Active; 'I' for Inactive)
REMARK    1  A    between atoms: N_4  and  C_5 
REMARK    2  A    between atoms: C_15  and  C_16 
REMARK       I    between atoms: C_16  and  N_17 
REMARK    3  A    between atoms: N_17  and  C_18 
REMARK    4  A    between atoms: C_19  and  C_20 
REMARK       I    between atoms: C_20  and  N_21 
ROOT
HETATM    1  C   UNL     1      38.416 -11.477   3.269  1.00  0.00     0.073 C 
HETATM    2  C   UNL     1      39.273 -11.599   4.474  1.00  0.00     0.069 A 
HETATM    3  N   UNL     1      39.153 -10.720   5.478  1.00  0.00    -0.170 NA
HETATM    4  N   UNL     1      40.041 -11.130   6.434  1.00  0.00    -0.216 N 
HETATM    5  C   UNL     1      40.797 -12.192   5.957  1.00  0.00     0.145 A 
HETATM    6  C   UNL     1      40.301 -12.526   4.718  1.00  0.00     0.087 A 
HETATM    7  N   UNL     1      41.881 -12.802   6.495  1.00  0.00    -0.349 N 
HETATM    8  C   UNL     1      42.511 -13.788   5.754  1.00  0.00     0.111 A 
HETATM    9  C   UNL     1      42.097 -14.229   4.545  1.00  0.00     0.098 A 
HETATM   10  C   UNL     1      40.881 -13.592   3.930  1.00  0.00     0.205 A 
HETATM   11  O   UNL     1      40.454 -13.936   2.831  1.00  0.00    -0.286 OA
HETATM   12  H   UNL     1      42.419 -12.412   7.269  1.00  0.00     0.167 HD
ENDROOT
BRANCH   9  13
HETATM   13  C   UNL     1      42.916 -15.275   3.858  1.00  0.00     0.261 C 
HETATM   14  N   UNL     1      42.659 -16.572   4.264  1.00  0.00    -0.322 N 
HETATM   15  H   UNL     1      41.826 -16.695   4.842  1.00  0.00     0.169 HD
HETATM   16  O   UNL     1      43.688 -14.956   2.960  1.00  0.00    -0.267 OA
BRANCH  14  17
HETATM   17  C   UNL     1      43.122 -17.740   3.607  1.00  0.00     0.050 A 
HETATM   18  C   UNL     1      42.704 -18.223   2.353  1.00  0.00     0.058 A 
HETATM   19  C   UNL     1      43.145 -19.485   1.915  1.00  0.00     0.019 A 
HETATM   20  C   UNL     1      44.036 -20.238   2.679  1.00  0.00     0.001 A 
HETATM   21  C   UNL     1      44.515 -19.728   3.879  1.00  0.00     0.002 A 
HETATM   22  C   UNL     1      44.068 -18.486   4.335  1.00  0.00     0.030 A 
BRANCH  18  23
HETATM   23  C   UNL     1      41.950 -17.443   1.334  1.00  0.00     0.251 C 
HETATM   24  N   UNL     1      42.688 -16.673   0.477  1.00  0.00    -0.366 N 
HETATM   25  H   UNL     1      43.682 -16.538   0.588  1.00  0.00     0.159 HD
HETATM   26  H   UNL     1      42.181 -16.118  -0.196  1.00  0.00     0.159 HD
HETATM   27  O   UNL     1      40.741 -17.569   1.184  1.00  0.00    -0.268 OA
ENDBRANCH  18  23
ENDBRANCH  14  17
ENDBRANCH   9  13
BRANCH   4  28
HETATM   28  C   UNL     1      40.077 -10.475   7.698  1.00  0.00     0.060 A 
HETATM   29  C   UNL     1      39.312 -10.919   8.783  1.00  0.00     0.031 A 
HETATM   30  C   UNL     1      39.380 -10.251  10.010  1.00  0.00     0.002 A 
HETATM   31  C   UNL     1      40.204  -9.137  10.160  1.00  0.00     0.000 A 
HETATM   32  C   UNL     1      40.950  -8.674   9.078  1.00  0.00     0.002 A 
HETATM   33  C   UNL     1      40.881  -9.332   7.848  1.00  0.00     0.031 A 
ENDBRANCH   4  28
TORSDOF 4
ENDMDL
MODEL 9
REMARK VINA RESULT:      -8.5      5.288      9.825
REMARK  4 active torsions:
REMARK  status: ('A' for Active; 'I' for Inactive)
REMARK    1  A    between atoms: N_4  and  C_5 
REMARK    2  A    between atoms: C_15  and  C_16 
REMARK       I    between atoms: C_16  and  N_17 
REMARK    3  A    between atoms: N_17  and  C_18 
REMARK    4  A    between atoms: C_19  and  C_20 
REMARK       I    between atoms: C_20  and  N_21 
ROOT
HETATM    1  C   UNL     1      43.313 -15.629   4.359  1.00  0.00     0.073 C 
HETATM    2  C   UNL     1      42.271 -14.660   3.939  1.00  0.00     0.069 A 
HETATM    3  N   UNL     1      41.669 -14.793   2.750  1.00  0.00    -0.170 NA
HETATM    4  N   UNL     1      40.749 -13.782   2.688  1.00  0.00    -0.216 N 
HETATM    5  C   UNL     1      40.879 -12.954   3.794  1.00  0.00     0.145 A 
HETATM    6  C   UNL     1      41.825 -13.514   4.620  1.00  0.00     0.087 A 
HETATM    7  N   UNL     1      40.291 -11.763   4.065  1.00  0.00    -0.349 N 
HETATM    8  C   UNL     1      40.676 -11.091   5.214  1.00  0.00     0.111 A 
HETATM    9  C   UNL     1      41.565 -11.555   6.121  1.00  0.00     0.098 A 
HETATM   10  C   UNL     1      42.217 -12.886   5.864  1.00  0.00     0.205 A 
HETATM   11  O   UNL     1      43.040 -13.366   6.639  1.00  0.00    -0.286 OA
HETATM   12  H   UNL     1      39.797 -11.207   3.367  1.00  0.00     0.167 HD
ENDROOT
BRANCH   9  13
HETATM   13  C   UNL     1      41.901 -10.684   7.289  1.00  0.00     0.261 C 
HETATM   14  N   UNL     1      42.133 -11.364   8.471  1.00  0.00    -0.322 N 
HETATM   15  H   UNL     1      42.231 -12.377   8.384  1.00  0.00     0.169 HD
HETATM   16  O   UNL     1      42.021  -9.474   7.135  1.00  0.00    -0.267 OA
BRANCH  14  17
HETATM   17  C   UNL     1      42.693 -10.796   9.642  1.00  0.00     0.050 A 
HETATM   18  C   UNL     1      44.018 -10.939  10.096  1.00  0.00     0.058 A 
HETATM   19  C   UNL     1      44.373 -10.443  11.365  1.00  0.00     0.019 A 
HETATM   20  C   UNL     1      43.446  -9.763  12.153  1.00  0.00     0.001 A 
HETATM   21  C   UNL     1      42.160  -9.549  11.673  1.00  0.00     0.002 A 
HETATM   22  C   UNL     1      41.790 -10.054  10.425  1.00  0.00     0.030 A 
BRANCH  18  23
HETATM   23  C   UNL     1      45.163 -11.429   9.281  1.00  0.00     0.251 C 
HETATM   24  N   UNL     1      45.051 -12.687   8.756  1.00  0.00    -0.366 N 
HETATM   25  H   UNL     1      44.292 -13.309   8.994  1.00  0.00     0.159 HD
HETATM   26  H   UNL     1      45.837 -13.038   8.228  1.00  0.00     0.159 HD
HETATM   27  O   UNL     1      46.108 -10.707   8.987  1.00  0.00    -0.268 OA
ENDBRANCH  18  23
ENDBRANCH  14  17
ENDBRANCH   9  13
BRANCH   4  28
HETATM   28  C   UNL     1      39.843 -13.712   1.592  1.00  0.00     0.060 A 
HETATM   29  C   UNL     1      40.216 -13.167   0.358  1.00  0.00     0.031 A 
HETATM   30  C   UNL     1      39.299 -13.122  -0.696  1.00  0.00     0.002 A 
HETATM   31  C   UNL     1      38.006 -13.612  -0.524  1.00  0.00     0.000 A 
HETATM   32  C   UNL     1      37.618 -14.133   0.708  1.00  0.00     0.002 A 
HETATM   33  C   UNL     1      38.528 -14.175   1.767  1.00  0.00     0.031 A 
ENDBRANCH   4  28
TORSDOF 4
ENDMDL
MODEL 10
REMARK VINA RESULT:      -8.5      2.299      8.696
REMARK  4 active torsions:
REMARK  status: ('A' for Active; 'I' for Inactive)
REMARK    1  A    between atoms: N_4  and  C_5 
REMARK    2  A    between atoms: C_15  and  C_16 
REMARK       I    between atoms: C_16  and  N_17 
REMARK    3  A    between atoms: N_17  and  C_18 
REMARK    4  A    between atoms: C_19  and  C_20 
REMARK       I    between atoms: C_20  and  N_21 
ROOT
HETATM    1  C   UNL     1      41.639 -12.059   4.068  1.00  0.00     0.073 C 
HETATM    2  C   UNL     1      41.756 -12.569   2.679  1.00  0.00     0.069 A 
HETATM    3  N   UNL     1      41.572 -11.743   1.641  1.00  0.00    -0.170 NA
HETATM    4  N   UNL     1      41.786 -12.502   0.523  1.00  0.00    -0.216 N 
HETATM    5  C   UNL     1      41.978 -13.830   0.881  1.00  0.00     0.145 A 
HETATM    6  C   UNL     1      41.992 -13.888   2.255  1.00  0.00     0.087 A 
HETATM    7  N   UNL     1      42.067 -14.938   0.105  1.00  0.00    -0.349 N 
HETATM    8  C   UNL     1      42.163 -16.169   0.733  1.00  0.00     0.111 A 
HETATM    9  C   UNL     1      42.225 -16.352   2.071  1.00  0.00     0.098 A 
HETATM   10  C   UNL     1      42.155 -15.141   2.961  1.00  0.00     0.205 A 
HETATM   11  O   UNL     1      42.197 -15.232   4.185  1.00  0.00    -0.286 OA
HETATM   12  H   UNL     1      41.802 -14.958  -0.879  1.00  0.00     0.167 HD
ENDROOT
BRANCH   9  13
HETATM   13  C   UNL     1      42.286 -17.753   2.590  1.00  0.00     0.261 C 
HETATM   14  N   UNL     1      43.442 -18.441   2.268  1.00  0.00    -0.322 N 
HETATM   15  H   UNL     1      44.198 -17.873   1.878  1.00  0.00     0.169 HD
HETATM   16  O   UNL     1      41.384 -18.182   3.302  1.00  0.00    -0.267 OA
BRANCH  14  17
HETATM   17  C   UNL     1      43.840 -19.678   2.832  1.00  0.00     0.050 A 
HETATM   18  C   UNL     1      44.377 -19.884   4.117  1.00  0.00     0.058 A 
HETATM   19  C   UNL     1      44.871 -21.155   4.466  1.00  0.00     0.019 A 
HETATM   20  C   UNL     1      44.784 -22.226   3.578  1.00  0.00     0.001 A 
HETATM   21  C   UNL     1      44.180 -22.046   2.340  1.00  0.00     0.002 A 
HETATM   22  C   UNL     1      43.705 -20.785   1.974  1.00  0.00     0.030 A 
BRANCH  18  23
HETATM   23  C   UNL     1      44.326 -18.910   5.241  1.00  0.00     0.251 C 
HETATM   24  N   UNL     1      43.099 -18.682   5.803  1.00  0.00    -0.366 N 
HETATM   25  H   UNL     1      42.246 -19.056   5.415  1.00  0.00     0.159 HD
HETATM   26  H   UNL     1      43.053 -17.999   6.546  1.00  0.00     0.159 HD
HETATM   27  O   UNL     1      45.340 -18.423   5.725  1.00  0.00    -0.268 OA
ENDBRANCH  18  23
ENDBRANCH  14  17
ENDBRANCH   9  13
BRANCH   4  28
HETATM   28  C   UNL     1      41.790 -11.890  -0.762  1.00  0.00     0.060 A 
HETATM   29  C   UNL     1      42.915 -11.224  -1.260  1.00  0.00     0.031 A 
HETATM   30  C   UNL     1      42.881 -10.641  -2.531  1.00  0.00     0.002 A 
HETATM   31  C   UNL     1      41.726 -10.713  -3.307  1.00  0.00     0.000 A 
HETATM   32  C   UNL     1      40.593 -11.353  -2.809  1.00  0.00     0.002 A 
HETATM   33  C   UNL     1      40.619 -11.932  -1.537  1.00  0.00     0.031 A 
ENDBRANCH   4  28
TORSDOF 4
ENDMDL
