MODEL 1
REMARK VINA RESULT:      -8.9      0.000      0.000
REMARK  4 active torsions:
REMARK  status: ('A' for Active; 'I' for Inactive)
REMARK    1  A    between atoms: C_5  and  N_6 
REMARK       I    between atoms: N_6  and  C_7 
REMARK       I    between atoms: C_7  and  N_8 
REMARK    2  A    between atoms: N_8  and  C_9 
REMARK    3  A    between atoms: C_9  and  C_10 
REMARK    4  A    between atoms: C_13  and  C_14 
ROOT
HETATM    1  N   UNL     1      43.827 -12.683   8.349  1.00  0.00    -0.309 N 
HETATM    2  C   UNL     1      44.959 -13.145   7.740  1.00  0.00     0.321 C 
HETATM    3  N   UNL     1      44.768 -13.994   6.686  1.00  0.00    -0.335 N 
HETATM    4  O   UNL     1      46.118 -12.881   8.045  1.00  0.00    -0.247 OA
HETATM    5  H   UNL     1      42.973 -12.764   7.810  1.00  0.00     0.170 HD
HETATM    6  H   UNL     1      45.652 -14.319   6.316  1.00  0.00     0.164 HD
ENDROOT
BRANCH   3   7
HETATM    7  C   UNL     1      43.576 -14.748   6.335  1.00  0.00     0.213 C 
BRANCH   7   8
HETATM    8  C   UNL     1      43.918 -16.128   5.910  1.00  0.00     0.190 A 
HETATM    9  O   UNL     1      44.702 -16.871   6.739  1.00  0.00    -0.194 OA
HETATM   10  N   UNL     1      44.855 -18.115   6.127  1.00  0.00    -0.106 NA
HETATM   11  C   UNL     1      44.162 -17.999   4.982  1.00  0.00     0.189 A 
HETATM   12  N   UNL     1      43.538 -16.777   4.831  1.00  0.00    -0.202 NA
BRANCH  11  13
HETATM   13  C   UNL     1      44.046 -19.050   3.977  1.00  0.00     0.014 A 
HETATM   14  C   UNL     1      43.221 -18.893   2.854  1.00  0.00     0.015 A 
HETATM   15  C   UNL     1      43.130 -19.905   1.894  1.00  0.00     0.001 A 
HETATM   16  C   UNL     1      43.857 -21.085   2.050  1.00  0.00     0.000 A 
HETATM   17  C   UNL     1      44.673 -21.258   3.165  1.00  0.00     0.001 A 
HETATM   18  C   UNL     1      44.766 -20.246   4.124  1.00  0.00     0.015 A 
ENDBRANCH  11  13
ENDBRANCH   7   8
ENDBRANCH   3   7
BRANCH   1  19
HETATM   19  C   UNL     1      43.728 -11.853   9.483  1.00  0.00     0.036 A 
HETATM   20  C   UNL     1      43.170 -10.574   9.473  1.00  0.00     0.030 A 
HETATM   21  C   UNL     1      43.090  -9.828  10.654  1.00  0.00     0.009 A 
HETATM   22  C   UNL     1      43.584 -10.338  11.859  1.00  0.00    -0.062 A 
HETATM   23  C   UNL     1      43.454  -9.558  13.133  1.00  0.00     0.048 C 
HETATM   24  C   UNL     1      44.148 -11.617  11.869  1.00  0.00     0.009 A 
HETATM   25  C   UNL     1      44.225 -12.363  10.690  1.00  0.00     0.030 A 
ENDBRANCH   1  19
TORSDOF 4
ENDMDL
MODEL 2
REMARK VINA RESULT:      -8.6      1.815      2.865
REMARK  4 active torsions:
REMARK  status: ('A' for Active; 'I' for Inactive)
REMARK    1  A    between atoms: C_5  and  N_6 
REMARK       I    between atoms: N_6  and  C_7 
REMARK       I    between atoms: C_7  and  N_8 
REMARK    2  A    between atoms: N_8  and  C_9 
REMARK    3  A    between atoms: C_9  and  C_10 
REMARK    4  A    between atoms: C_13  and  C_14 
ROOT
HETATM    1  N   UNL     1      43.226 -11.742  10.393  1.00  0.00    -0.309 N 
HETATM    2  C   UNL     1      43.142 -11.189   9.146  1.00  0.00     0.321 C 
HETATM    3  N   UNL     1      43.584 -11.970   8.115  1.00  0.00    -0.335 N 
HETATM    4  O   UNL     1      42.722 -10.071   8.864  1.00  0.00    -0.247 OA
HETATM    5  H   UNL     1      43.323 -12.750  10.422  1.00  0.00     0.170 HD
HETATM    6  H   UNL     1      43.524 -11.477   7.233  1.00  0.00     0.164 HD
ENDROOT
BRANCH   3   7
HETATM    7  C   UNL     1      44.439 -13.144   8.169  1.00  0.00     0.213 C 
BRANCH   7   8
HETATM    8  C   UNL     1      44.065 -14.130   7.125  1.00  0.00     0.190 A 
HETATM    9  O   UNL     1      43.182 -13.736   6.167  1.00  0.00    -0.194 OA
HETATM   10  N   UNL     1      43.020 -14.823   5.309  1.00  0.00    -0.106 NA
HETATM   11  C   UNL     1      43.807 -15.774   5.839  1.00  0.00     0.189 A 
HETATM   12  N   UNL     1      44.499 -15.361   6.960  1.00  0.00    -0.202 NA
BRANCH  11  13
HETATM   13  C   UNL     1      43.952 -17.121   5.299  1.00  0.00     0.014 A 
HETATM   14  C   UNL     1      43.465 -17.449   4.026  1.00  0.00     0.015 A 
HETATM   15  C   UNL     1      43.622 -18.742   3.518  1.00  0.00     0.001 A 
HETATM   16  C   UNL     1      44.263 -19.720   4.278  1.00  0.00     0.000 A 
HETATM   17  C   UNL     1      44.745 -19.409   5.547  1.00  0.00     0.001 A 
HETATM   18  C   UNL     1      44.590 -18.118   6.055  1.00  0.00     0.015 A 
ENDBRANCH  11  13
ENDBRANCH   7   8
ENDBRANCH   3   7
BRANCH   1  19
HETATM   19  C   UNL     1      42.903 -11.148  11.629  1.00  0.00     0.036 A 
HETATM   20  C   UNL     1      41.759 -11.448  12.369  1.00  0.00     0.030 A 
HETATM   21  C   UNL     1      41.530 -10.827  13.602  1.00  0.00     0.009 A 
HETATM   22  C   UNL     1      42.430  -9.882  14.106  1.00  0.00    -0.062 A 
HETATM   23  C   UNL     1      42.209  -9.253  15.448  1.00  0.00     0.048 C 
HETATM   24  C   UNL     1      43.573  -9.577  13.363  1.00  0.00     0.009 A 
HETATM   25  C   UNL     1      43.802 -10.199  12.133  1.00  0.00     0.030 A 
ENDBRANCH   1  19
TORSDOF 4
ENDMDL
MODEL 3
REMARK VINA RESULT:      -8.6      1.134      9.879
REMARK  4 active torsions:
REMARK  status: ('A' for Active; 'I' for Inactive)
REMARK    1  A    between atoms: C_5  and  N_6 
REMARK       I    between atoms: N_6  and  C_7 
REMARK       I    between atoms: C_7  and  N_8 
REMARK    2  A    between atoms: N_8  and  C_9 
REMARK    3  A    between atoms: C_9  and  C_10 
REMARK    4  A    between atoms: C_13  and  C_14 
ROOT
HETATM    1  N   UNL     1      44.290 -16.820   5.579  1.00  0.00    -0.309 N 
HETATM    2  C   UNL     1      43.740 -16.586   6.806  1.00  0.00     0.321 C 
HETATM    3  N   UNL     1      43.927 -15.332   7.317  1.00  0.00    -0.335 N 
HETATM    4  O   UNL     1      43.106 -17.382   7.493  1.00  0.00    -0.247 OA
HETATM    5  H   UNL     1      44.525 -15.997   5.037  1.00  0.00     0.170 HD
HETATM    6  H   UNL     1      43.523 -15.251   8.241  1.00  0.00     0.164 HD
ENDROOT
BRANCH   3   7
HETATM    7  C   UNL     1      44.903 -14.329   6.921  1.00  0.00     0.213 C 
BRANCH   7   8
HETATM    8  C   UNL     1      44.923 -13.192   7.875  1.00  0.00     0.190 A 
HETATM    9  O   UNL     1      46.100 -12.531   8.048  1.00  0.00    -0.194 OA
HETATM   10  N   UNL     1      45.847 -11.510   8.964  1.00  0.00    -0.106 NA
HETATM   11  C   UNL     1      44.547 -11.662   9.268  1.00  0.00     0.189 A 
HETATM   12  N   UNL     1      43.932 -12.689   8.579  1.00  0.00    -0.202 NA
BRANCH  11  13
HETATM   13  C   UNL     1      43.819 -10.831  10.219  1.00  0.00     0.014 A 
HETATM   14  C   UNL     1      42.613 -10.209   9.865  1.00  0.00     0.015 A 
HETATM   15  C   UNL     1      41.921  -9.425  10.793  1.00  0.00     0.001 A 
HETATM   16  C   UNL     1      42.429  -9.249  12.079  1.00  0.00     0.000 A 
HETATM   17  C   UNL     1      43.631  -9.855  12.441  1.00  0.00     0.001 A 
HETATM   18  C   UNL     1      44.322 -10.640  11.516  1.00  0.00     0.015 A 
ENDBRANCH  11  13
ENDBRANCH   7   8
ENDBRANCH   3   7
BRANCH   1  19
HETATM   19  C   UNL     1      44.304 -18.025   4.849  1.00  0.00     0.036 A 
HETATM   20  C   UNL     1      44.846 -19.221   5.320  1.00  0.00     0.030 A 
HETATM   21  C   UNL     1      44.794 -20.379   4.535  1.00  0.00     0.009 A 
HETATM   22  C   UNL     1      44.220 -20.355   3.260  1.00  0.00    -0.062 A 
HETATM   23  C   UNL     1      44.122 -21.606   2.439  1.00  0.00     0.048 C 
HETATM   24  C   UNL     1      43.682 -19.156   2.785  1.00  0.00     0.009 A 
HETATM   25  C   UNL     1      43.732 -18.001   3.570  1.00  0.00     0.030 A 
ENDBRANCH   1  19
TORSDOF 4
ENDMDL
MODEL 4
REMARK VINA RESULT:      -8.5      2.067      9.796
REMARK  4 active torsions:
REMARK  status: ('A' for Active; 'I' for Inactive)
REMARK    1  A    between atoms: C_5  and  N_6 
REMARK       I    between atoms: N_6  and  C_7 
REMARK       I    between atoms: C_7  and  N_8 
REMARK    2  A    between atoms: N_8  and  C_9 
REMARK    3  A    between atoms: C_9  and  C_10 
REMARK    4  A    between atoms: C_13  and  C_14 
ROOT
HETATM    1  N   UNL     1      44.480 -15.820   6.993  1.00  0.00    -0.309 N 
HETATM    2  C   UNL     1      43.687 -14.804   6.540  1.00  0.00     0.321 C 
HETATM    3  N   UNL     1      44.012 -13.550   6.976  1.00  0.00    -0.335 N 
HETATM    4  O   UNL     1      42.718 -14.904   5.793  1.00  0.00    -0.247 OA
HETATM    5  H   UNL     1      45.383 -15.544   7.358  1.00  0.00     0.170 HD
HETATM    6  H   UNL     1      43.357 -12.862   6.628  1.00  0.00     0.164 HD
ENDROOT
BRANCH   3   7
HETATM    7  C   UNL     1      44.844 -13.173   8.107  1.00  0.00     0.213 C 
BRANCH   7   8
HETATM    8  C   UNL     1      44.156 -12.184   8.974  1.00  0.00     0.190 A 
HETATM    9  O   UNL     1      43.580 -11.107   8.373  1.00  0.00    -0.194 OA
HETATM   10  N   UNL     1      42.992 -10.355   9.391  1.00  0.00    -0.106 NA
HETATM   11  C   UNL     1      43.283 -11.043  10.509  1.00  0.00     0.189 A 
HETATM   12  N   UNL     1      43.985 -12.209  10.278  1.00  0.00    -0.202 NA
BRANCH  11  13
HETATM   13  C   UNL     1      42.896 -10.632  11.854  1.00  0.00     0.014 A 
HETATM   14  C   UNL     1      41.702 -11.083  12.435  1.00  0.00     0.015 A 
HETATM   15  C   UNL     1      41.351 -10.690  13.730  1.00  0.00     0.001 A 
HETATM   16  C   UNL     1      42.186  -9.838  14.453  1.00  0.00     0.000 A 
HETATM   17  C   UNL     1      43.370  -9.376  13.884  1.00  0.00     0.001 A 
HETATM   18  C   UNL     1      43.722  -9.770  12.592  1.00  0.00     0.015 A 
ENDBRANCH  11  13
ENDBRANCH   7   8
ENDBRANCH   3   7
BRANCH   1  19
HETATM   19  C   UNL     1      44.341 -17.202   6.755  1.00  0.00     0.036 A 
HETATM   20  C   UNL     1      44.560 -17.812   5.520  1.00  0.00     0.030 A 
HETATM   21  C   UNL     1      44.423 -19.198   5.381  1.00  0.00     0.009 A 
HETATM   22  C   UNL     1      44.045 -19.993   6.467  1.00  0.00    -0.062 A 
HETATM   23  C   UNL     1      43.945 -21.483   6.329  1.00  0.00     0.048 C 
HETATM   24  C   UNL     1      43.820 -19.382   7.704  1.00  0.00     0.009 A 
HETATM   25  C   UNL     1      43.960 -17.999   7.843  1.00  0.00     0.030 A 
ENDBRANCH   1  19
TORSDOF 4
ENDMDL
MODEL 5
REMARK VINA RESULT:      -8.5      4.109      6.308
REMARK  4 active torsions:
REMARK  status: ('A' for Active; 'I' for Inactive)
REMARK    1  A    between atoms: C_5  and  N_6 
REMARK       I    between atoms: N_6  and  C_7 
REMARK       I    between atoms: C_7  and  N_8 
REMARK    2  A    between atoms: N_8  and  C_9 
REMARK    3  A    between atoms: C_9  and  C_10 
REMARK    4  A    between atoms: C_13  and  C_14 
ROOT
HETATM    1  N   UNL     1      41.570 -14.819   4.552  1.00  0.00    -0.309 N 
HETATM    2  C   UNL     1      41.332 -15.210   5.839  1.00  0.00     0.321 C 
HETATM    3  N   UNL     1      42.434 -15.346   6.637  1.00  0.00    -0.335 N 
HETATM    4  O   UNL     1      40.241 -15.456   6.343  1.00  0.00    -0.247 OA
HETATM    5  H   UNL     1      42.473 -14.391   4.382  1.00  0.00     0.170 HD
HETATM    6  H   UNL     1      42.177 -15.673   7.559  1.00  0.00     0.164 HD
ENDROOT
BRANCH   3   7
HETATM    7  C   UNL     1      43.827 -15.475   6.243  1.00  0.00     0.213 C 
BRANCH   7   8
HETATM    8  C   UNL     1      44.142 -16.865   5.829  1.00  0.00     0.190 A 
HETATM    9  O   UNL     1      44.888 -17.625   6.677  1.00  0.00    -0.194 OA
HETATM   10  N   UNL     1      45.022 -18.874   6.071  1.00  0.00    -0.106 NA
HETATM   11  C   UNL     1      44.357 -18.744   4.910  1.00  0.00     0.189 A 
HETATM   12  N   UNL     1      43.770 -17.506   4.743  1.00  0.00    -0.202 NA
BRANCH  11  13
HETATM   13  C   UNL     1      44.236 -19.794   3.906  1.00  0.00     0.014 A 
HETATM   14  C   UNL     1      43.602 -19.555   2.678  1.00  0.00     0.015 A 
HETATM   15  C   UNL     1      43.505 -20.570   1.722  1.00  0.00     0.001 A 
HETATM   16  C   UNL     1      44.035 -21.833   1.983  1.00  0.00     0.000 A 
HETATM   17  C   UNL     1      44.660 -22.086   3.202  1.00  0.00     0.001 A 
HETATM   18  C   UNL     1      44.759 -21.072   4.158  1.00  0.00     0.015 A 
ENDBRANCH  11  13
ENDBRANCH   7   8
ENDBRANCH   3   7
BRANCH   1  19
HETATM   19  C   UNL     1      40.640 -14.660   3.506  1.00  0.00     0.036 A 
HETATM   20  C   UNL     1      40.274 -15.674   2.620  1.00  0.00     0.030 A 
HETATM   21  C   UNL     1      39.321 -15.434   1.624  1.00  0.00     0.009 A 
HETATM   22  C   UNL     1      38.734 -14.172   1.484  1.00  0.00    -0.062 A 
HETATM   23  C   UNL     1      37.678 -13.929   0.447  1.00  0.00     0.048 C 
HETATM   24  C   UNL     1      39.104 -13.155   2.367  1.00  0.00     0.009 A 
HETATM   25  C   UNL     1      40.053 -13.396   3.363  1.00  0.00     0.030 A 
ENDBRANCH   1  19
TORSDOF 4
ENDMDL
MODEL 6
REMARK VINA RESULT:      -8.4      4.171      6.650
REMARK  4 active torsions:
REMARK  status: ('A' for Active; 'I' for Inactive)
REMARK    1  A    between atoms: C_5  and  N_6 
REMARK       I    between atoms: N_6  and  C_7 
REMARK       I    between atoms: C_7  and  N_8 
REMARK    2  A    between atoms: N_8  and  C_9 
REMARK    3  A    between atoms: C_9  and  C_10 
REMARK    4  A    between atoms: C_13  and  C_14 
ROOT
HETATM    1  N   UNL     1      42.852 -15.246   4.193  1.00  0.00    -0.309 N 
HETATM    2  C   UNL     1      42.122 -15.190   5.346  1.00  0.00     0.321 C 
HETATM    3  N   UNL     1      42.826 -15.335   6.508  1.00  0.00    -0.335 N 
HETATM    4  O   UNL     1      40.909 -15.030   5.441  1.00  0.00    -0.247 OA
HETATM    5  H   UNL     1      43.849 -15.097   4.296  1.00  0.00     0.170 HD
HETATM    6  H   UNL     1      42.210 -15.320   7.311  1.00  0.00     0.164 HD
ENDROOT
BRANCH   3   7
HETATM    7  C   UNL     1      44.160 -15.881   6.697  1.00  0.00     0.213 C 
BRANCH   7   8
HETATM    8  C   UNL     1      44.231 -17.295   6.252  1.00  0.00     0.190 A 
HETATM    9  O   UNL     1      44.390 -18.252   7.207  1.00  0.00    -0.194 OA
HETATM   10  N   UNL     1      44.405 -19.476   6.539  1.00  0.00    -0.106 NA
HETATM   11  C   UNL     1      44.269 -19.140   5.245  1.00  0.00     0.189 A 
HETATM   12  N   UNL     1      44.127 -17.783   5.035  1.00  0.00    -0.202 NA
BRANCH  11  13
HETATM   13  C   UNL     1      44.254 -20.094   4.142  1.00  0.00     0.014 A 
HETATM   14  C   UNL     1      44.700 -21.412   4.316  1.00  0.00     0.015 A 
HETATM   15  C   UNL     1      44.668 -22.317   3.251  1.00  0.00     0.001 A 
HETATM   16  C   UNL     1      44.195 -21.914   2.003  1.00  0.00     0.000 A 
HETATM   17  C   UNL     1      43.756 -20.606   1.815  1.00  0.00     0.001 A 
HETATM   18  C   UNL     1      43.786 -19.701   2.878  1.00  0.00     0.015 A 
ENDBRANCH  11  13
ENDBRANCH   7   8
ENDBRANCH   3   7
BRANCH   1  19
HETATM   19  C   UNL     1      42.385 -15.187   2.865  1.00  0.00     0.036 A 
HETATM   20  C   UNL     1      42.149 -14.003   2.168  1.00  0.00     0.030 A 
HETATM   21  C   UNL     1      41.708 -14.038   0.840  1.00  0.00     0.009 A 
HETATM   22  C   UNL     1      41.475 -15.258   0.195  1.00  0.00    -0.062 A 
HETATM   23  C   UNL     1      41.049 -15.296  -1.242  1.00  0.00     0.048 C 
HETATM   24  C   UNL     1      41.706 -16.445   0.895  1.00  0.00     0.009 A 
HETATM   25  C   UNL     1      42.149 -16.408   2.219  1.00  0.00     0.030 A 
ENDBRANCH   1  19
TORSDOF 4
ENDMDL
MODEL 7
REMARK VINA RESULT:      -8.4      1.497      9.592
REMARK  4 active torsions:
REMARK  status: ('A' for Active; 'I' for Inactive)
REMARK    1  A    between atoms: C_5  and  N_6 
REMARK       I    between atoms: N_6  and  C_7 
REMARK       I    between atoms: C_7  and  N_8 
REMARK    2  A    between atoms: N_8  and  C_9 
REMARK    3  A    between atoms: C_9  and  C_10 
REMARK    4  A    between atoms: C_13  and  C_14 
ROOT
HETATM    1  N   UNL     1      43.022 -16.947   3.854  1.00  0.00    -0.309 N 
HETATM    2  C   UNL     1      42.057 -16.613   4.761  1.00  0.00     0.321 C 
HETATM    3  N   UNL     1      41.894 -15.276   4.997  1.00  0.00    -0.335 N 
HETATM    4  O   UNL     1      41.333 -17.385   5.383  1.00  0.00    -0.247 OA
HETATM    5  H   UNL     1      43.321 -16.202   3.235  1.00  0.00     0.170 HD
HETATM    6  H   UNL     1      41.190 -15.115   5.706  1.00  0.00     0.164 HD
ENDROOT
BRANCH   3   7
HETATM    7  C   UNL     1      42.809 -14.186   4.700  1.00  0.00     0.213 C 
BRANCH   7   8
HETATM    8  C   UNL     1      43.535 -13.746   5.918  1.00  0.00     0.190 A 
HETATM    9  O   UNL     1      44.751 -14.305   6.168  1.00  0.00    -0.194 OA
HETATM   10  N   UNL     1      45.222 -13.714   7.340  1.00  0.00    -0.106 NA
HETATM   11  C   UNL     1      44.240 -12.867   7.693  1.00  0.00     0.189 A 
HETATM   12  N   UNL     1      43.183 -12.842   6.806  1.00  0.00    -0.202 NA
BRANCH  11  13
HETATM   13  C   UNL     1      44.263 -12.028   8.886  1.00  0.00     0.014 A 
HETATM   14  C   UNL     1      43.204 -11.159   9.182  1.00  0.00     0.015 A 
HETATM   15  C   UNL     1      43.236 -10.370  10.335  1.00  0.00     0.001 A 
HETATM   16  C   UNL     1      44.327 -10.437  11.200  1.00  0.00     0.000 A 
HETATM   17  C   UNL     1      45.390 -11.290  10.913  1.00  0.00     0.001 A 
HETATM   18  C   UNL     1      45.359 -12.081   9.762  1.00  0.00     0.015 A 
ENDBRANCH  11  13
ENDBRANCH   7   8
ENDBRANCH   3   7
BRANCH   1  19
HETATM   19  C   UNL     1      43.441 -18.235   3.466  1.00  0.00     0.036 A 
HETATM   20  C   UNL     1      44.258 -19.060   4.239  1.00  0.00     0.030 A 
HETATM   21  C   UNL     1      44.605 -20.337   3.785  1.00  0.00     0.009 A 
HETATM   22  C   UNL     1      44.159 -20.803   2.544  1.00  0.00    -0.062 A 
HETATM   23  C   UNL     1      44.492 -22.189   2.080  1.00  0.00     0.048 C 
HETATM   24  C   UNL     1      43.345 -19.975   1.767  1.00  0.00     0.009 A 
HETATM   25  C   UNL     1      42.996 -18.700   2.221  1.00  0.00     0.030 A 
ENDBRANCH   1  19
TORSDOF 4
ENDMDL
MODEL 8
REMARK VINA RESULT:      -8.3      3.918      8.171
REMARK  4 active torsions:
REMARK  status: ('A' for Active; 'I' for Inactive)
REMARK    1  A    between atoms: C_5  and  N_6 
REMARK       I    between atoms: N_6  and  C_7 
REMARK       I    between atoms: C_7  and  N_8 
REMARK    2  A    between atoms: N_8  and  C_9 
REMARK    3  A    between atoms: C_9  and  C_10 
REMARK    4  A    between atoms: C_13  and  C_14 
ROOT
HETATM    1  N   UNL     1      43.709 -17.946   5.366  1.00  0.00    -0.309 N 
HETATM    2  C   UNL     1      44.613 -17.482   6.278  1.00  0.00     0.321 C 
HETATM    3  N   UNL     1      44.206 -16.420   7.038  1.00  0.00    -0.335 N 
HETATM    4  O   UNL     1      45.744 -17.913   6.478  1.00  0.00    -0.247 OA
HETATM    5  H   UNL     1      42.746 -17.673   5.522  1.00  0.00     0.170 HD
HETATM    6  H   UNL     1      44.943 -16.114   7.660  1.00  0.00     0.164 HD
ENDROOT
BRANCH   3   7
HETATM    7  C   UNL     1      43.110 -15.498   6.792  1.00  0.00     0.213 C 
BRANCH   7   8
HETATM    8  C   UNL     1      43.159 -14.960   5.409  1.00  0.00     0.190 A 
HETATM    9  O   UNL     1      44.101 -14.019   5.129  1.00  0.00    -0.194 OA
HETATM   10  N   UNL     1      43.950 -13.700   3.779  1.00  0.00    -0.106 NA
HETATM   11  C   UNL     1      42.923 -14.468   3.379  1.00  0.00     0.189 A 
HETATM   12  N   UNL     1      42.425 -15.291   4.369  1.00  0.00    -0.202 NA
BRANCH  11  13
HETATM   13  C   UNL     1      42.370 -14.468   2.029  1.00  0.00     0.014 A 
HETATM   14  C   UNL     1      42.120 -13.269   1.347  1.00  0.00     0.015 A 
HETATM   15  C   UNL     1      41.601 -13.287   0.050  1.00  0.00     0.001 A 
HETATM   16  C   UNL     1      41.322 -14.501  -0.577  1.00  0.00     0.000 A 
HETATM   17  C   UNL     1      41.559 -15.699   0.092  1.00  0.00     0.001 A 
HETATM   18  C   UNL     1      42.079 -15.683   1.388  1.00  0.00     0.015 A 
ENDBRANCH  11  13
ENDBRANCH   7   8
ENDBRANCH   3   7
BRANCH   1  19
HETATM   19  C   UNL     1      43.880 -18.977   4.420  1.00  0.00     0.036 A 
HETATM   20  C   UNL     1      44.561 -20.167   4.672  1.00  0.00     0.030 A 
HETATM   21  C   UNL     1      44.661 -21.149   3.680  1.00  0.00     0.009 A 
HETATM   22  C   UNL     1      44.101 -20.948   2.414  1.00  0.00    -0.062 A 
HETATM   23  C   UNL     1      44.168 -22.019   1.368  1.00  0.00     0.048 C 
HETATM   24  C   UNL     1      43.424 -19.753   2.159  1.00  0.00     0.009 A 
HETATM   25  C   UNL     1      43.322 -18.774   3.151  1.00  0.00     0.030 A 
ENDBRANCH   1  19
TORSDOF 4
ENDMDL
MODEL 9
REMARK VINA RESULT:      -8.3      5.126      8.990
REMARK  4 active torsions:
REMARK  status: ('A' for Active; 'I' for Inactive)
REMARK    1  A    between atoms: C_5  and  N_6 
REMARK       I    between atoms: N_6  and  C_7 
REMARK       I    between atoms: C_7  and  N_8 
REMARK    2  A    between atoms: N_8  and  C_9 
REMARK    3  A    between atoms: C_9  and  C_10 
REMARK    4  A    between atoms: C_13  and  C_14 
ROOT
HETATM    1  N   UNL     1      42.900 -17.015   3.525  1.00  0.00    -0.309 N 
HETATM    2  C   UNL     1      41.873 -16.617   4.334  1.00  0.00     0.321 C 
HETATM    3  N   UNL     1      41.651 -15.270   4.401  1.00  0.00    -0.335 N 
HETATM    4  O   UNL     1      41.142 -17.340   5.004  1.00  0.00    -0.247 OA
HETATM    5  H   UNL     1      43.208 -16.336   2.839  1.00  0.00     0.170 HD
HETATM    6  H   UNL     1      40.902 -15.056   5.047  1.00  0.00     0.164 HD
ENDROOT
BRANCH   3   7
HETATM    7  C   UNL     1      42.543 -14.185   4.026  1.00  0.00     0.213 C 
BRANCH   7   8
HETATM    8  C   UNL     1      42.348 -13.794   2.608  1.00  0.00     0.190 A 
HETATM    9  O   UNL     1      42.498 -12.479   2.287  1.00  0.00    -0.194 OA
HETATM   10  N   UNL     1      42.286 -12.384   0.911  1.00  0.00    -0.106 NA
HETATM   11  C   UNL     1      42.014 -13.645   0.537  1.00  0.00     0.189 A 
HETATM   12  N   UNL     1      42.075 -14.557   1.572  1.00  0.00    -0.202 NA
BRANCH  11  13
HETATM   13  C   UNL     1      41.694 -14.051  -0.827  1.00  0.00     0.014 A 
HETATM   14  C   UNL     1      41.076 -15.281  -1.092  1.00  0.00     0.015 A 
HETATM   15  C   UNL     1      40.766 -15.650  -2.404  1.00  0.00     0.001 A 
HETATM   16  C   UNL     1      41.074 -14.797  -3.463  1.00  0.00     0.000 A 
HETATM   17  C   UNL     1      41.695 -13.575  -3.214  1.00  0.00     0.001 A 
HETATM   18  C   UNL     1      42.004 -13.205  -1.903  1.00  0.00     0.015 A 
ENDBRANCH  11  13
ENDBRANCH   7   8
ENDBRANCH   3   7
BRANCH   1  19
HETATM   19  C   UNL     1      43.385 -18.321   3.316  1.00  0.00     0.036 A 
HETATM   20  C   UNL     1      44.205 -19.006   4.212  1.00  0.00     0.030 A 
HETATM   21  C   UNL     1      44.621 -20.313   3.934  1.00  0.00     0.009 A 
HETATM   22  C   UNL     1      44.242 -20.948   2.747  1.00  0.00    -0.062 A 
HETATM   23  C   UNL     1      44.647 -22.365   2.472  1.00  0.00     0.048 C 
HETATM   24  C   UNL     1      43.424 -20.260   1.847  1.00  0.00     0.009 A 
HETATM   25  C   UNL     1      43.007 -18.956   2.126  1.00  0.00     0.030 A 
ENDBRANCH   1  19
TORSDOF 4
ENDMDL
MODEL 10
REMARK VINA RESULT:      -8.1      1.622      1.967
REMARK  4 active torsions:
REMARK  status: ('A' for Active; 'I' for Inactive)
REMARK    1  A    between atoms: C_5  and  N_6 
REMARK       I    between atoms: N_6  and  C_7 
REMARK       I    between atoms: C_7  and  N_8 
REMARK    2  A    between atoms: N_8  and  C_9 
REMARK    3  A    between atoms: C_9  and  C_10 
REMARK    4  A    between atoms: C_13  and  C_14 
ROOT
HETATM    1  N   UNL     1      43.238 -11.858   8.580  1.00  0.00    -0.309 N 
HETATM    2  C   UNL     1      44.109 -12.823   8.161  1.00  0.00     0.321 C 
HETATM    3  N   UNL     1      43.883 -13.333   6.914  1.00  0.00    -0.335 N 
HETATM    4  O   UNL     1      45.061 -13.276   8.790  1.00  0.00    -0.247 OA
HETATM    5  H   UNL     1      42.699 -11.405   7.851  1.00  0.00     0.170 HD
HETATM    6  H   UNL     1      44.546 -14.066   6.695  1.00  0.00     0.164 HD
ENDROOT
BRANCH   3   7
HETATM    7  C   UNL     1      42.673 -13.263   6.112  1.00  0.00     0.213 C 
BRANCH   7   8
HETATM    8  C   UNL     1      42.495 -14.490   5.296  1.00  0.00     0.190 A 
HETATM    9  O   UNL     1      41.293 -14.676   4.685  1.00  0.00    -0.194 OA
HETATM   10  N   UNL     1      41.394 -15.873   3.976  1.00  0.00    -0.106 NA
HETATM   11  C   UNL     1      42.640 -16.302   4.239  1.00  0.00     0.189 A 
HETATM   12  N   UNL     1      43.365 -15.442   5.039  1.00  0.00    -0.202 NA
BRANCH  11  13
HETATM   13  C   UNL     1      43.209 -17.545   3.733  1.00  0.00     0.014 A 
HETATM   14  C   UNL     1      43.217 -17.834   2.361  1.00  0.00     0.015 A 
HETATM   15  C   UNL     1      43.777 -19.025   1.890  1.00  0.00     0.001 A 
HETATM   16  C   UNL     1      44.328 -19.941   2.785  1.00  0.00     0.000 A 
HETATM   17  C   UNL     1      44.319 -19.671   4.152  1.00  0.00     0.001 A 
HETATM   18  C   UNL     1      43.761 -18.480   4.623  1.00  0.00     0.015 A 
ENDBRANCH  11  13
ENDBRANCH   7   8
ENDBRANCH   3   7
BRANCH   1  19
HETATM   19  C   UNL     1      43.196 -11.207   9.829  1.00  0.00     0.036 A 
HETATM   20  C   UNL     1      42.022 -10.801  10.464  1.00  0.00     0.030 A 
HETATM   21  C   UNL     1      42.073 -10.182  11.718  1.00  0.00     0.009 A 
HETATM   22  C   UNL     1      43.298  -9.941  12.348  1.00  0.00    -0.062 A 
HETATM   23  C   UNL     1      43.350  -9.321  13.713  1.00  0.00     0.048 C 
HETATM   24  C   UNL     1      44.475 -10.343  11.711  1.00  0.00     0.009 A 
HETATM   25  C   UNL     1      44.423 -10.963  10.460  1.00  0.00     0.030 A 
ENDBRANCH   1  19
TORSDOF 4
ENDMDL
