MODEL 1
REMARK VINA RESULT:      -8.3      0.000      0.000
REMARK  6 active torsions:
REMARK  status: ('A' for Active; 'I' for Inactive)
REMARK    1  A    between atoms: C_3  and  C_4 
REMARK    2  A    between atoms: C_4  and  N_5 
REMARK    3  A    between atoms: C_4  and  C_19 
REMARK    4  A    between atoms: N_9  and  C_10 
REMARK    5  A    between atoms: C_25  and  N_26 
REMARK       I    between atoms: N_26  and  C_27 
REMARK    6  A    between atoms: C_27  and  C_28 
ROOT
HETATM    1  C   UNL     1      41.690 -14.286  -0.500  1.00  0.00     0.259 C 
ENDROOT
BRANCH   1   2
HETATM    2  C   UNL     1      41.900 -12.773  -0.467  1.00  0.00     0.018 A 
HETATM    3  C   UNL     1      42.339 -12.031  -1.663  1.00  0.00    -0.038 A 
HETATM    4  C   UNL     1      42.480 -12.605  -3.047  1.00  0.00     0.050 C 
HETATM    5  C   UNL     1      42.637 -10.709  -1.374  1.00  0.00    -0.013 A 
HETATM    6  S   UNL     1      42.378 -10.339   0.258  1.00  0.00    -0.076 SA
HETATM    7  C   UNL     1      43.138  -9.634  -2.293  1.00  0.00     0.057 C 
HETATM    8  C   UNL     1      41.798 -11.895   0.613  1.00  0.00     0.086 A 
BRANCH   8   9
HETATM    9  N   UNL     1      41.225 -12.072   1.864  1.00  0.00    -0.315 N 
HETATM   10  C   UNL     1      39.870 -12.265   2.114  1.00  0.00     0.280 C 
HETATM   11  O   UNL     1      38.975 -12.064   1.303  1.00  0.00    -0.265 OA
HETATM   12  H   UNL     1      41.794 -12.056   2.699  1.00  0.00     0.170 HD
BRANCH  10  13
HETATM   13  C   UNL     1      39.612 -12.544   3.512  1.00  0.00     0.142 A 
HETATM   14  O   UNL     1      40.057 -13.732   4.041  1.00  0.00    -0.317 OA
HETATM   15  C   UNL     1      39.670 -13.755   5.344  1.00  0.00     0.143 A 
HETATM   16  C   UNL     1      39.032 -12.584   5.678  1.00  0.00     0.027 A 
HETATM   17  C   UNL     1      39.002 -11.799   4.500  1.00  0.00     0.045 A 
ENDBRANCH  10  13
ENDBRANCH   8   9
ENDBRANCH   1   2
BRANCH   1  18
HETATM   18  N   UNL     1      41.617 -15.012   0.878  1.00  0.00    -0.056 N 
HETATM   19  H   UNL     1      41.037 -14.368   1.435  1.00  0.00     0.281 HD
HETATM   20  C   UNL     1      40.893 -16.341   0.915  1.00  0.00     0.256 C 
HETATM   21  C   UNL     1      40.851 -16.970   2.332  1.00  0.00     0.152 C 
HETATM   22  N   UNL     1      42.181 -17.018   2.964  1.00  0.00    -0.364 N 
HETATM   23  C   UNL     1      42.868 -15.708   2.987  1.00  0.00     0.152 C 
HETATM   24  C   UNL     1      42.979 -15.096   1.572  1.00  0.00     0.256 C 
BRANCH  22  25
HETATM   25  C   UNL     1      42.883 -18.206   2.974  1.00  0.00     0.102 A 
HETATM   26  N   UNL     1      43.665 -18.479   4.037  1.00  0.00    -0.352 N 
HETATM   27  H   UNL     1      43.752 -17.766   4.756  1.00  0.00     0.166 HD
HETATM   28  C   UNL     1      44.402 -19.595   4.165  1.00  0.00     0.089 A 
HETATM   29  C   UNL     1      44.398 -20.547   3.161  1.00  0.00     0.017 A 
HETATM   30  C   UNL     1      43.639 -20.311   2.025  1.00  0.00     0.005 A 
HETATM   31  C   UNL     1      42.889 -19.139   1.925  1.00  0.00     0.048 A 
ENDBRANCH  22  25
ENDBRANCH   1  18
BRANCH   1  32
HETATM   32  C   UNL     1      40.697 -14.690  -1.575  1.00  0.00    -0.005 A 
HETATM   33  C   UNL     1      40.921 -15.627  -2.576  1.00  0.00     0.125 A 
HETATM   34  N   UNL     1      40.065 -15.901  -3.586  1.00  0.00    -0.273 NA
HETATM   35  C   UNL     1      38.863 -15.297  -3.575  1.00  0.00     0.116 A 
HETATM   36  C   UNL     1      38.487 -14.410  -2.591  1.00  0.00     0.020 A 
HETATM   37  C   UNL     1      39.410 -14.110  -1.588  1.00  0.00     0.012 A 
ENDBRANCH   1  32
TORSDOF 6
ENDMDL
MODEL 2
REMARK VINA RESULT:      -8.1      2.678      4.921
REMARK  6 active torsions:
REMARK  status: ('A' for Active; 'I' for Inactive)
REMARK    1  A    between atoms: C_3  and  C_4 
REMARK    2  A    between atoms: C_4  and  N_5 
REMARK    3  A    between atoms: C_4  and  C_19 
REMARK    4  A    between atoms: N_9  and  C_10 
REMARK    5  A    between atoms: C_25  and  N_26 
REMARK       I    between atoms: N_26  and  C_27 
REMARK    6  A    between atoms: C_27  and  C_28 
ROOT
HETATM    1  C   UNL     1      41.016 -11.675   1.810  1.00  0.00     0.259 C 
ENDROOT
BRANCH   1   2
HETATM    2  C   UNL     1      39.724 -12.353   1.357  1.00  0.00     0.018 A 
HETATM    3  C   UNL     1      38.559 -11.569   0.908  1.00  0.00    -0.038 A 
HETATM    4  C   UNL     1      38.537 -10.079   0.695  1.00  0.00     0.050 C 
HETATM    5  C   UNL     1      37.441 -12.363   0.712  1.00  0.00    -0.013 A 
HETATM    6  S   UNL     1      37.759 -13.998   1.017  1.00  0.00    -0.076 SA
HETATM    7  C   UNL     1      36.061 -11.958   0.287  1.00  0.00     0.057 C 
HETATM    8  C   UNL     1      39.400 -13.711   1.349  1.00  0.00     0.086 A 
BRANCH   8   9
HETATM    9  N   UNL     1      40.211 -14.829   1.474  1.00  0.00    -0.315 N 
HETATM   10  C   UNL     1      40.922 -15.433   0.442  1.00  0.00     0.280 C 
HETATM   11  O   UNL     1      40.743 -15.216  -0.750  1.00  0.00    -0.265 OA
HETATM   12  H   UNL     1      40.321 -15.290   2.367  1.00  0.00     0.170 HD
BRANCH  10  13
HETATM   13  C   UNL     1      41.773 -16.502   0.925  1.00  0.00     0.142 A 
HETATM   14  O   UNL     1      43.115 -16.256   1.090  1.00  0.00    -0.317 OA
HETATM   15  C   UNL     1      43.680 -17.413   1.523  1.00  0.00     0.143 A 
HETATM   16  C   UNL     1      42.721 -18.385   1.690  1.00  0.00     0.027 A 
HETATM   17  C   UNL     1      41.490 -17.796   1.313  1.00  0.00     0.045 A 
ENDBRANCH  10  13
ENDBRANCH   8   9
ENDBRANCH   1   2
BRANCH   1  18
HETATM   18  N   UNL     1      41.724 -12.285   3.058  1.00  0.00    -0.056 N 
HETATM   19  H   UNL     1      42.173 -11.460   3.480  1.00  0.00     0.281 HD
HETATM   20  C   UNL     1      40.832 -12.855   4.141  1.00  0.00     0.256 C 
HETATM   21  C   UNL     1      41.628 -13.412   5.351  1.00  0.00     0.152 C 
HETATM   22  N   UNL     1      42.702 -14.333   4.940  1.00  0.00    -0.364 N 
HETATM   23  C   UNL     1      43.614 -13.758   3.928  1.00  0.00     0.152 C 
HETATM   24  C   UNL     1      42.844 -13.259   2.683  1.00  0.00     0.256 C 
BRANCH  22  25
HETATM   25  C   UNL     1      42.504 -15.695   5.048  1.00  0.00     0.102 A 
HETATM   26  N   UNL     1      43.581 -16.487   5.223  1.00  0.00    -0.352 N 
HETATM   27  H   UNL     1      44.497 -16.049   5.202  1.00  0.00     0.166 HD
HETATM   28  C   UNL     1      43.523 -17.824   5.336  1.00  0.00     0.089 A 
HETATM   29  C   UNL     1      42.304 -18.474   5.263  1.00  0.00     0.017 A 
HETATM   30  C   UNL     1      41.160 -17.719   5.052  1.00  0.00     0.005 A 
HETATM   31  C   UNL     1      41.259 -16.332   4.935  1.00  0.00     0.048 A 
ENDBRANCH  22  25
ENDBRANCH   1  18
BRANCH   1  32
HETATM   32  C   UNL     1      41.876 -11.263   0.629  1.00  0.00    -0.005 A 
HETATM   33  C   UNL     1      42.294 -12.096  -0.401  1.00  0.00     0.125 A 
HETATM   34  N   UNL     1      43.143 -11.738  -1.390  1.00  0.00    -0.273 NA
HETATM   35  C   UNL     1      43.543 -10.454  -1.444  1.00  0.00     0.116 A 
HETATM   36  C   UNL     1      43.134  -9.510  -0.529  1.00  0.00     0.020 A 
HETATM   37  C   UNL     1      42.296  -9.920   0.508  1.00  0.00     0.012 A 
ENDBRANCH   1  32
TORSDOF 6
ENDMDL
MODEL 3
REMARK VINA RESULT:      -8.0      2.949      7.267
REMARK  6 active torsions:
REMARK  status: ('A' for Active; 'I' for Inactive)
REMARK    1  A    between atoms: C_3  and  C_4 
REMARK    2  A    between atoms: C_4  and  N_5 
REMARK    3  A    between atoms: C_4  and  C_19 
REMARK    4  A    between atoms: N_9  and  C_10 
REMARK    5  A    between atoms: C_25  and  N_26 
REMARK       I    between atoms: N_26  and  C_27 
REMARK    6  A    between atoms: C_27  and  C_28 
ROOT
HETATM    1  C   UNL     1      41.280 -15.695   3.095  1.00  0.00     0.259 C 
ENDROOT
BRANCH   1   2
HETATM    2  C   UNL     1      41.904 -15.071   4.342  1.00  0.00     0.018 A 
HETATM    3  C   UNL     1      41.524 -13.722   4.801  1.00  0.00    -0.038 A 
HETATM    4  C   UNL     1      40.413 -12.884   4.228  1.00  0.00     0.050 C 
HETATM    5  C   UNL     1      42.329 -13.279   5.838  1.00  0.00    -0.013 A 
HETATM    6  S   UNL     1      43.486 -14.432   6.283  1.00  0.00    -0.076 SA
HETATM    7  C   UNL     1      42.293 -11.967   6.563  1.00  0.00     0.057 C 
HETATM    8  C   UNL     1      42.911 -15.576   5.167  1.00  0.00     0.086 A 
BRANCH   8   9
HETATM    9  N   UNL     1      43.428 -16.858   5.272  1.00  0.00    -0.315 N 
HETATM   10  C   UNL     1      43.043 -17.813   6.208  1.00  0.00     0.280 C 
HETATM   11  O   UNL     1      42.379 -17.580   7.211  1.00  0.00    -0.265 OA
HETATM   12  H   UNL     1      44.157 -17.173   4.647  1.00  0.00     0.170 HD
BRANCH  10  13
HETATM   13  C   UNL     1      43.681 -19.092   5.971  1.00  0.00     0.142 A 
HETATM   14  O   UNL     1      44.537 -19.215   4.903  1.00  0.00    -0.317 OA
HETATM   15  C   UNL     1      44.974 -20.501   4.892  1.00  0.00     0.143 A 
HETATM   16  C   UNL     1      44.459 -21.195   5.962  1.00  0.00     0.027 A 
HETATM   17  C   UNL     1      43.633 -20.284   6.663  1.00  0.00     0.045 A 
ENDBRANCH  10  13
ENDBRANCH   8   9
ENDBRANCH   1   2
BRANCH   1  18
HETATM   18  N   UNL     1      40.564 -14.721   2.110  1.00  0.00    -0.056 N 
HETATM   19  H   UNL     1      40.410 -13.889   2.696  1.00  0.00     0.281 HD
HETATM   20  C   UNL     1      41.370 -14.234   0.924  1.00  0.00     0.256 C 
HETATM   21  C   UNL     1      40.582 -13.250   0.018  1.00  0.00     0.152 C 
HETATM   22  N   UNL     1      39.257 -13.772  -0.357  1.00  0.00    -0.364 N 
HETATM   23  C   UNL     1      38.441 -14.193   0.803  1.00  0.00     0.152 C 
HETATM   24  C   UNL     1      39.184 -15.226   1.680  1.00  0.00     0.256 C 
BRANCH  22  25
HETATM   25  C   UNL     1      39.077 -14.325  -1.609  1.00  0.00     0.102 A 
HETATM   26  N   UNL     1      37.818 -14.479  -2.067  1.00  0.00    -0.352 N 
HETATM   27  H   UNL     1      37.056 -14.240  -1.440  1.00  0.00     0.166 HD
HETATM   28  C   UNL     1      37.510 -15.008  -3.262  1.00  0.00     0.089 A 
HETATM   29  C   UNL     1      38.515 -15.446  -4.107  1.00  0.00     0.017 A 
HETATM   30  C   UNL     1      39.831 -15.345  -3.682  1.00  0.00     0.005 A 
HETATM   31  C   UNL     1      40.114 -14.794  -2.431  1.00  0.00     0.048 A 
ENDBRANCH  22  25
ENDBRANCH   1  18
BRANCH   1  32
HETATM   32  C   UNL     1      42.163 -16.783   2.512  1.00  0.00    -0.005 A 
HETATM   33  C   UNL     1      41.867 -18.140   2.484  1.00  0.00     0.125 A 
HETATM   34  N   UNL     1      42.708 -19.107   2.053  1.00  0.00    -0.273 NA
HETATM   35  C   UNL     1      43.884 -18.728   1.520  1.00  0.00     0.116 A 
HETATM   36  C   UNL     1      44.261 -17.407   1.415  1.00  0.00     0.020 A 
HETATM   37  C   UNL     1      43.392 -16.435   1.911  1.00  0.00     0.012 A 
ENDBRANCH   1  32
TORSDOF 6
ENDMDL
MODEL 4
REMARK VINA RESULT:      -7.9      2.170      4.639
REMARK  6 active torsions:
REMARK  status: ('A' for Active; 'I' for Inactive)
REMARK    1  A    between atoms: C_3  and  C_4 
REMARK    2  A    between atoms: C_4  and  N_5 
REMARK    3  A    between atoms: C_4  and  C_19 
REMARK    4  A    between atoms: N_9  and  C_10 
REMARK    5  A    between atoms: C_25  and  N_26 
REMARK       I    between atoms: N_26  and  C_27 
REMARK    6  A    between atoms: C_27  and  C_28 
ROOT
HETATM    1  C   UNL     1      41.110 -13.736   2.768  1.00  0.00     0.259 C 
ENDROOT
BRANCH   1   2
HETATM    2  C   UNL     1      40.897 -12.393   3.464  1.00  0.00     0.018 A 
HETATM    3  C   UNL     1      40.394 -12.314   4.848  1.00  0.00    -0.038 A 
HETATM    4  C   UNL     1      40.184 -13.484   5.770  1.00  0.00     0.050 C 
HETATM    5  C   UNL     1      40.107 -11.012   5.224  1.00  0.00    -0.013 A 
HETATM    6  S   UNL     1      40.449  -9.903   3.991  1.00  0.00    -0.076 SA
HETATM    7  C   UNL     1      39.556 -10.507   6.524  1.00  0.00     0.057 C 
HETATM    8  C   UNL     1      41.051 -11.103   2.952  1.00  0.00     0.086 A 
BRANCH   8   9
HETATM    9  N   UNL     1      41.689 -10.664   1.801  1.00  0.00    -0.315 N 
HETATM   10  C   UNL     1      41.067 -10.386   0.587  1.00  0.00     0.280 C 
HETATM   11  O   UNL     1      39.926 -10.718   0.295  1.00  0.00    -0.265 OA
HETATM   12  H   UNL     1      42.690 -10.530   1.785  1.00  0.00     0.170 HD
BRANCH  10  13
HETATM   13  C   UNL     1      41.992  -9.827  -0.378  1.00  0.00     0.142 A 
HETATM   14  O   UNL     1      43.300 -10.247  -0.361  1.00  0.00    -0.317 OA
HETATM   15  C   UNL     1      43.950  -9.560  -1.336  1.00  0.00     0.143 A 
HETATM   16  C   UNL     1      43.076  -8.745  -2.016  1.00  0.00     0.027 A 
HETATM   17  C   UNL     1      41.811  -8.923  -1.405  1.00  0.00     0.045 A 
ENDBRANCH  10  13
ENDBRANCH   8   9
ENDBRANCH   1   2
BRANCH   1  18
HETATM   18  N   UNL     1      41.420 -14.958   3.686  1.00  0.00    -0.056 N 
HETATM   19  H   UNL     1      41.041 -14.652   4.594  1.00  0.00     0.281 HD
HETATM   20  C   UNL     1      40.702 -16.253   3.367  1.00  0.00     0.256 C 
HETATM   21  C   UNL     1      41.054 -17.400   4.351  1.00  0.00     0.152 C 
HETATM   22  N   UNL     1      42.508 -17.569   4.518  1.00  0.00    -0.364 N 
HETATM   23  C   UNL     1      43.206 -16.319   4.891  1.00  0.00     0.152 C 
HETATM   24  C   UNL     1      42.921 -15.183   3.882  1.00  0.00     0.256 C 
BRANCH  22  25
HETATM   25  C   UNL     1      43.153 -18.587   3.844  1.00  0.00     0.102 A 
HETATM   26  N   UNL     1      44.093 -19.295   4.501  1.00  0.00    -0.352 N 
HETATM   27  H   UNL     1      44.330 -19.003   5.445  1.00  0.00     0.166 HD
HETATM   28  C   UNL     1      44.794 -20.303   3.958  1.00  0.00     0.089 A 
HETATM   29  C   UNL     1      44.580 -20.667   2.640  1.00  0.00     0.017 A 
HETATM   30  C   UNL     1      43.648 -19.956   1.899  1.00  0.00     0.005 A 
HETATM   31  C   UNL     1      42.941 -18.911   2.495  1.00  0.00     0.048 A 
ENDBRANCH  22  25
ENDBRANCH   1  18
BRANCH   1  32
HETATM   32  C   UNL     1      40.137 -13.932   1.619  1.00  0.00    -0.005 A 
HETATM   33  C   UNL     1      40.481 -14.238   0.308  1.00  0.00     0.125 A 
HETATM   34  N   UNL     1      39.610 -14.309  -0.723  1.00  0.00    -0.273 NA
HETATM   35  C   UNL     1      38.299 -14.169  -0.453  1.00  0.00     0.116 A 
HETATM   36  C   UNL     1      37.823 -13.943   0.819  1.00  0.00     0.020 A 
HETATM   37  C   UNL     1      38.750 -13.828   1.856  1.00  0.00     0.012 A 
ENDBRANCH   1  32
TORSDOF 6
ENDMDL
MODEL 5
REMARK VINA RESULT:      -7.8      2.291      4.607
REMARK  6 active torsions:
REMARK  status: ('A' for Active; 'I' for Inactive)
REMARK    1  A    between atoms: C_3  and  C_4 
REMARK    2  A    between atoms: C_4  and  N_5 
REMARK    3  A    between atoms: C_4  and  C_19 
REMARK    4  A    between atoms: N_9  and  C_10 
REMARK    5  A    between atoms: C_25  and  N_26 
REMARK       I    between atoms: N_26  and  C_27 
REMARK    6  A    between atoms: C_27  and  C_28 
ROOT
HETATM    1  C   UNL     1      41.481 -14.422   0.765  1.00  0.00     0.259 C 
ENDROOT
BRANCH   1   2
HETATM    2  C   UNL     1      40.484 -13.417   1.339  1.00  0.00     0.018 A 
HETATM    3  C   UNL     1      40.801 -12.616   2.536  1.00  0.00    -0.038 A 
HETATM    4  C   UNL     1      42.138 -12.564   3.225  1.00  0.00     0.050 C 
HETATM    5  C   UNL     1      39.703 -11.904   2.991  1.00  0.00    -0.013 A 
HETATM    6  S   UNL     1      38.339 -12.146   2.017  1.00  0.00    -0.076 SA
HETATM    7  C   UNL     1      39.595 -10.999   4.182  1.00  0.00     0.057 C 
HETATM    8  C   UNL     1      39.178 -13.142   0.928  1.00  0.00     0.086 A 
BRANCH   8   9
HETATM    9  N   UNL     1      38.518 -13.472  -0.246  1.00  0.00    -0.315 N 
HETATM   10  C   UNL     1      38.478 -12.695  -1.399  1.00  0.00     0.280 C 
HETATM   11  O   UNL     1      38.809 -11.517  -1.459  1.00  0.00    -0.265 OA
HETATM   12  H   UNL     1      37.995 -14.334  -0.319  1.00  0.00     0.170 HD
BRANCH  10  13
HETATM   13  C   UNL     1      37.813 -13.378  -2.490  1.00  0.00     0.142 A 
HETATM   14  O   UNL     1      37.137 -12.630  -3.424  1.00  0.00    -0.317 OA
HETATM   15  C   UNL     1      36.592 -13.503  -4.311  1.00  0.00     0.143 A 
HETATM   16  C   UNL     1      36.946 -14.795  -3.997  1.00  0.00     0.027 A 
HETATM   17  C   UNL     1      37.741 -14.714  -2.828  1.00  0.00     0.045 A 
ENDBRANCH  10  13
ENDBRANCH   8   9
ENDBRANCH   1   2
BRANCH   1  18
HETATM   18  N   UNL     1      41.524 -15.828   1.438  1.00  0.00    -0.056 N 
HETATM   19  H   UNL     1      40.826 -16.353   0.892  1.00  0.00     0.281 HD
HETATM   20  C   UNL     1      42.813 -16.612   1.305  1.00  0.00     0.256 C 
HETATM   21  C   UNL     1      42.747 -18.006   1.983  1.00  0.00     0.152 C 
HETATM   22  N   UNL     1      42.253 -17.933   3.369  1.00  0.00    -0.364 N 
HETATM   23  C   UNL     1      40.962 -17.222   3.496  1.00  0.00     0.152 C 
HETATM   24  C   UNL     1      41.029 -15.803   2.886  1.00  0.00     0.256 C 
BRANCH  22  25
HETATM   25  C   UNL     1      43.154 -17.993   4.413  1.00  0.00     0.102 A 
HETATM   26  N   UNL     1      43.025 -17.110   5.423  1.00  0.00    -0.352 N 
HETATM   27  H   UNL     1      42.306 -16.397   5.337  1.00  0.00     0.166 HD
HETATM   28  C   UNL     1      43.839 -17.060   6.490  1.00  0.00     0.089 A 
HETATM   29  C   UNL     1      44.897 -17.945   6.597  1.00  0.00     0.017 A 
HETATM   30  C   UNL     1      45.105 -18.859   5.574  1.00  0.00     0.005 A 
HETATM   31  C   UNL     1      44.242 -18.879   4.479  1.00  0.00     0.048 A 
ENDBRANCH  22  25
ENDBRANCH   1  18
BRANCH   1  32
HETATM   32  C   UNL     1      41.537 -14.352  -0.751  1.00  0.00    -0.005 A 
HETATM   33  C   UNL     1      42.008 -13.279  -1.497  1.00  0.00     0.125 A 
HETATM   34  N   UNL     1      41.957 -13.191  -2.845  1.00  0.00    -0.273 NA
HETATM   35  C   UNL     1      41.505 -14.258  -3.529  1.00  0.00     0.116 A 
HETATM   36  C   UNL     1      41.085 -15.414  -2.910  1.00  0.00     0.020 A 
HETATM   37  C   UNL     1      41.106 -15.457  -1.516  1.00  0.00     0.012 A 
ENDBRANCH   1  32
TORSDOF 6
ENDMDL
MODEL 6
REMARK VINA RESULT:      -7.8      2.557      6.754
REMARK  6 active torsions:
REMARK  status: ('A' for Active; 'I' for Inactive)
REMARK    1  A    between atoms: C_3  and  C_4 
REMARK    2  A    between atoms: C_4  and  N_5 
REMARK    3  A    between atoms: C_4  and  C_19 
REMARK    4  A    between atoms: N_9  and  C_10 
REMARK    5  A    between atoms: C_25  and  N_26 
REMARK       I    between atoms: N_26  and  C_27 
REMARK    6  A    between atoms: C_27  and  C_28 
ROOT
HETATM    1  C   UNL     1      40.736 -15.169   0.614  1.00  0.00     0.259 C 
ENDROOT
BRANCH   1   2
HETATM    2  C   UNL     1      40.010 -14.097   1.425  1.00  0.00     0.018 A 
HETATM    3  C   UNL     1      38.807 -13.421   0.906  1.00  0.00    -0.038 A 
HETATM    4  C   UNL     1      38.074 -13.788  -0.357  1.00  0.00     0.050 C 
HETATM    5  C   UNL     1      38.412 -12.367   1.714  1.00  0.00    -0.013 A 
HETATM    6  S   UNL     1      39.414 -12.193   3.068  1.00  0.00    -0.076 SA
HETATM    7  C   UNL     1      37.266 -11.418   1.530  1.00  0.00     0.057 C 
HETATM    8  C   UNL     1      40.354 -13.548   2.662  1.00  0.00     0.086 A 
BRANCH   8   9
HETATM    9  N   UNL     1      41.254 -13.987   3.621  1.00  0.00    -0.315 N 
HETATM   10  C   UNL     1      42.615 -13.695   3.648  1.00  0.00     0.280 C 
HETATM   11  O   UNL     1      43.246 -13.220   2.712  1.00  0.00    -0.265 OA
HETATM   12  H   UNL     1      40.952 -14.582   4.379  1.00  0.00     0.170 HD
BRANCH  10  13
HETATM   13  C   UNL     1      43.252 -14.198   4.847  1.00  0.00     0.142 A 
HETATM   14  O   UNL     1      44.339 -13.525   5.351  1.00  0.00    -0.317 OA
HETATM   15  C   UNL     1      44.756 -14.208   6.449  1.00  0.00     0.143 A 
HETATM   16  C   UNL     1      43.927 -15.279   6.693  1.00  0.00     0.027 A 
HETATM   17  C   UNL     1      42.952 -15.268   5.667  1.00  0.00     0.045 A 
ENDBRANCH  10  13
ENDBRANCH   8   9
ENDBRANCH   1   2
BRANCH   1  18
HETATM   18  N   UNL     1      41.507 -14.686  -0.652  1.00  0.00    -0.056 N 
HETATM   19  H   UNL     1      42.364 -15.255  -0.616  1.00  0.00     0.281 HD
HETATM   20  C   UNL     1      40.877 -14.989  -1.995  1.00  0.00     0.256 C 
HETATM   21  C   UNL     1      41.731 -14.494  -3.191  1.00  0.00     0.152 C 
HETATM   22  N   UNL     1      42.136 -13.085  -3.046  1.00  0.00    -0.364 N 
HETATM   23  C   UNL     1      42.809 -12.796  -1.761  1.00  0.00     0.152 C 
HETATM   24  C   UNL     1      41.941 -13.221  -0.554  1.00  0.00     0.256 C 
BRANCH  22  25
HETATM   25  C   UNL     1      41.452 -12.109  -3.743  1.00  0.00     0.102 A 
HETATM   26  N   UNL     1      40.108 -12.068  -3.635  1.00  0.00    -0.352 N 
HETATM   27  H   UNL     1      39.655 -12.800  -3.096  1.00  0.00     0.166 HD
HETATM   28  C   UNL     1      39.329 -11.175  -4.265  1.00  0.00     0.089 A 
HETATM   29  C   UNL     1      39.895 -10.224  -5.096  1.00  0.00     0.017 A 
HETATM   30  C   UNL     1      41.270 -10.233  -5.275  1.00  0.00     0.005 A 
HETATM   31  C   UNL     1      42.048 -11.179  -4.608  1.00  0.00     0.048 A 
ENDBRANCH  22  25
ENDBRANCH   1  18
BRANCH   1  32
HETATM   32  C   UNL     1      41.405 -16.194   1.513  1.00  0.00    -0.005 A 
HETATM   33  C   UNL     1      40.773 -16.950   2.492  1.00  0.00     0.125 A 
HETATM   34  N   UNL     1      41.401 -17.783   3.352  1.00  0.00    -0.273 NA
HETATM   35  C   UNL     1      42.723 -17.974   3.193  1.00  0.00     0.116 A 
HETATM   36  C   UNL     1      43.451 -17.346   2.207  1.00  0.00     0.020 A 
HETATM   37  C   UNL     1      42.784 -16.455   1.365  1.00  0.00     0.012 A 
ENDBRANCH   1  32
TORSDOF 6
ENDMDL
MODEL 7
REMARK VINA RESULT:      -7.8      2.822      6.826
REMARK  6 active torsions:
REMARK  status: ('A' for Active; 'I' for Inactive)
REMARK    1  A    between atoms: C_3  and  C_4 
REMARK    2  A    between atoms: C_4  and  N_5 
REMARK    3  A    between atoms: C_4  and  C_19 
REMARK    4  A    between atoms: N_9  and  C_10 
REMARK    5  A    between atoms: C_25  and  N_26 
REMARK       I    between atoms: N_26  and  C_27 
REMARK    6  A    between atoms: C_27  and  C_28 
ROOT
HETATM    1  C   UNL     1      40.229 -14.420   3.300  1.00  0.00     0.259 C 
ENDROOT
BRANCH   1   2
HETATM    2  C   UNL     1      40.498 -13.477   4.472  1.00  0.00     0.018 A 
HETATM    3  C   UNL     1      39.859 -12.151   4.556  1.00  0.00    -0.038 A 
HETATM    4  C   UNL     1      38.790 -11.636   3.631  1.00  0.00     0.050 C 
HETATM    5  C   UNL     1      40.370 -11.392   5.596  1.00  0.00    -0.013 A 
HETATM    6  S   UNL     1      41.552 -12.228   6.474  1.00  0.00    -0.076 SA
HETATM    7  C   UNL     1      40.016  -9.993   6.003  1.00  0.00     0.057 C 
HETATM    8  C   UNL     1      41.372 -13.641   5.549  1.00  0.00     0.086 A 
BRANCH   8   9
HETATM    9  N   UNL     1      42.019 -14.775   6.016  1.00  0.00    -0.315 N 
HETATM   10  C   UNL     1      43.398 -14.944   6.097  1.00  0.00     0.280 C 
HETATM   11  O   UNL     1      44.224 -14.225   5.549  1.00  0.00    -0.265 OA
HETATM   12  H   UNL     1      41.492 -15.580   6.324  1.00  0.00     0.170 HD
BRANCH  10  13
HETATM   13  C   UNL     1      43.752 -16.190   6.746  1.00  0.00     0.142 A 
HETATM   14  O   UNL     1      43.066 -16.565   7.877  1.00  0.00    -0.317 OA
HETATM   15  C   UNL     1      43.603 -17.742   8.294  1.00  0.00     0.143 A 
HETATM   16  C   UNL     1      44.585 -18.159   7.425  1.00  0.00     0.027 A 
HETATM   17  C   UNL     1      44.675 -17.164   6.422  1.00  0.00     0.045 A 
ENDBRANCH  10  13
ENDBRANCH   8   9
ENDBRANCH   1   2
BRANCH   1  18
HETATM   18  N   UNL     1      39.597 -13.786   2.024  1.00  0.00    -0.056 N 
HETATM   19  H   UNL     1      39.194 -12.911   2.390  1.00  0.00     0.281 HD
HETATM   20  C   UNL     1      40.550 -13.362   0.926  1.00  0.00     0.256 C 
HETATM   21  C   UNL     1      39.829 -12.719  -0.288  1.00  0.00     0.152 C 
HETATM   22  N   UNL     1      38.711 -13.543  -0.778  1.00  0.00    -0.364 N 
HETATM   23  C   UNL     1      37.743 -13.908   0.279  1.00  0.00     0.152 C 
HETATM   24  C   UNL     1      38.434 -14.613   1.469  1.00  0.00     0.256 C 
BRANCH  22  25
HETATM   25  C   UNL     1      38.888 -14.326  -1.901  1.00  0.00     0.102 A 
HETATM   26  N   UNL     1      37.798 -14.699  -2.601  1.00  0.00    -0.352 N 
HETATM   27  H   UNL     1      36.888 -14.440  -2.231  1.00  0.00     0.166 HD
HETATM   28  C   UNL     1      37.836 -15.463  -3.705  1.00  0.00     0.089 A 
HETATM   29  C   UNL     1      39.047 -15.928  -4.186  1.00  0.00     0.017 A 
HETATM   30  C   UNL     1      40.204 -15.606  -3.492  1.00  0.00     0.005 A 
HETATM   31  C   UNL     1      40.127 -14.814  -2.347  1.00  0.00     0.048 A 
ENDBRANCH  22  25
ENDBRANCH   1  18
BRANCH   1  32
HETATM   32  C   UNL     1      41.354 -15.423   3.118  1.00  0.00    -0.005 A 
HETATM   33  C   UNL     1      42.612 -15.146   2.597  1.00  0.00     0.125 A 
HETATM   34  N   UNL     1      43.566 -16.070   2.347  1.00  0.00    -0.273 NA
HETATM   35  C   UNL     1      43.326 -17.341   2.718  1.00  0.00     0.116 A 
HETATM   36  C   UNL     1      42.150 -17.730   3.320  1.00  0.00     0.020 A 
HETATM   37  C   UNL     1      41.165 -16.763   3.521  1.00  0.00     0.012 A 
ENDBRANCH   1  32
TORSDOF 6
ENDMDL
MODEL 8
REMARK VINA RESULT:      -7.8      3.938      7.958
REMARK  6 active torsions:
REMARK  status: ('A' for Active; 'I' for Inactive)
REMARK    1  A    between atoms: C_3  and  C_4 
REMARK    2  A    between atoms: C_4  and  N_5 
REMARK    3  A    between atoms: C_4  and  C_19 
REMARK    4  A    between atoms: N_9  and  C_10 
REMARK    5  A    between atoms: C_25  and  N_26 
REMARK       I    between atoms: N_26  and  C_27 
REMARK    6  A    between atoms: C_27  and  C_28 
ROOT
HETATM    1  C   UNL     1      41.035 -14.224   3.959  1.00  0.00     0.259 C 
ENDROOT
BRANCH   1   2
HETATM    2  C   UNL     1      42.010 -15.400   3.970  1.00  0.00     0.018 A 
HETATM    3  C   UNL     1      41.810 -16.575   3.102  1.00  0.00    -0.038 A 
HETATM    4  C   UNL     1      40.761 -16.702   2.030  1.00  0.00     0.050 C 
HETATM    5  C   UNL     1      42.701 -17.595   3.393  1.00  0.00    -0.013 A 
HETATM    6  S   UNL     1      43.771 -17.171   4.636  1.00  0.00    -0.076 SA
HETATM    7  C   UNL     1      42.814 -18.953   2.768  1.00  0.00     0.057 C 
HETATM    8  C   UNL     1      43.131 -15.604   4.776  1.00  0.00     0.086 A 
BRANCH   8   9
HETATM    9  N   UNL     1      43.835 -14.718   5.578  1.00  0.00    -0.315 N 
HETATM   10  C   UNL     1      44.155 -14.916   6.917  1.00  0.00     0.280 C 
HETATM   11  O   UNL     1      43.659 -15.775   7.634  1.00  0.00    -0.265 OA
HETATM   12  H   UNL     1      44.155 -13.832   5.210  1.00  0.00     0.170 HD
BRANCH  10  13
HETATM   13  C   UNL     1      45.004 -13.861   7.432  1.00  0.00     0.142 A 
HETATM   14  O   UNL     1      44.718 -13.324   8.664  1.00  0.00    -0.317 OA
HETATM   15  C   UNL     1      45.638 -12.351   8.897  1.00  0.00     0.143 A 
HETATM   16  C   UNL     1      46.544 -12.287   7.863  1.00  0.00     0.027 A 
HETATM   17  C   UNL     1      46.141 -13.266   6.923  1.00  0.00     0.045 A 
ENDBRANCH  10  13
ENDBRANCH   8   9
ENDBRANCH   1   2
BRANCH   1  18
HETATM   18  N   UNL     1      40.895 -13.419   5.287  1.00  0.00    -0.056 N 
HETATM   19  H   UNL     1      41.310 -14.061   5.977  1.00  0.00     0.281 HD
HETATM   20  C   UNL     1      41.694 -12.138   5.398  1.00  0.00     0.256 C 
HETATM   21  C   UNL     1      41.511 -11.424   6.763  1.00  0.00     0.152 C 
HETATM   22  N   UNL     1      40.092 -11.256   7.122  1.00  0.00    -0.364 N 
HETATM   23  C   UNL     1      39.320 -12.516   7.076  1.00  0.00     0.152 C 
HETATM   24  C   UNL     1      39.436 -13.207   5.698  1.00  0.00     0.256 C 
BRANCH  22  25
HETATM   25  C   UNL     1      39.489 -10.028   6.936  1.00  0.00     0.102 A 
HETATM   26  N   UNL     1      39.216  -9.632   5.676  1.00  0.00    -0.352 N 
HETATM   27  H   UNL     1      39.527 -10.230   4.916  1.00  0.00     0.166 HD
HETATM   28  C   UNL     1      38.639  -8.461   5.362  1.00  0.00     0.089 A 
HETATM   29  C   UNL     1      38.294  -7.567   6.360  1.00  0.00     0.017 A 
HETATM   30  C   UNL     1      38.578  -7.901   7.677  1.00  0.00     0.005 A 
HETATM   31  C   UNL     1      39.183  -9.124   7.965  1.00  0.00     0.048 A 
ENDBRANCH  22  25
ENDBRANCH   1  18
BRANCH   1  32
HETATM   32  C   UNL     1      41.106 -13.449   2.656  1.00  0.00    -0.005 A 
HETATM   33  C   UNL     1      42.271 -13.074   1.998  1.00  0.00     0.125 A 
HETATM   34  N   UNL     1      42.320 -12.296   0.893  1.00  0.00    -0.273 NA
HETATM   35  C   UNL     1      41.155 -11.932   0.326  1.00  0.00     0.116 A 
HETATM   36  C   UNL     1      39.932 -12.308   0.836  1.00  0.00     0.020 A 
HETATM   37  C   UNL     1      39.913 -13.071   2.004  1.00  0.00     0.012 A 
ENDBRANCH   1  32
TORSDOF 6
ENDMDL
MODEL 9
REMARK VINA RESULT:      -7.7      4.004      8.464
REMARK  6 active torsions:
REMARK  status: ('A' for Active; 'I' for Inactive)
REMARK    1  A    between atoms: C_3  and  C_4 
REMARK    2  A    between atoms: C_4  and  N_5 
REMARK    3  A    between atoms: C_4  and  C_19 
REMARK    4  A    between atoms: N_9  and  C_10 
REMARK    5  A    between atoms: C_25  and  N_26 
REMARK       I    between atoms: N_26  and  C_27 
REMARK    6  A    between atoms: C_27  and  C_28 
ROOT
HETATM    1  C   UNL     1      41.619 -14.276   4.889  1.00  0.00     0.259 C 
ENDROOT
BRANCH   1   2
HETATM    2  C   UNL     1      40.892 -14.815   3.657  1.00  0.00     0.018 A 
HETATM    3  C   UNL     1      39.938 -13.983   2.902  1.00  0.00    -0.038 A 
HETATM    4  C   UNL     1      39.681 -12.518   3.133  1.00  0.00     0.050 C 
HETATM    5  C   UNL     1      39.262 -14.712   1.937  1.00  0.00    -0.013 A 
HETATM    6  S   UNL     1      39.761 -16.330   1.897  1.00  0.00    -0.076 SA
HETATM    7  C   UNL     1      38.200 -14.255   0.983  1.00  0.00     0.057 C 
HETATM    8  C   UNL     1      40.931 -16.096   3.105  1.00  0.00     0.086 A 
BRANCH   8   9
HETATM    9  N   UNL     1      41.815 -17.142   3.322  1.00  0.00    -0.315 N 
HETATM   10  C   UNL     1      43.013 -17.344   2.643  1.00  0.00     0.280 C 
HETATM   11  O   UNL     1      43.333 -16.775   1.607  1.00  0.00    -0.265 OA
HETATM   12  H   UNL     1      41.615 -17.852   4.012  1.00  0.00     0.170 HD
BRANCH  10  13
HETATM   13  C   UNL     1      43.766 -18.453   3.192  1.00  0.00     0.142 A 
HETATM   14  O   UNL     1      44.246 -19.415   2.335  1.00  0.00    -0.317 OA
HETATM   15  C   UNL     1      44.884 -20.341   3.096  1.00  0.00     0.143 A 
HETATM   16  C   UNL     1      44.871 -19.969   4.421  1.00  0.00     0.027 A 
HETATM   17  C   UNL     1      44.158 -18.747   4.482  1.00  0.00     0.045 A 
ENDBRANCH  10  13
ENDBRANCH   8   9
ENDBRANCH   1   2
BRANCH   1  18
HETATM   18  N   UNL     1      41.045 -12.974   5.526  1.00  0.00    -0.056 N 
HETATM   19  H   UNL     1      40.535 -12.551   4.738  1.00  0.00     0.281 HD
HETATM   20  C   UNL     1      40.017 -13.146   6.625  1.00  0.00     0.256 C 
HETATM   21  C   UNL     1      39.487 -11.796   7.175  1.00  0.00     0.152 C 
HETATM   22  N   UNL     1      40.575 -10.872   7.539  1.00  0.00    -0.364 N 
HETATM   23  C   UNL     1      41.549 -10.652   6.448  1.00  0.00     0.152 C 
HETATM   24  C   UNL     1      42.140 -11.984   5.932  1.00  0.00     0.256 C 
BRANCH  22  25
HETATM   25  C   UNL     1      40.928 -10.732   8.866  1.00  0.00     0.102 A 
HETATM   26  N   UNL     1      40.111 -11.249   9.805  1.00  0.00    -0.352 N 
HETATM   27  H   UNL     1      39.237 -11.663   9.493  1.00  0.00     0.166 HD
HETATM   28  C   UNL     1      40.337 -11.174  11.127  1.00  0.00     0.089 A 
HETATM   29  C   UNL     1      41.464 -10.526  11.602  1.00  0.00     0.017 A 
HETATM   30  C   UNL     1      42.330  -9.943  10.688  1.00  0.00     0.005 A 
HETATM   31  C   UNL     1      42.060 -10.037   9.322  1.00  0.00     0.048 A 
ENDBRANCH  22  25
ENDBRANCH   1  18
BRANCH   1  32
HETATM   32  C   UNL     1      42.053 -15.396   5.817  1.00  0.00    -0.005 A 
HETATM   33  C   UNL     1      41.232 -16.397   6.321  1.00  0.00     0.125 A 
HETATM   34  N   UNL     1      41.611 -17.327   7.226  1.00  0.00    -0.273 NA
HETATM   35  C   UNL     1      42.903 -17.352   7.601  1.00  0.00     0.116 A 
HETATM   36  C   UNL     1      43.836 -16.465   7.112  1.00  0.00     0.020 A 
HETATM   37  C   UNL     1      43.405 -15.487   6.215  1.00  0.00     0.012 A 
ENDBRANCH   1  32
TORSDOF 6
ENDMDL
MODEL 10
REMARK VINA RESULT:      -7.7      2.603      3.343
REMARK  6 active torsions:
REMARK  status: ('A' for Active; 'I' for Inactive)
REMARK    1  A    between atoms: C_3  and  C_4 
REMARK    2  A    between atoms: C_4  and  N_5 
REMARK    3  A    between atoms: C_4  and  C_19 
REMARK    4  A    between atoms: N_9  and  C_10 
REMARK    5  A    between atoms: C_25  and  N_26 
REMARK       I    between atoms: N_26  and  C_27 
REMARK    6  A    between atoms: C_27  and  C_28 
ROOT
HETATM    1  C   UNL     1      40.501 -13.304  -1.191  1.00  0.00     0.259 C 
ENDROOT
BRANCH   1   2
HETATM    2  C   UNL     1      40.530 -11.861  -1.694  1.00  0.00     0.018 A 
HETATM    3  C   UNL     1      41.626 -11.364  -2.544  1.00  0.00    -0.038 A 
HETATM    4  C   UNL     1      42.726 -12.205  -3.134  1.00  0.00     0.050 C 
HETATM    5  C   UNL     1      41.553  -9.994  -2.741  1.00  0.00    -0.013 A 
HETATM    6  S   UNL     1      40.209  -9.312  -1.969  1.00  0.00    -0.076 SA
HETATM    7  C   UNL     1      42.479  -9.103  -3.513  1.00  0.00     0.057 C 
HETATM    8  C   UNL     1      39.649 -10.815  -1.413  1.00  0.00     0.086 A 
BRANCH   8   9
HETATM    9  N   UNL     1      38.381 -10.835  -0.850  1.00  0.00    -0.315 N 
HETATM   10  C   UNL     1      38.100 -10.811   0.513  1.00  0.00     0.280 C 
HETATM   11  O   UNL     1      38.920 -11.013   1.399  1.00  0.00    -0.265 OA
HETATM   12  H   UNL     1      37.558 -10.882  -1.434  1.00  0.00     0.170 HD
BRANCH  10  13
HETATM   13  C   UNL     1      36.677 -10.713   0.769  1.00  0.00     0.142 A 
HETATM   14  O   UNL     1      36.230  -9.768   1.662  1.00  0.00    -0.317 OA
HETATM   15  C   UNL     1      34.880  -9.901   1.737  1.00  0.00     0.143 A 
HETATM   16  C   UNL     1      34.443 -10.877   0.871  1.00  0.00     0.027 A 
HETATM   17  C   UNL     1      35.600 -11.394   0.240  1.00  0.00     0.045 A 
ENDBRANCH  10  13
ENDBRANCH   8   9
ENDBRANCH   1   2
BRANCH   1  18
HETATM   18  N   UNL     1      40.234 -13.508   0.332  1.00  0.00    -0.056 N 
HETATM   19  H   UNL     1      39.672 -12.678   0.569  1.00  0.00     0.281 HD
HETATM   20  C   UNL     1      39.381 -14.697   0.724  1.00  0.00     0.256 C 
HETATM   21  C   UNL     1      39.150 -14.799   2.254  1.00  0.00     0.152 C 
HETATM   22  N   UNL     1      40.406 -14.710   3.019  1.00  0.00    -0.364 N 
HETATM   23  C   UNL     1      41.214 -13.517   2.685  1.00  0.00     0.152 C 
HETATM   24  C   UNL     1      41.513 -13.435   1.170  1.00  0.00     0.256 C 
BRANCH  22  25
HETATM   25  C   UNL     1      40.984 -15.864   3.507  1.00  0.00     0.102 A 
HETATM   26  N   UNL     1      40.762 -16.197   4.795  1.00  0.00    -0.352 N 
HETATM   27  H   UNL     1      40.230 -15.546   5.365  1.00  0.00     0.166 HD
HETATM   28  C   UNL     1      41.270 -17.288   5.390  1.00  0.00     0.089 A 
HETATM   29  C   UNL     1      42.089 -18.148   4.680  1.00  0.00     0.017 A 
HETATM   30  C   UNL     1      42.383 -17.845   3.359  1.00  0.00     0.005 A 
HETATM   31  C   UNL     1      41.840 -16.701   2.774  1.00  0.00     0.048 A 
ENDBRANCH  22  25
ENDBRANCH   1  18
BRANCH   1  32
HETATM   32  C   UNL     1      39.797 -14.225  -2.171  1.00  0.00    -0.005 A 
HETATM   33  C   UNL     1      38.503 -14.065  -2.648  1.00  0.00     0.125 A 
HETATM   34  N   UNL     1      37.855 -14.949  -3.441  1.00  0.00    -0.273 NA
HETATM   35  C   UNL     1      38.541 -16.019  -3.884  1.00  0.00     0.116 A 
HETATM   36  C   UNL     1      39.857 -16.248  -3.549  1.00  0.00     0.020 A 
HETATM   37  C   UNL     1      40.484 -15.344  -2.691  1.00  0.00     0.012 A 
ENDBRANCH   1  32
TORSDOF 6
ENDMDL
