MODEL 1
REMARK VINA RESULT:      -8.2      0.000      0.000
REMARK  4 active torsions:
REMARK  status: ('A' for Active; 'I' for Inactive)
REMARK    1  A    between atoms: S_2  and  N_3 
REMARK    2  A    between atoms: N_3  and  N_4 
REMARK    3  A    between atoms: C_10  and  C_11 
REMARK    4  A    between atoms: C_12  and  O_13 
ROOT
HETATM    1  N   UNL     1      42.071 -16.136   3.566  1.00  0.00    -0.224 N 
HETATM    2  C   UNL     1      42.917 -16.916   4.351  1.00  0.00     0.276 C 
HETATM    3  O   UNL     1      43.326 -16.624   5.469  1.00  0.00    -0.266 OA
HETATM    4  C   UNL     1      43.325 -18.202   3.735  1.00  0.00     0.055 A 
HETATM    5  C   UNL     1      42.880 -18.505   2.439  1.00  0.00     0.026 A 
HETATM    6  N   UNL     1      42.072 -17.606   1.710  1.00  0.00    -0.265 NA
HETATM    7  C   UNL     1      41.221 -16.787   2.579  1.00  0.00     0.224 C 
HETATM    8  C   UNL     1      44.178 -19.073   4.425  1.00  0.00     0.019 A 
HETATM    9  C   UNL     1      44.619 -20.241   3.808  1.00  0.00     0.001 A 
HETATM   10  C   UNL     1      44.225 -20.528   2.502  1.00  0.00     0.002 A 
HETATM   11  C   UNL     1      43.374 -19.657   1.816  1.00  0.00     0.024 A 
HETATM   12  H   UNL     1      41.519 -18.100   1.011  1.00  0.00     0.130 HD
ENDROOT
BRANCH   7  13
HETATM   13  C   UNL     1      40.421 -15.836   1.705  1.00  0.00     0.014 A 
HETATM   14  C   UNL     1      40.961 -15.220   0.565  1.00  0.00     0.075 A 
HETATM   15  C   UNL     1      40.220 -14.303  -0.177  1.00  0.00     0.037 A 
HETATM   16  C   UNL     1      38.920 -13.987   0.205  1.00  0.00     0.003 A 
HETATM   17  C   UNL     1      38.361 -14.586   1.331  1.00  0.00     0.001 A 
HETATM   18  C   UNL     1      39.106 -15.502   2.078  1.00  0.00     0.013 A 
BRANCH  14  19
HETATM   19  O   UNL     1      42.230 -15.472   0.127  1.00  0.00    -0.360 OA
HETATM   20  H   UNL     1      42.406 -16.435   0.192  1.00  0.00     0.217 HD
ENDBRANCH  14  19
ENDBRANCH   7  13
BRANCH   1  21
HETATM   21  N   UNL     1      41.722 -14.749   3.980  1.00  0.00    -0.220 N 
HETATM   22  H   UNL     1      40.741 -14.474   3.890  1.00  0.00     0.200 HD
BRANCH  21  23
HETATM   23  S   UNL     1      42.823 -13.487   3.637  1.00  0.00     0.240 S 
HETATM   24  C   UNL     1      41.889 -12.101   4.244  1.00  0.00     0.187 C 
HETATM   25  O   UNL     1      42.924 -13.321   2.204  1.00  0.00    -0.205 OA
HETATM   26  O   UNL     1      43.973 -13.624   4.504  1.00  0.00    -0.205 OA
ENDBRANCH  21  23
ENDBRANCH   1  21
TORSDOF 4
ENDMDL
MODEL 2
REMARK VINA RESULT:      -8.0      1.761      2.248
REMARK  4 active torsions:
REMARK  status: ('A' for Active; 'I' for Inactive)
REMARK    1  A    between atoms: S_2  and  N_3 
REMARK    2  A    between atoms: N_3  and  N_4 
REMARK    3  A    between atoms: C_10  and  C_11 
REMARK    4  A    between atoms: C_12  and  O_13 
ROOT
HETATM    1  N   UNL     1      43.190 -17.112   3.421  1.00  0.00    -0.224 N 
HETATM    2  C   UNL     1      43.912 -18.038   4.170  1.00  0.00     0.276 C 
HETATM    3  O   UNL     1      44.475 -17.814   5.235  1.00  0.00    -0.266 OA
HETATM    4  C   UNL     1      43.970 -19.400   3.584  1.00  0.00     0.055 A 
HETATM    5  C   UNL     1      43.354 -19.632   2.345  1.00  0.00     0.026 A 
HETATM    6  N   UNL     1      42.700 -18.597   1.643  1.00  0.00    -0.265 NA
HETATM    7  C   UNL     1      42.132 -17.585   2.539  1.00  0.00     0.224 C 
HETATM    8  C   UNL     1      44.670 -20.420   4.242  1.00  0.00     0.019 A 
HETATM    9  C   UNL     1      44.786 -21.674   3.647  1.00  0.00     0.001 A 
HETATM   10  C   UNL     1      44.222 -21.902   2.393  1.00  0.00     0.002 A 
HETATM   11  C   UNL     1      43.524 -20.883   1.739  1.00  0.00     0.024 A 
HETATM   12  H   UNL     1      41.991 -18.975   1.015  1.00  0.00     0.130 HD
ENDROOT
BRANCH   7  13
HETATM   13  C   UNL     1      41.485 -16.505   1.689  1.00  0.00     0.014 A 
HETATM   14  C   UNL     1      40.384 -15.754   2.129  1.00  0.00     0.075 A 
HETATM   15  C   UNL     1      39.772 -14.817   1.299  1.00  0.00     0.037 A 
HETATM   16  C   UNL     1      40.256 -14.608   0.010  1.00  0.00     0.003 A 
HETATM   17  C   UNL     1      41.347 -15.340  -0.449  1.00  0.00     0.001 A 
HETATM   18  C   UNL     1      41.957 -16.283   0.382  1.00  0.00     0.013 A 
BRANCH  14  19
HETATM   19  O   UNL     1      39.847 -15.902   3.376  1.00  0.00    -0.360 OA
HETATM   20  H   UNL     1      40.372 -15.374   4.015  1.00  0.00     0.217 HD
ENDBRANCH  14  19
ENDBRANCH   7  13
BRANCH   1  21
HETATM   21  N   UNL     1      43.193 -15.671   3.795  1.00  0.00    -0.220 N 
HETATM   22  H   UNL     1      43.994 -15.116   3.487  1.00  0.00     0.200 HD
BRANCH  21  23
HETATM   23  S   UNL     1      42.595 -15.220   5.332  1.00  0.00     0.240 S 
HETATM   24  C   UNL     1      41.912 -13.628   4.933  1.00  0.00     0.187 C 
HETATM   25  O   UNL     1      43.710 -14.980   6.223  1.00  0.00    -0.205 OA
HETATM   26  O   UNL     1      41.480 -16.078   5.669  1.00  0.00    -0.205 OA
ENDBRANCH  21  23
ENDBRANCH   1  21
TORSDOF 4
ENDMDL
MODEL 3
REMARK VINA RESULT:      -8.0      2.181      4.069
REMARK  4 active torsions:
REMARK  status: ('A' for Active; 'I' for Inactive)
REMARK    1  A    between atoms: S_2  and  N_3 
REMARK    2  A    between atoms: N_3  and  N_4 
REMARK    3  A    between atoms: C_10  and  C_11 
REMARK    4  A    between atoms: C_12  and  O_13 
ROOT
HETATM    1  N   UNL     1      43.127 -16.873   3.353  1.00  0.00    -0.224 N 
HETATM    2  C   UNL     1      43.802 -18.003   2.895  1.00  0.00     0.276 C 
HETATM    3  O   UNL     1      44.179 -18.193   1.744  1.00  0.00    -0.266 OA
HETATM    4  C   UNL     1      44.062 -19.033   3.930  1.00  0.00     0.055 A 
HETATM    5  C   UNL     1      43.590 -18.818   5.234  1.00  0.00     0.026 A 
HETATM    6  N   UNL     1      42.861 -17.657   5.570  1.00  0.00    -0.265 NA
HETATM    7  C   UNL     1      43.243 -16.500   4.756  1.00  0.00     0.224 C 
HETATM    8  C   UNL     1      44.730 -20.217   3.592  1.00  0.00     0.019 A 
HETATM    9  C   UNL     1      44.901 -21.212   4.551  1.00  0.00     0.001 A 
HETATM   10  C   UNL     1      44.391 -21.032   5.836  1.00  0.00     0.002 A 
HETATM   11  C   UNL     1      43.725 -19.849   6.171  1.00  0.00     0.024 A 
HETATM   12  H   UNL     1      42.943 -17.453   6.566  1.00  0.00     0.130 HD
ENDROOT
BRANCH   7  13
HETATM   13  C   UNL     1      42.383 -15.319   5.171  1.00  0.00     0.014 A 
HETATM   14  C   UNL     1      40.989 -15.410   5.314  1.00  0.00     0.075 A 
HETATM   15  C   UNL     1      40.223 -14.291   5.633  1.00  0.00     0.037 A 
HETATM   16  C   UNL     1      40.838 -13.057   5.820  1.00  0.00     0.003 A 
HETATM   17  C   UNL     1      42.219 -12.941   5.684  1.00  0.00     0.001 A 
HETATM   18  C   UNL     1      42.987 -14.062   5.360  1.00  0.00     0.013 A 
BRANCH  14  19
HETATM   19  O   UNL     1      40.310 -16.583   5.142  1.00  0.00    -0.360 OA
HETATM   20  H   UNL     1      40.823 -17.164   4.541  1.00  0.00     0.217 HD
ENDBRANCH  14  19
ENDBRANCH   7  13
BRANCH   1  21
HETATM   21  N   UNL     1      42.647 -15.840   2.395  1.00  0.00    -0.220 N 
HETATM   22  H   UNL     1      42.761 -14.863   2.674  1.00  0.00     0.200 HD
BRANCH  21  23
HETATM   23  S   UNL     1      41.213 -16.140   1.514  1.00  0.00     0.240 S 
HETATM   24  C   UNL     1      40.428 -14.552   1.669  1.00  0.00     0.187 C 
HETATM   25  O   UNL     1      40.393 -17.079   2.248  1.00  0.00    -0.205 OA
HETATM   26  O   UNL     1      41.549 -16.303   0.116  1.00  0.00    -0.205 OA
ENDBRANCH  21  23
ENDBRANCH   1  21
TORSDOF 4
ENDMDL
MODEL 4
REMARK VINA RESULT:      -7.4      2.164      2.514
REMARK  4 active torsions:
REMARK  status: ('A' for Active; 'I' for Inactive)
REMARK    1  A    between atoms: S_2  and  N_3 
REMARK    2  A    between atoms: N_3  and  N_4 
REMARK    3  A    between atoms: C_10  and  C_11 
REMARK    4  A    between atoms: C_12  and  O_13 
ROOT
HETATM    1  N   UNL     1      42.857 -16.130   5.369  1.00  0.00    -0.224 N 
HETATM    2  C   UNL     1      43.491 -17.297   5.790  1.00  0.00     0.276 C 
HETATM    3  O   UNL     1      43.795 -17.569   6.946  1.00  0.00    -0.266 OA
HETATM    4  C   UNL     1      43.801 -18.261   4.706  1.00  0.00     0.055 A 
HETATM    5  C   UNL     1      43.483 -17.918   3.383  1.00  0.00     0.026 A 
HETATM    6  N   UNL     1      42.895 -16.675   3.066  1.00  0.00    -0.265 NA
HETATM    7  C   UNL     1      42.058 -16.158   4.152  1.00  0.00     0.224 C 
HETATM    8  C   UNL     1      44.442 -19.470   5.002  1.00  0.00     0.019 A 
HETATM    9  C   UNL     1      44.800 -20.334   3.969  1.00  0.00     0.001 A 
HETATM   10  C   UNL     1      44.535 -19.982   2.647  1.00  0.00     0.002 A 
HETATM   11  C   UNL     1      43.895 -18.774   2.354  1.00  0.00     0.024 A 
HETATM   12  H   UNL     1      42.373 -16.733   2.192  1.00  0.00     0.130 HD
ENDROOT
BRANCH   7  13
HETATM   13  C   UNL     1      41.502 -14.810   3.727  1.00  0.00     0.014 A 
HETATM   14  C   UNL     1      42.305 -13.798   3.181  1.00  0.00     0.075 A 
HETATM   15  C   UNL     1      41.776 -12.550   2.862  1.00  0.00     0.037 A 
HETATM   16  C   UNL     1      40.425 -12.291   3.080  1.00  0.00     0.003 A 
HETATM   17  C   UNL     1      39.607 -13.279   3.620  1.00  0.00     0.001 A 
HETATM   18  C   UNL     1      40.140 -14.529   3.944  1.00  0.00     0.013 A 
BRANCH  14  19
HETATM   19  O   UNL     1      43.639 -13.970   2.941  1.00  0.00    -0.360 OA
HETATM   20  H   UNL     1      43.756 -14.705   2.301  1.00  0.00     0.217 HD
ENDBRANCH  14  19
ENDBRANCH   7  13
BRANCH   1  21
HETATM   21  N   UNL     1      42.643 -15.003   6.317  1.00  0.00    -0.220 N 
HETATM   22  H   UNL     1      41.739 -14.529   6.273  1.00  0.00     0.200 HD
BRANCH  21  23
HETATM   23  S   UNL     1      43.951 -13.957   6.659  1.00  0.00     0.240 S 
HETATM   24  C   UNL     1      43.063 -12.437   6.911  1.00  0.00     0.187 C 
HETATM   25  O   UNL     1      44.742 -13.778   5.461  1.00  0.00    -0.205 OA
HETATM   26  O   UNL     1      44.520 -14.322   7.938  1.00  0.00    -0.205 OA
ENDBRANCH  21  23
ENDBRANCH   1  21
TORSDOF 4
ENDMDL
MODEL 5
REMARK VINA RESULT:      -7.4      2.161      3.957
REMARK  4 active torsions:
REMARK  status: ('A' for Active; 'I' for Inactive)
REMARK    1  A    between atoms: S_2  and  N_3 
REMARK    2  A    between atoms: N_3  and  N_4 
REMARK    3  A    between atoms: C_10  and  C_11 
REMARK    4  A    between atoms: C_12  and  O_13 
ROOT
HETATM    1  N   UNL     1      40.998 -16.081   2.959  1.00  0.00    -0.224 N 
HETATM    2  C   UNL     1      41.331 -17.201   2.199  1.00  0.00     0.276 C 
HETATM    3  O   UNL     1      40.784 -17.546   1.157  1.00  0.00    -0.266 OA
HETATM    4  C   UNL     1      42.453 -18.007   2.739  1.00  0.00     0.055 A 
HETATM    5  C   UNL     1      43.043 -17.620   3.952  1.00  0.00     0.026 A 
HETATM    6  N   UNL     1      42.579 -16.497   4.670  1.00  0.00    -0.265 NA
HETATM    7  C   UNL     1      42.018 -15.465   3.795  1.00  0.00     0.224 C 
HETATM    8  C   UNL     1      42.879 -19.159   2.066  1.00  0.00     0.019 A 
HETATM    9  C   UNL     1      43.879 -19.953   2.621  1.00  0.00     0.001 A 
HETATM   10  C   UNL     1      44.438 -19.608   3.850  1.00  0.00     0.002 A 
HETATM   11  C   UNL     1      44.011 -18.457   4.520  1.00  0.00     0.024 A 
HETATM   12  H   UNL     1      43.315 -16.118   5.265  1.00  0.00     0.130 HD
ENDROOT
BRANCH   7  13
HETATM   13  C   UNL     1      41.521 -14.321   4.662  1.00  0.00     0.014 A 
HETATM   14  C   UNL     1      40.474 -14.470   5.585  1.00  0.00     0.075 A 
HETATM   15  C   UNL     1      39.999 -13.385   6.318  1.00  0.00     0.037 A 
HETATM   16  C   UNL     1      40.567 -12.127   6.145  1.00  0.00     0.003 A 
HETATM   17  C   UNL     1      41.608 -11.953   5.237  1.00  0.00     0.001 A 
HETATM   18  C   UNL     1      42.081 -13.040   4.498  1.00  0.00     0.013 A 
BRANCH  14  19
HETATM   19  O   UNL     1      39.860 -15.670   5.809  1.00  0.00    -0.360 OA
HETATM   20  H   UNL     1      40.233 -16.339   5.196  1.00  0.00     0.217 HD
ENDBRANCH  14  19
ENDBRANCH   7  13
BRANCH   1  21
HETATM   21  N   UNL     1      39.786 -15.281   2.633  1.00  0.00    -0.220 N 
HETATM   22  H   UNL     1      38.887 -15.766   2.679  1.00  0.00     0.200 HD
BRANCH  21  23
HETATM   23  S   UNL     1      39.878 -14.121   1.381  1.00  0.00     0.240 S 
HETATM   24  C   UNL     1      39.231 -12.703   2.236  1.00  0.00     0.187 C 
HETATM   25  O   UNL     1      38.918 -14.457   0.352  1.00  0.00    -0.205 OA
HETATM   26  O   UNL     1      41.270 -13.841   1.106  1.00  0.00    -0.205 OA
ENDBRANCH  21  23
ENDBRANCH   1  21
TORSDOF 4
ENDMDL
MODEL 6
REMARK VINA RESULT:      -7.1      1.981      5.726
REMARK  4 active torsions:
REMARK  status: ('A' for Active; 'I' for Inactive)
REMARK    1  A    between atoms: S_2  and  N_3 
REMARK    2  A    between atoms: N_3  and  N_4 
REMARK    3  A    between atoms: C_10  and  C_11 
REMARK    4  A    between atoms: C_12  and  O_13 
ROOT
HETATM    1  N   UNL     1      41.607 -14.107   2.959  1.00  0.00    -0.224 N 
HETATM    2  C   UNL     1      40.896 -12.910   2.890  1.00  0.00     0.276 C 
HETATM    3  O   UNL     1      41.223 -11.853   3.418  1.00  0.00    -0.266 OA
HETATM    4  C   UNL     1      39.646 -12.975   2.093  1.00  0.00     0.055 A 
HETATM    5  C   UNL     1      39.266 -14.201   1.527  1.00  0.00     0.026 A 
HETATM    6  N   UNL     1      40.036 -15.369   1.716  1.00  0.00    -0.265 NA
HETATM    7  C   UNL     1      41.463 -15.078   1.884  1.00  0.00     0.224 C 
HETATM    8  C   UNL     1      38.842 -11.837   1.952  1.00  0.00     0.019 A 
HETATM    9  C   UNL     1      37.632 -11.926   1.269  1.00  0.00     0.001 A 
HETATM   10  C   UNL     1      37.219 -13.151   0.746  1.00  0.00     0.002 A 
HETATM   11  C   UNL     1      38.023 -14.285   0.888  1.00  0.00     0.024 A 
HETATM   12  H   UNL     1      39.880 -16.033   0.959  1.00  0.00     0.130 HD
ENDROOT
BRANCH   7  13
HETATM   13  C   UNL     1      42.194 -16.390   2.112  1.00  0.00     0.014 A 
HETATM   14  C   UNL     1      41.791 -17.323   3.080  1.00  0.00     0.075 A 
HETATM   15  C   UNL     1      42.522 -18.486   3.308  1.00  0.00     0.037 A 
HETATM   16  C   UNL     1      43.673 -18.742   2.568  1.00  0.00     0.003 A 
HETATM   17  C   UNL     1      44.093 -17.832   1.602  1.00  0.00     0.001 A 
HETATM   18  C   UNL     1      43.362 -16.663   1.376  1.00  0.00     0.013 A 
BRANCH  14  19
HETATM   19  O   UNL     1      40.677 -17.144   3.851  1.00  0.00    -0.360 OA
HETATM   20  H   UNL     1      40.498 -16.184   3.936  1.00  0.00     0.217 HD
ENDBRANCH  14  19
ENDBRANCH   7  13
BRANCH   1  21
HETATM   21  N   UNL     1      42.783 -14.236   3.862  1.00  0.00    -0.220 N 
HETATM   22  H   UNL     1      43.581 -14.765   3.507  1.00  0.00     0.200 HD
BRANCH  21  23
HETATM   23  S   UNL     1      42.514 -14.441   5.538  1.00  0.00     0.240 S 
HETATM   24  C   UNL     1      43.629 -15.787   5.859  1.00  0.00     0.187 C 
HETATM   25  O   UNL     1      41.177 -14.954   5.745  1.00  0.00    -0.205 OA
HETATM   26  O   UNL     1      43.039 -13.290   6.239  1.00  0.00    -0.205 OA
ENDBRANCH  21  23
ENDBRANCH   1  21
TORSDOF 4
ENDMDL
MODEL 7
REMARK VINA RESULT:      -7.1      2.426      5.359
REMARK  4 active torsions:
REMARK  status: ('A' for Active; 'I' for Inactive)
REMARK    1  A    between atoms: S_2  and  N_3 
REMARK    2  A    between atoms: N_3  and  N_4 
REMARK    3  A    between atoms: C_10  and  C_11 
REMARK    4  A    between atoms: C_12  and  O_13 
ROOT
HETATM    1  N   UNL     1      42.222 -14.222   1.661  1.00  0.00    -0.224 N 
HETATM    2  C   UNL     1      42.152 -13.305   0.614  1.00  0.00     0.276 C 
HETATM    3  O   UNL     1      42.420 -12.111   0.689  1.00  0.00    -0.266 OA
HETATM    4  C   UNL     1      41.714 -13.876  -0.684  1.00  0.00     0.055 A 
HETATM    5  C   UNL     1      41.374 -15.236  -0.745  1.00  0.00     0.026 A 
HETATM    6  N   UNL     1      41.424 -16.060   0.400  1.00  0.00    -0.265 NA
HETATM    7  C   UNL     1      42.447 -15.627   1.357  1.00  0.00     0.224 C 
HETATM    8  C   UNL     1      41.601 -13.054  -1.812  1.00  0.00     0.019 A 
HETATM    9  C   UNL     1      41.114 -13.582  -3.005  1.00  0.00     0.001 A 
HETATM   10  C   UNL     1      40.725 -14.919  -3.065  1.00  0.00     0.002 A 
HETATM   11  C   UNL     1      40.839 -15.737  -1.938  1.00  0.00     0.024 A 
HETATM   12  H   UNL     1      41.550 -17.037   0.139  1.00  0.00     0.130 HD
ENDROOT
BRANCH   7  13
HETATM   13  C   UNL     1      42.397 -16.553   2.560  1.00  0.00     0.014 A 
HETATM   14  C   UNL     1      41.203 -16.853   3.235  1.00  0.00     0.075 A 
HETATM   15  C   UNL     1      41.201 -17.653   4.375  1.00  0.00     0.037 A 
HETATM   16  C   UNL     1      42.397 -18.175   4.861  1.00  0.00     0.003 A 
HETATM   17  C   UNL     1      43.594 -17.892   4.209  1.00  0.00     0.001 A 
HETATM   18  C   UNL     1      43.596 -17.085   3.069  1.00  0.00     0.013 A 
BRANCH  14  19
HETATM   19  O   UNL     1      39.990 -16.377   2.826  1.00  0.00    -0.360 OA
HETATM   20  H   UNL     1      39.848 -15.487   3.214  1.00  0.00     0.217 HD
ENDBRANCH  14  19
ENDBRANCH   7  13
BRANCH   1  21
HETATM   21  N   UNL     1      42.477 -13.760   3.053  1.00  0.00    -0.220 N 
HETATM   22  H   UNL     1      43.100 -14.336   3.622  1.00  0.00     0.200 HD
BRANCH  21  23
HETATM   23  S   UNL     1      41.192 -13.060   3.935  1.00  0.00     0.240 S 
HETATM   24  C   UNL     1      41.398 -13.902   5.487  1.00  0.00     0.187 C 
HETATM   25  O   UNL     1      39.934 -13.514   3.383  1.00  0.00    -0.205 OA
HETATM   26  O   UNL     1      41.495 -11.666   4.176  1.00  0.00    -0.205 OA
ENDBRANCH  21  23
ENDBRANCH   1  21
TORSDOF 4
ENDMDL
MODEL 8
REMARK VINA RESULT:      -6.9      2.325      6.227
REMARK  4 active torsions:
REMARK  status: ('A' for Active; 'I' for Inactive)
REMARK    1  A    between atoms: S_2  and  N_3 
REMARK    2  A    between atoms: N_3  and  N_4 
REMARK    3  A    between atoms: C_10  and  C_11 
REMARK    4  A    between atoms: C_12  and  O_13 
ROOT
HETATM    1  N   UNL     1      41.151 -16.520   3.496  1.00  0.00    -0.224 N 
HETATM    2  C   UNL     1      40.290 -16.281   2.427  1.00  0.00     0.276 C 
HETATM    3  O   UNL     1      40.019 -17.077   1.535  1.00  0.00    -0.266 OA
HETATM    4  C   UNL     1      39.672 -14.932   2.416  1.00  0.00     0.055 A 
HETATM    5  C   UNL     1      40.021 -14.019   3.423  1.00  0.00     0.026 A 
HETATM    6  N   UNL     1      40.956 -14.351   4.426  1.00  0.00    -0.265 NA
HETATM    7  C   UNL     1      40.958 -15.783   4.738  1.00  0.00     0.224 C 
HETATM    8  C   UNL     1      38.790 -14.570   1.390  1.00  0.00     0.019 A 
HETATM    9  C   UNL     1      38.276 -13.277   1.344  1.00  0.00     0.001 A 
HETATM   10  C   UNL     1      38.655 -12.345   2.309  1.00  0.00     0.002 A 
HETATM   11  C   UNL     1      39.535 -12.709   3.333  1.00  0.00     0.024 A 
HETATM   12  H   UNL     1      40.805 -13.790   5.263  1.00  0.00     0.130 HD
ENDROOT
BRANCH   7  13
HETATM   13  C   UNL     1      42.015 -16.040   5.798  1.00  0.00     0.014 A 
HETATM   14  C   UNL     1      43.265 -15.401   5.791  1.00  0.00     0.075 A 
HETATM   15  C   UNL     1      44.237 -15.708   6.741  1.00  0.00     0.037 A 
HETATM   16  C   UNL     1      43.974 -16.660   7.722  1.00  0.00     0.003 A 
HETATM   17  C   UNL     1      42.741 -17.306   7.751  1.00  0.00     0.001 A 
HETATM   18  C   UNL     1      41.769 -17.002   6.795  1.00  0.00     0.013 A 
BRANCH  14  19
HETATM   19  O   UNL     1      43.603 -14.460   4.859  1.00  0.00    -0.360 OA
HETATM   20  H   UNL     1      44.580 -14.405   4.801  1.00  0.00     0.217 HD
ENDBRANCH  14  19
ENDBRANCH   7  13
BRANCH   1  21
HETATM   21  N   UNL     1      41.972 -17.760   3.542  1.00  0.00    -0.220 N 
HETATM   22  H   UNL     1      41.820 -18.384   4.337  1.00  0.00     0.200 HD
BRANCH  21  23
HETATM   23  S   UNL     1      43.601 -17.686   3.028  1.00  0.00     0.240 S 
HETATM   24  C   UNL     1      43.538 -18.830   1.668  1.00  0.00     0.187 C 
HETATM   25  O   UNL     1      44.445 -18.289   4.036  1.00  0.00    -0.205 OA
HETATM   26  O   UNL     1      43.852 -16.380   2.460  1.00  0.00    -0.205 OA
ENDBRANCH  21  23
ENDBRANCH   1  21
TORSDOF 4
ENDMDL
MODEL 9
REMARK VINA RESULT:      -6.9      2.247      4.103
REMARK  4 active torsions:
REMARK  status: ('A' for Active; 'I' for Inactive)
REMARK    1  A    between atoms: S_2  and  N_3 
REMARK    2  A    between atoms: N_3  and  N_4 
REMARK    3  A    between atoms: C_10  and  C_11 
REMARK    4  A    between atoms: C_12  and  O_13 
ROOT
HETATM    1  N   UNL     1      41.622 -16.241   4.333  1.00  0.00    -0.224 N 
HETATM    2  C   UNL     1      42.163 -17.517   4.474  1.00  0.00     0.276 C 
HETATM    3  O   UNL     1      42.135 -18.403   3.628  1.00  0.00    -0.266 OA
HETATM    4  C   UNL     1      42.822 -17.771   5.779  1.00  0.00     0.055 A 
HETATM    5  C   UNL     1      42.813 -16.760   6.752  1.00  0.00     0.026 A 
HETATM    6  N   UNL     1      42.176 -15.522   6.519  1.00  0.00    -0.265 NA
HETATM    7  C   UNL     1      42.188 -15.143   5.104  1.00  0.00     0.224 C 
HETATM    8  C   UNL     1      43.402 -19.019   6.043  1.00  0.00     0.019 A 
HETATM    9  C   UNL     1      43.948 -19.275   7.298  1.00  0.00     0.001 A 
HETATM   10  C   UNL     1      43.899 -18.296   8.289  1.00  0.00     0.002 A 
HETATM   11  C   UNL     1      43.320 -17.052   8.023  1.00  0.00     0.024 A 
HETATM   12  H   UNL     1      42.582 -14.790   7.102  1.00  0.00     0.130 HD
ENDROOT
BRANCH   7  13
HETATM   13  C   UNL     1      41.455 -13.821   4.957  1.00  0.00     0.014 A 
HETATM   14  C   UNL     1      41.954 -12.759   4.187  1.00  0.00     0.075 A 
HETATM   15  C   UNL     1      41.288 -11.537   4.126  1.00  0.00     0.037 A 
HETATM   16  C   UNL     1      40.104 -11.354   4.834  1.00  0.00     0.003 A 
HETATM   17  C   UNL     1      39.588 -12.392   5.605  1.00  0.00     0.001 A 
HETATM   18  C   UNL     1      40.258 -13.616   5.669  1.00  0.00     0.013 A 
BRANCH  14  19
HETATM   19  O   UNL     1      43.111 -12.856   3.467  1.00  0.00    -0.360 OA
HETATM   20  H   UNL     1      43.113 -12.166   2.770  1.00  0.00     0.217 HD
ENDBRANCH  14  19
ENDBRANCH   7  13
BRANCH   1  21
HETATM   21  N   UNL     1      40.783 -15.903   3.151  1.00  0.00    -0.220 N 
HETATM   22  H   UNL     1      39.860 -16.338   3.102  1.00  0.00     0.200 HD
BRANCH  21  23
HETATM   23  S   UNL     1      41.541 -15.725   1.629  1.00  0.00     0.240 S 
HETATM   24  C   UNL     1      40.665 -14.302   1.022  1.00  0.00     0.187 C 
HETATM   25  O   UNL     1      41.166 -16.834   0.779  1.00  0.00    -0.205 OA
HETATM   26  O   UNL     1      42.912 -15.311   1.836  1.00  0.00    -0.205 OA
ENDBRANCH  21  23
ENDBRANCH   1  21
TORSDOF 4
ENDMDL
MODEL 10
REMARK VINA RESULT:      -6.9      2.149      5.765
REMARK  4 active torsions:
REMARK  status: ('A' for Active; 'I' for Inactive)
REMARK    1  A    between atoms: S_2  and  N_3 
REMARK    2  A    between atoms: N_3  and  N_4 
REMARK    3  A    between atoms: C_10  and  C_11 
REMARK    4  A    between atoms: C_12  and  O_13 
ROOT
HETATM    1  N   UNL     1      41.217 -14.729   1.208  1.00  0.00    -0.224 N 
HETATM    2  C   UNL     1      40.672 -13.574   0.651  1.00  0.00     0.276 C 
HETATM    3  O   UNL     1      40.266 -12.601   1.277  1.00  0.00    -0.266 OA
HETATM    4  C   UNL     1      40.602 -13.571  -0.831  1.00  0.00     0.055 A 
HETATM    5  C   UNL     1      41.035 -14.707  -1.532  1.00  0.00     0.026 A 
HETATM    6  N   UNL     1      41.514 -15.850  -0.856  1.00  0.00    -0.265 NA
HETATM    7  C   UNL     1      42.153 -15.520   0.421  1.00  0.00     0.224 C 
HETATM    8  C   UNL     1      40.070 -12.467  -1.508  1.00  0.00     0.019 A 
HETATM    9  C   UNL     1      39.937 -12.505  -2.894  1.00  0.00     0.001 A 
HETATM   10  C   UNL     1      40.315 -13.648  -3.597  1.00  0.00     0.002 A 
HETATM   11  C   UNL     1      40.846 -14.748  -2.918  1.00  0.00     0.024 A 
HETATM   12  H   UNL     1      42.139 -16.390  -1.454  1.00  0.00     0.130 HD
ENDROOT
BRANCH   7  13
HETATM   13  C   UNL     1      42.601 -16.813   1.080  1.00  0.00     0.014 A 
HETATM   14  C   UNL     1      41.709 -17.846   1.404  1.00  0.00     0.075 A 
HETATM   15  C   UNL     1      42.142 -18.992   2.068  1.00  0.00     0.037 A 
HETATM   16  C   UNL     1      43.483 -19.128   2.416  1.00  0.00     0.003 A 
HETATM   17  C   UNL     1      44.388 -18.117   2.105  1.00  0.00     0.001 A 
HETATM   18  C   UNL     1      43.952 -16.967   1.444  1.00  0.00     0.013 A 
BRANCH  14  19
HETATM   19  O   UNL     1      40.377 -17.787   1.101  1.00  0.00    -0.360 OA
HETATM   20  H   UNL     1      39.858 -17.850   1.931  1.00  0.00     0.217 HD
ENDBRANCH  14  19
ENDBRANCH   7  13
BRANCH   1  21
HETATM   21  N   UNL     1      41.189 -14.944   2.680  1.00  0.00    -0.220 N 
HETATM   22  H   UNL     1      40.271 -15.076   3.109  1.00  0.00     0.200 HD
BRANCH  21  23
HETATM   23  S   UNL     1      42.285 -14.070   3.659  1.00  0.00     0.240 S 
HETATM   24  C   UNL     1      42.941 -15.402   4.637  1.00  0.00     0.187 C 
HETATM   25  O   UNL     1      41.541 -13.221   4.564  1.00  0.00    -0.205 OA
HETATM   26  O   UNL     1      43.370 -13.590   2.831  1.00  0.00    -0.205 OA
ENDBRANCH  21  23
ENDBRANCH   1  21
TORSDOF 4
ENDMDL
