MODEL 1
REMARK VINA RESULT:      -7.9      0.000      0.000
REMARK  5 active torsions:
REMARK  status: ('A' for Active; 'I' for Inactive)
REMARK    1  A    between atoms: C_6  and  C_7 
REMARK    2  A    between atoms: N_10  and  C_12 
REMARK    3  A    between atoms: C_12  and  C_13 
REMARK    4  A    between atoms: C_14  and  N_15 
REMARK    5  A    between atoms: N_15  and  C_16 
ROOT
HETATM    1  C   UNL     1      40.236 -14.721   3.297  1.00  0.00    -0.006 A 
HETATM    2  C   UNL     1      39.483 -13.836   2.489  1.00  0.00     0.038 A 
HETATM    3  C   UNL     1      39.122 -12.582   3.022  1.00  0.00     0.030 A 
HETATM    4  C   UNL     1      39.568 -12.169   4.276  1.00  0.00     0.002 A 
HETATM    5  C   UNL     1      40.393 -12.997   5.021  1.00  0.00     0.001 A 
HETATM    6  C   UNL     1      40.731 -14.260   4.536  1.00  0.00     0.011 A 
ENDROOT
BRANCH   1   7
HETATM    7  C   UNL     1      40.507 -16.140   2.843  1.00  0.00     0.275 C 
BRANCH   7   8
HETATM    8  N   UNL     1      41.877 -16.711   3.205  1.00  0.00    -0.067 N 
HETATM    9  C   UNL     1      41.803 -17.851   4.192  1.00  0.00     0.236 C 
HETATM   10  C   UNL     1      43.212 -18.263   4.608  1.00  0.00     0.038 C 
HETATM   11  C   UNL     1      44.165 -18.554   3.437  1.00  0.00     0.040 C 
HETATM   12  C   UNL     1      44.071 -17.462   2.361  1.00  0.00     0.038 C 
HETATM   13  C   UNL     1      42.639 -17.129   1.970  1.00  0.00     0.236 C 
HETATM   14  H   UNL     1      42.403 -15.947   3.640  1.00  0.00     0.280 HD
BRANCH  11  15
HETATM   15  C   UNL     1      43.993 -19.929   2.844  1.00  0.00     0.035 A 
HETATM   16  N   UNL     1      44.463 -21.076   3.463  1.00  0.00    -0.278 N 
HETATM   17  C   UNL     1      45.104 -21.202   4.754  1.00  0.00     0.179 C 
HETATM   18  N   UNL     1      44.274 -22.185   2.731  1.00  0.00    -0.185 NA
HETATM   19  C   UNL     1      43.562 -21.777   1.687  1.00  0.00     0.141 A 
HETATM   20  C   UNL     1      43.360 -20.387   1.702  1.00  0.00     0.048 A 
ENDBRANCH  11  15
ENDBRANCH   7   8
ENDBRANCH   1   7
BRANCH   2  21
HETATM   21  N   UNL     1      39.128 -14.184   1.164  1.00  0.00    -0.380 N 
HETATM   22  C   UNL     1      37.684 -14.351   0.969  1.00  0.00     0.150 C 
BRANCH  21  23
HETATM   23  C   UNL     1      39.986 -13.571   0.104  1.00  0.00     0.087 C 
HETATM   24  C   UNL     1      39.249 -13.016  -1.125  1.00  0.00     0.053 C 
HETATM   25  C   UNL     1      38.915 -14.067  -2.164  1.00  0.00     0.236 C 
HETATM   26  N   UNL     1      40.180 -14.766  -2.587  1.00  0.00    -0.075 N 
HETATM   27  H   UNL     1      40.824 -14.058  -2.969  1.00  0.00     0.279 HD
HETATM   28  C   UNL     1      39.925 -15.723  -3.730  1.00  0.00     0.269 C 
HETATM   29  C   UNL     1      40.865 -15.448  -1.434  1.00  0.00     0.236 C 
HETATM   30  C   UNL     1      41.172 -14.452  -0.322  1.00  0.00     0.053 C 
ENDBRANCH  21  23
ENDBRANCH   2  21
TORSDOF 5
ENDMDL
MODEL 2
REMARK VINA RESULT:      -7.8      2.460      7.306
REMARK  5 active torsions:
REMARK  status: ('A' for Active; 'I' for Inactive)
REMARK    1  A    between atoms: C_6  and  C_7 
REMARK    2  A    between atoms: N_10  and  C_12 
REMARK    3  A    between atoms: C_12  and  C_13 
REMARK    4  A    between atoms: C_14  and  N_15 
REMARK    5  A    between atoms: N_15  and  C_16 
ROOT
HETATM    1  C   UNL     1      41.705 -17.399   2.692  1.00  0.00    -0.006 A 
HETATM    2  C   UNL     1      42.488 -17.183   3.851  1.00  0.00     0.038 A 
HETATM    3  C   UNL     1      43.605 -18.015   4.072  1.00  0.00     0.030 A 
HETATM    4  C   UNL     1      43.997 -18.970   3.136  1.00  0.00     0.002 A 
HETATM    5  C   UNL     1      43.288 -19.107   1.952  1.00  0.00     0.001 A 
HETATM    6  C   UNL     1      42.156 -18.325   1.727  1.00  0.00     0.011 A 
ENDROOT
BRANCH   1   7
HETATM    7  C   UNL     1      40.405 -16.650   2.489  1.00  0.00     0.275 C 
BRANCH   7   8
HETATM    8  N   UNL     1      40.248 -15.927   1.152  1.00  0.00    -0.067 N 
HETATM    9  C   UNL     1      39.461 -14.642   1.262  1.00  0.00     0.236 C 
HETATM   10  C   UNL     1      39.228 -14.062  -0.130  1.00  0.00     0.038 C 
HETATM   11  C   UNL     1      40.499 -13.908  -0.980  1.00  0.00     0.040 C 
HETATM   12  C   UNL     1      41.367 -15.172  -0.914  1.00  0.00     0.038 C 
HETATM   13  C   UNL     1      41.589 -15.672   0.506  1.00  0.00     0.236 C 
HETATM   14  H   UNL     1      39.732 -16.563   0.538  1.00  0.00     0.280 HD
BRANCH  11  15
HETATM   15  C   UNL     1      41.297 -12.672  -0.656  1.00  0.00     0.035 A 
HETATM   16  N   UNL     1      42.366 -12.247  -1.427  1.00  0.00    -0.278 N 
HETATM   17  C   UNL     1      42.865 -12.813  -2.662  1.00  0.00     0.179 C 
HETATM   18  N   UNL     1      42.987 -11.170  -0.921  1.00  0.00    -0.185 NA
HETATM   19  C   UNL     1      42.239 -10.812   0.116  1.00  0.00     0.141 A 
HETATM   20  C   UNL     1      41.178 -11.709   0.331  1.00  0.00     0.048 A 
ENDBRANCH  11  15
ENDBRANCH   7   8
ENDBRANCH   1   7
BRANCH   2  21
HETATM   21  N   UNL     1      42.184 -16.135   4.751  1.00  0.00    -0.380 N 
HETATM   22  C   UNL     1      41.560 -16.595   5.996  1.00  0.00     0.150 C 
BRANCH  21  23
HETATM   23  C   UNL     1      43.159 -15.001   4.747  1.00  0.00     0.087 C 
HETATM   24  C   UNL     1      43.059 -14.020   5.925  1.00  0.00     0.053 C 
HETATM   25  C   UNL     1      41.995 -12.956   5.747  1.00  0.00     0.236 C 
HETATM   26  N   UNL     1      42.254 -12.207   4.466  1.00  0.00    -0.075 N 
HETATM   27  H   UNL     1      43.193 -11.787   4.526  1.00  0.00     0.279 HD
HETATM   28  C   UNL     1      41.309 -11.036   4.312  1.00  0.00     0.269 C 
HETATM   29  C   UNL     1      42.219 -13.110   3.263  1.00  0.00     0.236 C 
HETATM   30  C   UNL     1      43.227 -14.244   3.411  1.00  0.00     0.053 C 
ENDBRANCH  21  23
ENDBRANCH   2  21
TORSDOF 5
ENDMDL
MODEL 3
REMARK VINA RESULT:      -7.6      2.315      7.516
REMARK  5 active torsions:
REMARK  status: ('A' for Active; 'I' for Inactive)
REMARK    1  A    between atoms: C_6  and  C_7 
REMARK    2  A    between atoms: N_10  and  C_12 
REMARK    3  A    between atoms: C_12  and  C_13 
REMARK    4  A    between atoms: C_14  and  N_15 
REMARK    5  A    between atoms: N_15  and  C_16 
ROOT
HETATM    1  C   UNL     1      41.843 -17.566   2.531  1.00  0.00    -0.006 A 
HETATM    2  C   UNL     1      42.458 -17.198   3.752  1.00  0.00     0.038 A 
HETATM    3  C   UNL     1      43.570 -17.942   4.195  1.00  0.00     0.030 A 
HETATM    4  C   UNL     1      44.123 -18.957   3.418  1.00  0.00     0.002 A 
HETATM    5  C   UNL     1      43.582 -19.245   2.174  1.00  0.00     0.001 A 
HETATM    6  C   UNL     1      42.457 -18.553   1.729  1.00  0.00     0.011 A 
ENDROOT
BRANCH   1   7
HETATM    7  C   UNL     1      40.550 -16.914   2.090  1.00  0.00     0.275 C 
BRANCH   7   8
HETATM    8  N   UNL     1      40.682 -15.555   1.405  1.00  0.00    -0.067 N 
HETATM    9  C   UNL     1      41.367 -15.632   0.061  1.00  0.00     0.236 C 
HETATM   10  C   UNL     1      41.588 -14.224  -0.485  1.00  0.00     0.038 C 
HETATM   11  C   UNL     1      40.328 -13.344  -0.512  1.00  0.00     0.040 C 
HETATM   12  C   UNL     1      39.556 -13.441   0.812  1.00  0.00     0.038 C 
HETATM   13  C   UNL     1      39.341 -14.874   1.276  1.00  0.00     0.236 C 
HETATM   14  H   UNL     1      41.258 -14.975   2.022  1.00  0.00     0.280 HD
BRANCH  11  15
HETATM   15  C   UNL     1      39.432 -13.606  -1.694  1.00  0.00     0.035 A 
HETATM   16  N   UNL     1      38.554 -12.659  -2.193  1.00  0.00    -0.278 N 
HETATM   17  C   UNL     1      38.373 -11.288  -1.767  1.00  0.00     0.179 C 
HETATM   18  N   UNL     1      37.795 -13.121  -3.199  1.00  0.00    -0.185 NA
HETATM   19  C   UNL     1      38.271 -14.336  -3.444  1.00  0.00     0.141 A 
HETATM   20  C   UNL     1      39.286 -14.693  -2.540  1.00  0.00     0.048 A 
ENDBRANCH  11  15
ENDBRANCH   7   8
ENDBRANCH   1   7
BRANCH   2  21
HETATM   21  N   UNL     1      41.992 -16.088   4.495  1.00  0.00    -0.380 N 
HETATM   22  C   UNL     1      41.079 -16.454   5.584  1.00  0.00     0.150 C 
BRANCH  21  23
HETATM   23  C   UNL     1      42.983 -14.980   4.656  1.00  0.00     0.087 C 
HETATM   24  C   UNL     1      42.760 -14.043   5.853  1.00  0.00     0.053 C 
HETATM   25  C   UNL     1      41.748 -12.946   5.591  1.00  0.00     0.236 C 
HETATM   26  N   UNL     1      42.176 -12.155   4.382  1.00  0.00    -0.075 N 
HETATM   27  H   UNL     1      43.110 -11.762   4.572  1.00  0.00     0.279 HD
HETATM   28  C   UNL     1      41.282 -10.955   4.163  1.00  0.00     0.269 C 
HETATM   29  C   UNL     1      42.271 -13.010   3.148  1.00  0.00     0.236 C 
HETATM   30  C   UNL     1      43.229 -14.174   3.370  1.00  0.00     0.053 C 
ENDBRANCH  21  23
ENDBRANCH   2  21
TORSDOF 5
ENDMDL
MODEL 4
REMARK VINA RESULT:      -7.5      1.730      4.425
REMARK  5 active torsions:
REMARK  status: ('A' for Active; 'I' for Inactive)
REMARK    1  A    between atoms: C_6  and  C_7 
REMARK    2  A    between atoms: N_10  and  C_12 
REMARK    3  A    between atoms: C_12  and  C_13 
REMARK    4  A    between atoms: C_14  and  N_15 
REMARK    5  A    between atoms: N_15  and  C_16 
ROOT
HETATM    1  C   UNL     1      41.300 -14.717   0.183  1.00  0.00    -0.006 A 
HETATM    2  C   UNL     1      41.576 -13.619   1.033  1.00  0.00     0.038 A 
HETATM    3  C   UNL     1      41.944 -12.391   0.446  1.00  0.00     0.030 A 
HETATM    4  C   UNL     1      41.949 -12.218  -0.936  1.00  0.00     0.002 A 
HETATM    5  C   UNL     1      41.577 -13.267  -1.763  1.00  0.00     0.001 A 
HETATM    6  C   UNL     1      41.249 -14.504  -1.211  1.00  0.00     0.011 A 
ENDROOT
BRANCH   1   7
HETATM    7  C   UNL     1      41.065 -16.098   0.757  1.00  0.00     0.275 C 
BRANCH   7   8
HETATM    8  N   UNL     1      42.140 -16.623   1.708  1.00  0.00    -0.067 N 
HETATM    9  C   UNL     1      41.597 -17.569   2.752  1.00  0.00     0.236 C 
HETATM   10  C   UNL     1      42.701 -17.928   3.743  1.00  0.00     0.038 C 
HETATM   11  C   UNL     1      43.998 -18.440   3.097  1.00  0.00     0.040 C 
HETATM   12  C   UNL     1      44.416 -17.553   1.915  1.00  0.00     0.038 C 
HETATM   13  C   UNL     1      43.276 -17.267   0.949  1.00  0.00     0.236 C 
HETATM   14  H   UNL     1      42.524 -15.804   2.190  1.00  0.00     0.280 HD
BRANCH  11  15
HETATM   15  C   UNL     1      43.948 -19.894   2.705  1.00  0.00     0.035 A 
HETATM   16  N   UNL     1      44.529 -20.895   3.465  1.00  0.00    -0.278 N 
HETATM   17  C   UNL     1      45.197 -20.781   4.743  1.00  0.00     0.179 C 
HETATM   18  N   UNL     1      44.435 -22.109   2.899  1.00  0.00    -0.185 NA
HETATM   19  C   UNL     1      43.675 -21.918   1.827  1.00  0.00     0.141 A 
HETATM   20  C   UNL     1      43.344 -20.563   1.654  1.00  0.00     0.048 A 
ENDBRANCH  11  15
ENDBRANCH   7   8
ENDBRANCH   1   7
BRANCH   2  21
HETATM   21  N   UNL     1      41.451 -13.737   2.437  1.00  0.00    -0.380 N 
HETATM   22  C   UNL     1      42.552 -13.109   3.177  1.00  0.00     0.150 C 
BRANCH  21  23
HETATM   23  C   UNL     1      40.047 -13.686   2.950  1.00  0.00     0.087 C 
HETATM   24  C   UNL     1      39.453 -12.285   3.155  1.00  0.00     0.053 C 
HETATM   25  C   UNL     1      39.836 -11.646   4.475  1.00  0.00     0.236 C 
HETATM   26  N   UNL     1      39.428 -12.556   5.604  1.00  0.00    -0.075 N 
HETATM   27  H   UNL     1      38.409 -12.701   5.543  1.00  0.00     0.279 HD
HETATM   28  C   UNL     1      39.652 -11.901   6.948  1.00  0.00     0.269 C 
HETATM   29  C   UNL     1      40.099 -13.899   5.522  1.00  0.00     0.236 C 
HETATM   30  C   UNL     1      39.804 -14.570   4.185  1.00  0.00     0.053 C 
ENDBRANCH  21  23
ENDBRANCH   2  21
TORSDOF 5
ENDMDL
MODEL 5
REMARK VINA RESULT:      -7.3      2.534      7.929
REMARK  5 active torsions:
REMARK  status: ('A' for Active; 'I' for Inactive)
REMARK    1  A    between atoms: C_6  and  C_7 
REMARK    2  A    between atoms: N_10  and  C_12 
REMARK    3  A    between atoms: C_12  and  C_13 
REMARK    4  A    between atoms: C_14  and  N_15 
REMARK    5  A    between atoms: N_15  and  C_16 
ROOT
HETATM    1  C   UNL     1      41.956 -17.421   2.514  1.00  0.00    -0.006 A 
HETATM    2  C   UNL     1      43.109 -17.102   3.270  1.00  0.00     0.038 A 
HETATM    3  C   UNL     1      44.126 -18.071   3.386  1.00  0.00     0.030 A 
HETATM    4  C   UNL     1      44.057 -19.283   2.702  1.00  0.00     0.002 A 
HETATM    5  C   UNL     1      42.974 -19.549   1.878  1.00  0.00     0.001 A 
HETATM    6  C   UNL     1      41.935 -18.625   1.778  1.00  0.00     0.011 A 
ENDROOT
BRANCH   1   7
HETATM    7  C   UNL     1      40.764 -16.488   2.493  1.00  0.00     0.275 C 
BRANCH   7   8
HETATM    8  N   UNL     1      40.382 -15.916   1.129  1.00  0.00    -0.067 N 
HETATM    9  C   UNL     1      39.792 -14.528   1.212  1.00  0.00     0.236 C 
HETATM   10  C   UNL     1      39.307 -14.093  -0.168  1.00  0.00     0.038 C 
HETATM   11  C   UNL     1      40.353 -14.226  -1.285  1.00  0.00     0.040 C 
HETATM   12  C   UNL     1      41.065 -15.585  -1.219  1.00  0.00     0.038 C 
HETATM   13  C   UNL     1      41.554 -15.937   0.178  1.00  0.00     0.236 C 
HETATM   14  H   UNL     1      39.668 -16.541   0.743  1.00  0.00     0.280 HD
BRANCH  11  15
HETATM   15  C   UNL     1      41.339 -13.088  -1.330  1.00  0.00     0.035 A 
HETATM   16  N   UNL     1      41.709 -12.463  -2.510  1.00  0.00    -0.278 N 
HETATM   17  C   UNL     1      41.209 -12.699  -3.847  1.00  0.00     0.179 C 
HETATM   18  N   UNL     1      42.656 -11.527  -2.337  1.00  0.00    -0.185 NA
HETATM   19  C   UNL     1      42.811 -11.451  -1.020  1.00  0.00     0.141 A 
HETATM   20  C   UNL     1      42.022 -12.397  -0.344  1.00  0.00     0.048 A 
ENDBRANCH  11  15
ENDBRANCH   7   8
ENDBRANCH   1   7
BRANCH   2  21
HETATM   21  N   UNL     1      43.258 -15.828   3.867  1.00  0.00    -0.380 N 
HETATM   22  C   UNL     1      43.327 -14.730   2.897  1.00  0.00     0.150 C 
BRANCH  21  23
HETATM   23  C   UNL     1      42.552 -15.661   5.175  1.00  0.00     0.087 C 
HETATM   24  C   UNL     1      42.106 -14.234   5.525  1.00  0.00     0.053 C 
HETATM   25  C   UNL     1      43.201 -13.384   6.139  1.00  0.00     0.236 C 
HETATM   26  N   UNL     1      43.738 -14.077   7.363  1.00  0.00    -0.075 N 
HETATM   27  H   UNL     1      42.958 -14.210   8.023  1.00  0.00     0.279 HD
HETATM   28  C   UNL     1      44.730 -13.204   8.099  1.00  0.00     0.269 C 
HETATM   29  C   UNL     1      44.318 -15.428   7.043  1.00  0.00     0.236 C 
HETATM   30  C   UNL     1      43.280 -16.313   6.362  1.00  0.00     0.053 C 
ENDBRANCH  21  23
ENDBRANCH   2  21
TORSDOF 5
ENDMDL
MODEL 6
REMARK VINA RESULT:      -7.2      1.436      2.493
REMARK  5 active torsions:
REMARK  status: ('A' for Active; 'I' for Inactive)
REMARK    1  A    between atoms: C_6  and  C_7 
REMARK    2  A    between atoms: N_10  and  C_12 
REMARK    3  A    between atoms: C_12  and  C_13 
REMARK    4  A    between atoms: C_14  and  N_15 
REMARK    5  A    between atoms: N_15  and  C_16 
ROOT
HETATM    1  C   UNL     1      42.101 -13.545   3.785  1.00  0.00    -0.006 A 
HETATM    2  C   UNL     1      40.939 -13.098   3.112  1.00  0.00     0.038 A 
HETATM    3  C   UNL     1      39.879 -12.572   3.879  1.00  0.00     0.030 A 
HETATM    4  C   UNL     1      39.993 -12.401   5.257  1.00  0.00     0.002 A 
HETATM    5  C   UNL     1      41.174 -12.744   5.899  1.00  0.00     0.001 A 
HETATM    6  C   UNL     1      42.222 -13.305   5.171  1.00  0.00     0.011 A 
ENDROOT
BRANCH   1   7
HETATM    7  C   UNL     1      43.197 -14.271   3.034  1.00  0.00     0.275 C 
BRANCH   7   8
HETATM    8  N   UNL     1      42.859 -15.677   2.543  1.00  0.00    -0.067 N 
HETATM    9  C   UNL     1      44.032 -16.381   1.905  1.00  0.00     0.236 C 
HETATM   10  C   UNL     1      43.574 -17.712   1.315  1.00  0.00     0.038 C 
HETATM   11  C   UNL     1      42.804 -18.613   2.293  1.00  0.00     0.040 C 
HETATM   12  C   UNL     1      41.740 -17.815   3.062  1.00  0.00     0.038 C 
HETATM   13  C   UNL     1      42.276 -16.520   3.653  1.00  0.00     0.236 C 
HETATM   14  H   UNL     1      42.129 -15.567   1.832  1.00  0.00     0.280 HD
BRANCH  11  15
HETATM   15  C   UNL     1      43.692 -19.392   3.228  1.00  0.00     0.035 A 
HETATM   16  N   UNL     1      44.117 -20.682   2.957  1.00  0.00    -0.278 N 
HETATM   17  C   UNL     1      43.881 -21.476   1.771  1.00  0.00     0.179 C 
HETATM   18  N   UNL     1      44.836 -21.221   3.954  1.00  0.00    -0.185 NA
HETATM   19  C   UNL     1      44.991 -20.230   4.825  1.00  0.00     0.141 A 
HETATM   20  C   UNL     1      44.300 -19.072   4.430  1.00  0.00     0.048 A 
ENDBRANCH  11  15
ENDBRANCH   7   8
ENDBRANCH   1   7
BRANCH   2  21
HETATM   21  N   UNL     1      40.852 -13.143   1.701  1.00  0.00    -0.380 N 
HETATM   22  C   UNL     1      41.945 -12.437   1.024  1.00  0.00     0.150 C 
BRANCH  21  23
HETATM   23  C   UNL     1      40.292 -14.414   1.146  1.00  0.00     0.087 C 
HETATM   24  C   UNL     1      40.818 -14.839  -0.233  1.00  0.00     0.053 C 
HETATM   25  C   UNL     1      40.117 -14.158  -1.391  1.00  0.00     0.236 C 
HETATM   26  N   UNL     1      38.636 -14.418  -1.296  1.00  0.00    -0.075 N 
HETATM   27  H   UNL     1      38.488 -15.437  -1.319  1.00  0.00     0.279 HD
HETATM   28  C   UNL     1      37.904 -13.886  -2.508  1.00  0.00     0.269 C 
HETATM   29  C   UNL     1      38.048 -13.888  -0.016  1.00  0.00     0.236 C 
HETATM   30  C   UNL     1      38.757 -14.489   1.193  1.00  0.00     0.053 C 
ENDBRANCH  21  23
ENDBRANCH   2  21
TORSDOF 5
ENDMDL
MODEL 7
REMARK VINA RESULT:      -7.2      1.646      7.109
REMARK  5 active torsions:
REMARK  status: ('A' for Active; 'I' for Inactive)
REMARK    1  A    between atoms: C_6  and  C_7 
REMARK    2  A    between atoms: N_10  and  C_12 
REMARK    3  A    between atoms: C_12  and  C_13 
REMARK    4  A    between atoms: C_14  and  N_15 
REMARK    5  A    between atoms: N_15  and  C_16 
ROOT
HETATM    1  C   UNL     1      40.463 -13.306   3.184  1.00  0.00    -0.006 A 
HETATM    2  C   UNL     1      40.949 -14.200   4.168  1.00  0.00     0.038 A 
HETATM    3  C   UNL     1      40.533 -14.022   5.503  1.00  0.00     0.030 A 
HETATM    4  C   UNL     1      39.594 -13.052   5.849  1.00  0.00     0.002 A 
HETATM    5  C   UNL     1      39.041 -12.247   4.866  1.00  0.00     0.001 A 
HETATM    6  C   UNL     1      39.465 -12.374   3.544  1.00  0.00     0.011 A 
ENDROOT
BRANCH   1   7
HETATM    7  C   UNL     1      41.003 -13.345   1.771  1.00  0.00     0.275 C 
BRANCH   7   8
HETATM    8  N   UNL     1      39.996 -13.059   0.659  1.00  0.00    -0.067 N 
HETATM    9  C   UNL     1      40.648 -12.690  -0.653  1.00  0.00     0.236 C 
HETATM   10  C   UNL     1      39.579 -12.281  -1.661  1.00  0.00     0.038 C 
HETATM   11  C   UNL     1      38.439 -13.297  -1.833  1.00  0.00     0.040 C 
HETATM   12  C   UNL     1      37.927 -13.791  -0.471  1.00  0.00     0.038 C 
HETATM   13  C   UNL     1      39.045 -14.216   0.469  1.00  0.00     0.236 C 
HETATM   14  H   UNL     1      39.438 -12.258   0.972  1.00  0.00     0.280 HD
BRANCH  11  15
HETATM   15  C   UNL     1      38.784 -14.447  -2.743  1.00  0.00     0.035 A 
HETATM   16  N   UNL     1      37.948 -14.872  -3.762  1.00  0.00    -0.278 N 
HETATM   17  C   UNL     1      36.691 -14.299  -4.192  1.00  0.00     0.179 C 
HETATM   18  N   UNL     1      38.408 -15.958  -4.403  1.00  0.00    -0.185 NA
HETATM   19  C   UNL     1      39.613 -16.165  -3.883  1.00  0.00     0.141 A 
HETATM   20  C   UNL     1      39.899 -15.260  -2.847  1.00  0.00     0.048 A 
ENDBRANCH  11  15
ENDBRANCH   7   8
ENDBRANCH   1   7
BRANCH   2  21
HETATM   21  N   UNL     1      41.804 -15.272   3.818  1.00  0.00    -0.380 N 
HETATM   22  C   UNL     1      43.145 -15.166   4.401  1.00  0.00     0.150 C 
BRANCH  21  23
HETATM   23  C   UNL     1      41.124 -16.597   3.677  1.00  0.00     0.087 C 
HETATM   24  C   UNL     1      41.648 -17.724   4.580  1.00  0.00     0.053 C 
HETATM   25  C   UNL     1      42.875 -18.425   4.034  1.00  0.00     0.236 C 
HETATM   26  N   UNL     1      42.571 -18.957   2.658  1.00  0.00    -0.075 N 
HETATM   27  H   UNL     1      41.776 -19.609   2.737  1.00  0.00     0.279 HD
HETATM   28  C   UNL     1      43.713 -19.794   2.126  1.00  0.00     0.269 C 
HETATM   29  C   UNL     1      42.190 -17.865   1.697  1.00  0.00     0.236 C 
HETATM   30  C   UNL     1      40.994 -17.078   2.222  1.00  0.00     0.053 C 
ENDBRANCH  21  23
ENDBRANCH   2  21
TORSDOF 5
ENDMDL
MODEL 8
REMARK VINA RESULT:      -7.1      2.450      8.175
REMARK  5 active torsions:
REMARK  status: ('A' for Active; 'I' for Inactive)
REMARK    1  A    between atoms: C_6  and  C_7 
REMARK    2  A    between atoms: N_10  and  C_12 
REMARK    3  A    between atoms: C_12  and  C_13 
REMARK    4  A    between atoms: C_14  and  N_15 
REMARK    5  A    between atoms: N_15  and  C_16 
ROOT
HETATM    1  C   UNL     1      43.055 -16.298   2.608  1.00  0.00    -0.006 A 
HETATM    2  C   UNL     1      42.803 -17.225   3.647  1.00  0.00     0.038 A 
HETATM    3  C   UNL     1      42.890 -18.602   3.355  1.00  0.00     0.030 A 
HETATM    4  C   UNL     1      43.306 -19.056   2.105  1.00  0.00     0.002 A 
HETATM    5  C   UNL     1      43.654 -18.143   1.122  1.00  0.00     0.001 A 
HETATM    6  C   UNL     1      43.537 -16.776   1.370  1.00  0.00     0.011 A 
ENDROOT
BRANCH   1   7
HETATM    7  C   UNL     1      42.814 -14.819   2.817  1.00  0.00     0.275 C 
BRANCH   7   8
HETATM    8  N   UNL     1      41.645 -14.212   2.044  1.00  0.00    -0.067 N 
HETATM    9  C   UNL     1      42.083 -13.375   0.866  1.00  0.00     0.236 C 
HETATM   10  C   UNL     1      40.870 -12.692   0.241  1.00  0.00     0.038 C 
HETATM   11  C   UNL     1      39.711 -13.640  -0.106  1.00  0.00     0.040 C 
HETATM   12  C   UNL     1      39.419 -14.605   1.053  1.00  0.00     0.038 C 
HETATM   13  C   UNL     1      40.669 -15.277   1.602  1.00  0.00     0.236 C 
HETATM   14  H   UNL     1      41.149 -13.602   2.700  1.00  0.00     0.280 HD
BRANCH  11  15
HETATM   15  C   UNL     1      39.900 -14.379  -1.405  1.00  0.00     0.035 A 
HETATM   16  N   UNL     1      39.067 -14.201  -2.497  1.00  0.00    -0.278 N 
HETATM   17  C   UNL     1      37.961 -13.279  -2.642  1.00  0.00     0.179 C 
HETATM   18  N   UNL     1      39.364 -15.011  -3.525  1.00  0.00    -0.185 NA
HETATM   19  C   UNL     1      40.478 -15.629  -3.150  1.00  0.00     0.141 A 
HETATM   20  C   UNL     1      40.856 -15.279  -1.843  1.00  0.00     0.048 A 
ENDBRANCH  11  15
ENDBRANCH   7   8
ENDBRANCH   1   7
BRANCH   2  21
HETATM   21  N   UNL     1      42.504 -16.785   4.958  1.00  0.00    -0.380 N 
HETATM   22  C   UNL     1      41.304 -17.410   5.526  1.00  0.00     0.150 C 
BRANCH  21  23
HETATM   23  C   UNL     1      43.698 -16.489   5.808  1.00  0.00     0.087 C 
HETATM   24  C   UNL     1      44.829 -17.528   5.770  1.00  0.00     0.053 C 
HETATM   25  C   UNL     1      44.607 -18.708   6.695  1.00  0.00     0.236 C 
HETATM   26  N   UNL     1      44.407 -18.206   8.100  1.00  0.00    -0.075 N 
HETATM   27  H   UNL     1      45.248 -17.675   8.372  1.00  0.00     0.279 HD
HETATM   28  C   UNL     1      44.329 -19.349   9.088  1.00  0.00     0.269 C 
HETATM   29  C   UNL     1      43.218 -17.292   8.214  1.00  0.00     0.236 C 
HETATM   30  C   UNL     1      43.351 -16.112   7.258  1.00  0.00     0.053 C 
ENDBRANCH  21  23
ENDBRANCH   2  21
TORSDOF 5
ENDMDL
MODEL 9
REMARK VINA RESULT:      -7.1      2.003      4.723
REMARK  5 active torsions:
REMARK  status: ('A' for Active; 'I' for Inactive)
REMARK    1  A    between atoms: C_6  and  C_7 
REMARK    2  A    between atoms: N_10  and  C_12 
REMARK    3  A    between atoms: C_12  and  C_13 
REMARK    4  A    between atoms: C_14  and  N_15 
REMARK    5  A    between atoms: N_15  and  C_16 
ROOT
HETATM    1  C   UNL     1      40.984 -15.073  -0.754  1.00  0.00    -0.006 A 
HETATM    2  C   UNL     1      41.054 -13.659  -0.781  1.00  0.00     0.038 A 
HETATM    3  C   UNL     1      41.307 -13.022  -2.012  1.00  0.00     0.030 A 
HETATM    4  C   UNL     1      41.395 -13.745  -3.201  1.00  0.00     0.002 A 
HETATM    5  C   UNL     1      41.221 -15.120  -3.185  1.00  0.00     0.001 A 
HETATM    6  C   UNL     1      41.011 -15.780  -1.975  1.00  0.00     0.011 A 
ENDROOT
BRANCH   1   7
HETATM    7  C   UNL     1      40.883 -15.816   0.561  1.00  0.00     0.275 C 
BRANCH   7   8
HETATM    8  N   UNL     1      41.987 -16.832   0.846  1.00  0.00    -0.067 N 
HETATM    9  C   UNL     1      43.234 -16.206   1.424  1.00  0.00     0.236 C 
HETATM   10  C   UNL     1      44.331 -17.260   1.541  1.00  0.00     0.038 C 
HETATM   11  C   UNL     1      43.913 -18.539   2.283  1.00  0.00     0.040 C 
HETATM   12  C   UNL     1      42.545 -19.041   1.795  1.00  0.00     0.038 C 
HETATM   13  C   UNL     1      41.492 -17.945   1.738  1.00  0.00     0.236 C 
HETATM   14  H   UNL     1      42.232 -17.253  -0.055  1.00  0.00     0.280 HD
BRANCH  11  15
HETATM   15  C   UNL     1      43.949 -18.410   3.783  1.00  0.00     0.035 A 
HETATM   16  N   UNL     1      44.420 -19.415   4.611  1.00  0.00    -0.278 N 
HETATM   17  C   UNL     1      45.007 -20.684   4.239  1.00  0.00     0.179 C 
HETATM   18  N   UNL     1      44.294 -19.126   5.916  1.00  0.00    -0.185 NA
HETATM   19  C   UNL     1      43.857 -17.872   5.938  1.00  0.00     0.141 A 
HETATM   20  C   UNL     1      43.622 -17.376   4.645  1.00  0.00     0.048 A 
ENDBRANCH  11  15
ENDBRANCH   7   8
ENDBRANCH   1   7
BRANCH   2  21
HETATM   21  N   UNL     1      40.841 -12.897   0.392  1.00  0.00    -0.380 N 
HETATM   22  C   UNL     1      42.006 -12.102   0.794  1.00  0.00     0.150 C 
BRANCH  21  23
HETATM   23  C   UNL     1      39.451 -12.369   0.553  1.00  0.00     0.087 C 
HETATM   24  C   UNL     1      39.296 -10.843   0.485  1.00  0.00     0.053 C 
HETATM   25  C   UNL     1      39.592 -10.138   1.794  1.00  0.00     0.236 C 
HETATM   26  N   UNL     1      38.707 -10.704   2.873  1.00  0.00    -0.075 N 
HETATM   27  H   UNL     1      37.726 -10.562   2.588  1.00  0.00     0.279 HD
HETATM   28  C   UNL     1      38.856  -9.936   4.167  1.00  0.00     0.269 C 
HETATM   29  C   UNL     1      38.927 -12.179   3.074  1.00  0.00     0.236 C 
HETATM   30  C   UNL     1      38.706 -12.940   1.772  1.00  0.00     0.053 C 
ENDBRANCH  21  23
ENDBRANCH   2  21
TORSDOF 5
ENDMDL
MODEL 10
REMARK VINA RESULT:      -6.9      2.471      7.411
REMARK  5 active torsions:
REMARK  status: ('A' for Active; 'I' for Inactive)
REMARK    1  A    between atoms: C_6  and  C_7 
REMARK    2  A    between atoms: N_10  and  C_12 
REMARK    3  A    between atoms: C_12  and  C_13 
REMARK    4  A    between atoms: C_14  and  N_15 
REMARK    5  A    between atoms: N_15  and  C_16 
ROOT
HETATM    1  C   UNL     1      42.829 -15.892   5.362  1.00  0.00    -0.006 A 
HETATM    2  C   UNL     1      42.798 -16.905   4.374  1.00  0.00     0.038 A 
HETATM    3  C   UNL     1      42.871 -18.250   4.788  1.00  0.00     0.030 A 
HETATM    4  C   UNL     1      42.880 -18.597   6.138  1.00  0.00     0.002 A 
HETATM    5  C   UNL     1      42.804 -17.605   7.104  1.00  0.00     0.001 A 
HETATM    6  C   UNL     1      42.772 -16.265   6.723  1.00  0.00     0.011 A 
ENDROOT
BRANCH   1   7
HETATM    7  C   UNL     1      42.923 -14.433   4.970  1.00  0.00     0.275 C 
BRANCH   7   8
HETATM    8  N   UNL     1      41.882 -13.502   5.590  1.00  0.00    -0.067 N 
HETATM    9  C   UNL     1      42.075 -12.055   5.204  1.00  0.00     0.236 C 
HETATM   10  C   UNL     1      41.091 -11.182   5.976  1.00  0.00     0.038 C 
HETATM   11  C   UNL     1      39.624 -11.630   5.879  1.00  0.00     0.040 C 
HETATM   12  C   UNL     1      39.492 -13.145   6.093  1.00  0.00     0.038 C 
HETATM   13  C   UNL     1      40.478 -13.954   5.264  1.00  0.00     0.236 C 
HETATM   14  H   UNL     1      41.995 -13.578   6.605  1.00  0.00     0.280 HD
BRANCH  11  15
HETATM   15  C   UNL     1      38.939 -11.190   4.611  1.00  0.00     0.035 A 
HETATM   16  N   UNL     1      38.406  -9.922   4.448  1.00  0.00    -0.278 N 
HETATM   17  C   UNL     1      38.455  -8.803   5.363  1.00  0.00     0.179 C 
HETATM   18  N   UNL     1      37.774  -9.762   3.275  1.00  0.00    -0.185 NA
HETATM   19  C   UNL     1      38.008 -10.891   2.615  1.00  0.00     0.141 A 
HETATM   20  C   UNL     1      38.723 -11.815   3.395  1.00  0.00     0.048 A 
ENDBRANCH  11  15
ENDBRANCH   7   8
ENDBRANCH   1   7
BRANCH   2  21
HETATM   21  N   UNL     1      42.660 -16.581   3.004  1.00  0.00    -0.380 N 
HETATM   22  C   UNL     1      43.902 -16.737   2.238  1.00  0.00     0.150 C 
BRANCH  21  23
HETATM   23  C   UNL     1      41.334 -16.928   2.407  1.00  0.00     0.087 C 
HETATM   24  C   UNL     1      41.358 -17.442   0.960  1.00  0.00     0.053 C 
HETATM   25  C   UNL     1      41.409 -16.341  -0.080  1.00  0.00     0.236 C 
HETATM   26  N   UNL     1      40.241 -15.412   0.123  1.00  0.00    -0.075 N 
HETATM   27  H   UNL     1      39.375 -15.964   0.037  1.00  0.00     0.279 HD
HETATM   28  C   UNL     1      40.160 -14.379  -0.978  1.00  0.00     0.269 C 
HETATM   29  C   UNL     1      40.255 -14.771   1.484  1.00  0.00     0.236 C 
HETATM   30  C   UNL     1      40.269 -15.831   2.580  1.00  0.00     0.053 C 
ENDBRANCH  21  23
ENDBRANCH   2  21
TORSDOF 5
ENDMDL
