MODEL 1
REMARK VINA RESULT:      -8.2      0.000      0.000
REMARK  9 active torsions:
REMARK  status: ('A' for Active; 'I' for Inactive)
REMARK    1  A    between atoms: C_6  and  C_7 
REMARK    2  A    between atoms: C_7  and  C_8 
REMARK       I    between atoms: C_8  and  N_9 
REMARK    3  A    between atoms: N_9  and  C_10 
REMARK    4  A    between atoms: C_10  and  C_11 
REMARK    5  A    between atoms: C_11  and  N_12 
REMARK    6  A    between atoms: C_17  and  C_18 
REMARK    7  A    between atoms: C_21  and  C_22 
REMARK    8  A    between atoms: C_29  and  C_30 
REMARK       I    between atoms: C_30  and  N_31 
REMARK    9  A    between atoms: N_31  and  C_32 
ROOT
HETATM    1  C   UNL     1      38.829 -12.844   2.777  1.00  0.00     0.071 C 
HETATM    2  C   UNL     1      39.426 -13.801   1.775  1.00  0.00     0.047 C 
HETATM    3  N   UNL     1      38.835 -13.730   0.499  1.00  0.00    -0.229 NA
HETATM    4  C   UNL     1      39.596 -14.004  -0.516  1.00  0.00     0.170 C 
HETATM    5  N   UNL     1      41.074 -14.588  -0.332  1.00  0.00    -0.319 N 
HETATM    6  C   UNL     1      41.768 -13.658  -0.923  1.00  0.00     0.011 C 
HETATM    7  C   UNL     1      40.962 -15.412   0.882  1.00  0.00     0.165 C 
HETATM    8  S   UNL     1      39.382 -13.413  -2.134  1.00  0.00    -0.086 SA
HETATM    9  C   UNL     1      41.224 -13.421  -2.336  1.00  0.00     0.135 C 
HETATM   10  C   UNL     1      40.539 -14.547   2.012  1.00  0.00     0.062 C 
ENDROOT
BRANCH   6  11
HETATM   11  C   UNL     1      42.341 -12.512  -0.127  1.00  0.00     0.156 C 
BRANCH  11  12
HETATM   12  C   UNL     1      42.550 -11.177  -0.779  1.00  0.00     0.223 C 
HETATM   13  N   UNL     1      41.389 -10.431  -0.864  1.00  0.00    -0.359 N 
HETATM   14  H   UNL     1      40.777 -10.490  -0.040  1.00  0.00     0.162 HD
HETATM   15  O   UNL     1      43.611 -10.871  -1.300  1.00  0.00    -0.273 OA
BRANCH  13  16
HETATM   16  C   UNL     1      41.347  -9.144  -1.560  1.00  0.00     0.150 C 
BRANCH  16  17
HETATM   17  C   UNL     1      40.995  -9.282  -3.056  1.00  0.00     0.253 C 
BRANCH  17  18
HETATM   18  N   UNL     1      42.254  -9.411  -3.913  1.00  0.00    -0.077 N 
HETATM   19  H   UNL     1      43.044  -9.343  -3.260  1.00  0.00     0.279 HD
HETATM   20  C   UNL     1      42.380 -10.731  -4.626  1.00  0.00     0.269 C 
HETATM   21  C   UNL     1      42.383  -8.267  -4.888  1.00  0.00     0.269 C 
ENDBRANCH  17  18
ENDBRANCH  16  17
ENDBRANCH  13  16
ENDBRANCH  11  12
ENDBRANCH   6  11
BRANCH   7  22
HETATM   22  C   UNL     1      41.776 -16.680   1.033  1.00  0.00    -0.030 A 
HETATM   23  C   UNL     1      41.255 -17.921   1.406  1.00  0.00     0.010 A 
HETATM   24  C   UNL     1      42.115 -18.938   1.861  1.00  0.00     0.008 A 
HETATM   25  C   UNL     1      43.506 -18.748   1.939  1.00  0.00    -0.055 A 
HETATM   26  C   UNL     1      44.034 -17.555   1.452  1.00  0.00     0.008 A 
HETATM   27  C   UNL     1      43.186 -16.534   1.026  1.00  0.00     0.010 A 
BRANCH  25  28
HETATM   28  C   UNL     1      44.394 -19.808   2.580  1.00  0.00     0.010 C 
HETATM   29  C   UNL     1      44.373 -19.696   4.103  1.00  0.00     0.015 C 
HETATM   30  C   UNL     1      44.036 -21.240   2.151  1.00  0.00     0.015 C 
ENDBRANCH  25  28
ENDBRANCH   7  22
BRANCH  10  31
HETATM   31  C   UNL     1      41.527 -14.125   3.042  1.00  0.00     0.256 C 
HETATM   32  N   UNL     1      41.585 -14.888   4.177  1.00  0.00    -0.323 N 
HETATM   33  H   UNL     1      40.930 -15.649   4.310  1.00  0.00     0.169 HD
HETATM   34  O   UNL     1      42.333 -13.255   2.707  1.00  0.00    -0.267 OA
BRANCH  32  35
HETATM   35  C   UNL     1      42.580 -14.819   5.182  1.00  0.00     0.035 A 
HETATM   36  C   UNL     1      42.924 -13.646   5.857  1.00  0.00     0.029 A 
HETATM   37  C   UNL     1      43.936 -13.656   6.823  1.00  0.00     0.002 A 
HETATM   38  C   UNL     1      44.614 -14.836   7.116  1.00  0.00     0.000 A 
HETATM   39  C   UNL     1      44.270 -16.013   6.457  1.00  0.00     0.002 A 
HETATM   40  C   UNL     1      43.249 -16.007   5.503  1.00  0.00     0.029 A 
ENDBRANCH  32  35
ENDBRANCH  10  31
TORSDOF 9
ENDMDL
MODEL 2
REMARK VINA RESULT:      -8.1      1.526      2.166
REMARK  9 active torsions:
REMARK  status: ('A' for Active; 'I' for Inactive)
REMARK    1  A    between atoms: C_6  and  C_7 
REMARK    2  A    between atoms: C_7  and  C_8 
REMARK       I    between atoms: C_8  and  N_9 
REMARK    3  A    between atoms: N_9  and  C_10 
REMARK    4  A    between atoms: C_10  and  C_11 
REMARK    5  A    between atoms: C_11  and  N_12 
REMARK    6  A    between atoms: C_17  and  C_18 
REMARK    7  A    between atoms: C_21  and  C_22 
REMARK    8  A    between atoms: C_29  and  C_30 
REMARK       I    between atoms: C_30  and  N_31 
REMARK    9  A    between atoms: N_31  and  C_32 
ROOT
HETATM    1  C   UNL     1      38.854 -12.901   2.711  1.00  0.00     0.071 C 
HETATM    2  C   UNL     1      39.446 -13.872   1.721  1.00  0.00     0.047 C 
HETATM    3  N   UNL     1      38.842 -13.827   0.449  1.00  0.00    -0.229 NA
HETATM    4  C   UNL     1      39.595 -14.115  -0.568  1.00  0.00     0.170 C 
HETATM    5  N   UNL     1      41.078 -14.688  -0.389  1.00  0.00    -0.319 N 
HETATM    6  C   UNL     1      41.761 -13.765  -1.003  1.00  0.00     0.011 C 
HETATM    7  C   UNL     1      40.982 -15.491   0.841  1.00  0.00     0.165 C 
HETATM    8  S   UNL     1      39.362 -13.555  -2.194  1.00  0.00    -0.086 SA
HETATM    9  C   UNL     1      41.203 -13.556  -2.414  1.00  0.00     0.135 C 
HETATM   10  C   UNL     1      40.565 -14.608   1.960  1.00  0.00     0.062 C 
ENDROOT
BRANCH   6  11
HETATM   11  C   UNL     1      42.336 -12.601  -0.233  1.00  0.00     0.156 C 
BRANCH  11  12
HETATM   12  C   UNL     1      41.800 -11.218  -0.455  1.00  0.00     0.223 C 
HETATM   13  N   UNL     1      40.605 -10.990   0.201  1.00  0.00    -0.359 N 
HETATM   14  H   UNL     1      40.545 -11.400   1.142  1.00  0.00     0.162 HD
HETATM   15  O   UNL     1      42.312 -10.448  -1.252  1.00  0.00    -0.273 OA
BRANCH  13  16
HETATM   16  C   UNL     1      39.857  -9.743   0.032  1.00  0.00     0.150 C 
BRANCH  16  17
HETATM   17  C   UNL     1      38.419  -9.824   0.587  1.00  0.00     0.253 C 
BRANCH  17  18
HETATM   18  N   UNL     1      37.594 -10.872  -0.160  1.00  0.00    -0.077 N 
HETATM   19  H   UNL     1      38.195 -11.702  -0.229  1.00  0.00     0.279 HD
HETATM   20  C   UNL     1      36.339 -11.291   0.557  1.00  0.00     0.269 C 
HETATM   21  C   UNL     1      37.278 -10.431  -1.567  1.00  0.00     0.269 C 
ENDBRANCH  17  18
ENDBRANCH  16  17
ENDBRANCH  13  16
ENDBRANCH  11  12
ENDBRANCH   6  11
BRANCH   7  22
HETATM   22  C   UNL     1      41.805 -16.751   1.007  1.00  0.00    -0.030 A 
HETATM   23  C   UNL     1      41.291 -17.993   1.387  1.00  0.00     0.010 A 
HETATM   24  C   UNL     1      42.156 -19.000   1.856  1.00  0.00     0.008 A 
HETATM   25  C   UNL     1      43.545 -18.799   1.939  1.00  0.00    -0.055 A 
HETATM   26  C   UNL     1      44.067 -17.605   1.446  1.00  0.00     0.008 A 
HETATM   27  C   UNL     1      43.214 -16.595   1.007  1.00  0.00     0.010 A 
BRANCH  25  28
HETATM   28  C   UNL     1      44.437 -19.847   2.594  1.00  0.00     0.010 C 
HETATM   29  C   UNL     1      44.403 -19.726   4.117  1.00  0.00     0.015 C 
HETATM   30  C   UNL     1      44.095 -21.285   2.171  1.00  0.00     0.015 C 
ENDBRANCH  25  28
ENDBRANCH   7  22
BRANCH  10  31
HETATM   31  C   UNL     1      41.561 -14.162   2.973  1.00  0.00     0.256 C 
HETATM   32  N   UNL     1      41.609 -14.883   4.135  1.00  0.00    -0.323 N 
HETATM   33  H   UNL     1      40.944 -15.629   4.297  1.00  0.00     0.169 HD
HETATM   34  O   UNL     1      42.379 -13.316   2.605  1.00  0.00    -0.267 OA
BRANCH  32  35
HETATM   35  C   UNL     1      42.607 -14.791   5.136  1.00  0.00     0.035 A 
HETATM   36  C   UNL     1      42.944 -13.605   5.792  1.00  0.00     0.029 A 
HETATM   37  C   UNL     1      43.958 -13.593   6.755  1.00  0.00     0.002 A 
HETATM   38  C   UNL     1      44.647 -14.762   7.063  1.00  0.00     0.000 A 
HETATM   39  C   UNL     1      44.311 -15.951   6.423  1.00  0.00     0.002 A 
HETATM   40  C   UNL     1      43.288 -15.969   5.471  1.00  0.00     0.029 A 
ENDBRANCH  32  35
ENDBRANCH  10  31
TORSDOF 9
ENDMDL
MODEL 3
REMARK VINA RESULT:      -7.9      3.223      6.298
REMARK  9 active torsions:
REMARK  status: ('A' for Active; 'I' for Inactive)
REMARK    1  A    between atoms: C_6  and  C_7 
REMARK    2  A    between atoms: C_7  and  C_8 
REMARK       I    between atoms: C_8  and  N_9 
REMARK    3  A    between atoms: N_9  and  C_10 
REMARK    4  A    between atoms: C_10  and  C_11 
REMARK    5  A    between atoms: C_11  and  N_12 
REMARK    6  A    between atoms: C_17  and  C_18 
REMARK    7  A    between atoms: C_21  and  C_22 
REMARK    8  A    between atoms: C_29  and  C_30 
REMARK       I    between atoms: C_30  and  N_31 
REMARK    9  A    between atoms: N_31  and  C_32 
ROOT
HETATM    1  C   UNL     1      42.042 -11.925   0.790  1.00  0.00     0.071 C 
HETATM    2  C   UNL     1      42.342 -13.015   1.789  1.00  0.00     0.047 C 
HETATM    3  N   UNL     1      42.837 -12.538   3.019  1.00  0.00    -0.229 NA
HETATM    4  C   UNL     1      42.555 -13.238   4.075  1.00  0.00     0.170 C 
HETATM    5  N   UNL     1      41.856 -14.674   3.977  1.00  0.00    -0.319 N 
HETATM    6  C   UNL     1      40.770 -14.451   4.661  1.00  0.00     0.011 C 
HETATM    7  C   UNL     1      42.390 -15.224   2.721  1.00  0.00     0.165 C 
HETATM    8  S   UNL     1      42.452 -12.630   5.697  1.00  0.00    -0.086 SA
HETATM    9  C   UNL     1      41.130 -13.884   6.038  1.00  0.00     0.135 C 
HETATM   10  C   UNL     1      42.014 -14.322   1.603  1.00  0.00     0.062 C 
ENDROOT
BRANCH   6  11
HETATM   11  C   UNL     1      39.505 -14.013   3.965  1.00  0.00     0.156 C 
BRANCH  11  12
HETATM   12  C   UNL     1      39.064 -12.582   4.043  1.00  0.00     0.223 C 
HETATM   13  N   UNL     1      39.404 -11.850   2.920  1.00  0.00    -0.359 N 
HETATM   14  H   UNL     1      39.300 -12.354   2.030  1.00  0.00     0.162 HD
HETATM   15  O   UNL     1      38.588 -12.108   5.062  1.00  0.00    -0.273 OA
BRANCH  13  16
HETATM   16  C   UNL     1      39.163 -10.409   2.836  1.00  0.00     0.150 C 
BRANCH  16  17
HETATM   17  C   UNL     1      40.363  -9.570   3.323  1.00  0.00     0.253 C 
BRANCH  17  18
HETATM   18  N   UNL     1      40.336  -9.391   4.841  1.00  0.00    -0.077 N 
HETATM   19  H   UNL     1      40.263 -10.339   5.231  1.00  0.00     0.279 HD
HETATM   20  C   UNL     1      41.585  -8.772   5.409  1.00  0.00     0.269 C 
HETATM   21  C   UNL     1      39.115  -8.628   5.289  1.00  0.00     0.269 C 
ENDBRANCH  17  18
ENDBRANCH  16  17
ENDBRANCH  13  16
ENDBRANCH  11  12
ENDBRANCH   6  11
BRANCH   7  22
HETATM   22  C   UNL     1      42.640 -16.710   2.574  1.00  0.00    -0.030 A 
HETATM   23  C   UNL     1      42.315 -17.670   3.536  1.00  0.00     0.010 A 
HETATM   24  C   UNL     1      42.895 -18.952   3.475  1.00  0.00     0.008 A 
HETATM   25  C   UNL     1      43.791 -19.308   2.452  1.00  0.00    -0.055 A 
HETATM   26  C   UNL     1      44.018 -18.391   1.428  1.00  0.00     0.008 A 
HETATM   27  C   UNL     1      43.471 -17.112   1.498  1.00  0.00     0.010 A 
BRANCH  25  28
HETATM   28  C   UNL     1      44.520 -20.646   2.497  1.00  0.00     0.010 C 
HETATM   29  C   UNL     1      44.777 -21.084   3.938  1.00  0.00     0.015 C 
HETATM   30  C   UNL     1      43.793 -21.760   1.728  1.00  0.00     0.015 C 
ENDBRANCH  25  28
ENDBRANCH   7  22
BRANCH  10  31
HETATM   31  C   UNL     1      40.916 -14.701   0.672  1.00  0.00     0.256 C 
HETATM   32  N   UNL     1      41.036 -14.261  -0.619  1.00  0.00    -0.323 N 
HETATM   33  H   UNL     1      41.804 -13.655  -0.878  1.00  0.00     0.169 HD
HETATM   34  O   UNL     1      40.105 -15.530   1.087  1.00  0.00    -0.267 OA
BRANCH  32  35
HETATM   35  C   UNL     1      40.247 -14.675  -1.720  1.00  0.00     0.035 A 
HETATM   36  C   UNL     1      39.048 -14.062  -2.091  1.00  0.00     0.029 A 
HETATM   37  C   UNL     1      38.315 -14.545  -3.180  1.00  0.00     0.002 A 
HETATM   38  C   UNL     1      38.771 -15.646  -3.901  1.00  0.00     0.000 A 
HETATM   39  C   UNL     1      39.970 -16.256  -3.545  1.00  0.00     0.002 A 
HETATM   40  C   UNL     1      40.712 -15.765  -2.467  1.00  0.00     0.029 A 
ENDBRANCH  32  35
ENDBRANCH  10  31
TORSDOF 9
ENDMDL
MODEL 4
REMARK VINA RESULT:      -7.8      2.919      8.586
REMARK  9 active torsions:
REMARK  status: ('A' for Active; 'I' for Inactive)
REMARK    1  A    between atoms: C_6  and  C_7 
REMARK    2  A    between atoms: C_7  and  C_8 
REMARK       I    between atoms: C_8  and  N_9 
REMARK    3  A    between atoms: N_9  and  C_10 
REMARK    4  A    between atoms: C_10  and  C_11 
REMARK    5  A    between atoms: C_11  and  N_12 
REMARK    6  A    between atoms: C_17  and  C_18 
REMARK    7  A    between atoms: C_21  and  C_22 
REMARK    8  A    between atoms: C_29  and  C_30 
REMARK       I    between atoms: C_30  and  N_31 
REMARK    9  A    between atoms: N_31  and  C_32 
ROOT
HETATM    1  C   UNL     1      43.527 -16.437   1.403  1.00  0.00     0.071 C 
HETATM    2  C   UNL     1      42.183 -16.148   2.023  1.00  0.00     0.047 C 
HETATM    3  N   UNL     1      41.787 -17.094   2.988  1.00  0.00    -0.229 NA
HETATM    4  C   UNL     1      41.037 -16.666   3.956  1.00  0.00     0.170 C 
HETATM    5  N   UNL     1      40.420 -15.189   3.960  1.00  0.00    -0.319 N 
HETATM    6  C   UNL     1      40.942 -14.722   5.058  1.00  0.00     0.011 C 
HETATM    7  C   UNL     1      40.188 -14.918   2.532  1.00  0.00     0.165 C 
HETATM    8  S   UNL     1      40.928 -17.364   5.541  1.00  0.00    -0.086 SA
HETATM    9  C   UNL     1      40.634 -15.666   6.224  1.00  0.00     0.135 C 
HETATM   10  C   UNL     1      41.483 -15.001   1.810  1.00  0.00     0.062 C 
ENDROOT
BRANCH   6  11
HETATM   11  C   UNL     1      42.243 -13.959   5.020  1.00  0.00     0.156 C 
BRANCH  11  12
HETATM   12  C   UNL     1      43.371 -14.357   5.926  1.00  0.00     0.223 C 
HETATM   13  N   UNL     1      43.611 -13.433   6.927  1.00  0.00    -0.359 N 
HETATM   14  H   UNL     1      42.767 -13.015   7.339  1.00  0.00     0.162 HD
HETATM   15  O   UNL     1      44.076 -15.325   5.693  1.00  0.00    -0.273 OA
BRANCH  13  16
HETATM   16  C   UNL     1      44.735 -13.573   7.854  1.00  0.00     0.150 C 
BRANCH  16  17
HETATM   17  C   UNL     1      44.949 -12.323   8.733  1.00  0.00     0.253 C 
BRANCH  17  18
HETATM   18  N   UNL     1      43.778 -12.112   9.692  1.00  0.00    -0.077 N 
HETATM   19  H   UNL     1      43.107 -12.861   9.481  1.00  0.00     0.279 HD
HETATM   20  C   UNL     1      44.144 -12.244  11.147  1.00  0.00     0.269 C 
HETATM   21  C   UNL     1      43.079 -10.800   9.438  1.00  0.00     0.269 C 
ENDBRANCH  17  18
ENDBRANCH  16  17
ENDBRANCH  13  16
ENDBRANCH  11  12
ENDBRANCH   6  11
BRANCH   7  22
HETATM   22  C   UNL     1      39.014 -14.071   2.089  1.00  0.00    -0.030 A 
HETATM   23  C   UNL     1      38.091 -14.442   1.109  1.00  0.00     0.010 A 
HETATM   24  C   UNL     1      37.262 -13.470   0.516  1.00  0.00     0.008 A 
HETATM   25  C   UNL     1      37.324 -12.118   0.897  1.00  0.00    -0.055 A 
HETATM   26  C   UNL     1      38.158 -11.771   1.958  1.00  0.00     0.008 A 
HETATM   27  C   UNL     1      39.000 -12.723   2.529  1.00  0.00     0.010 A 
BRANCH  25  28
HETATM   28  C   UNL     1      36.530 -11.065   0.133  1.00  0.00     0.010 C 
HETATM   29  C   UNL     1      35.070 -11.042   0.583  1.00  0.00     0.015 C 
HETATM   30  C   UNL     1      37.136  -9.655   0.234  1.00  0.00     0.015 C 
ENDBRANCH  25  28
ENDBRANCH   7  22
BRANCH  10  31
HETATM   31  C   UNL     1      42.180 -13.758   1.378  1.00  0.00     0.256 C 
HETATM   32  N   UNL     1      41.740 -13.189   0.214  1.00  0.00    -0.323 N 
HETATM   33  H   UNL     1      41.025 -13.649  -0.336  1.00  0.00     0.169 HD
HETATM   34  O   UNL     1      42.951 -13.248   2.193  1.00  0.00    -0.267 OA
BRANCH  32  35
HETATM   35  C   UNL     1      42.090 -11.907  -0.275  1.00  0.00     0.035 A 
HETATM   36  C   UNL     1      42.986 -11.692  -1.324  1.00  0.00     0.029 A 
HETATM   37  C   UNL     1      43.297 -10.391  -1.734  1.00  0.00     0.002 A 
HETATM   38  C   UNL     1      42.720  -9.297  -1.094  1.00  0.00     0.000 A 
HETATM   39  C   UNL     1      41.817  -9.502  -0.055  1.00  0.00     0.002 A 
HETATM   40  C   UNL     1      41.494 -10.801   0.346  1.00  0.00     0.029 A 
ENDBRANCH  32  35
ENDBRANCH  10  31
TORSDOF 9
ENDMDL
MODEL 5
REMARK VINA RESULT:      -7.7      3.173      5.967
REMARK  9 active torsions:
REMARK  status: ('A' for Active; 'I' for Inactive)
REMARK    1  A    between atoms: C_6  and  C_7 
REMARK    2  A    between atoms: C_7  and  C_8 
REMARK       I    between atoms: C_8  and  N_9 
REMARK    3  A    between atoms: N_9  and  C_10 
REMARK    4  A    between atoms: C_10  and  C_11 
REMARK    5  A    between atoms: C_11  and  N_12 
REMARK    6  A    between atoms: C_17  and  C_18 
REMARK    7  A    between atoms: C_21  and  C_22 
REMARK    8  A    between atoms: C_29  and  C_30 
REMARK       I    between atoms: C_30  and  N_31 
REMARK    9  A    between atoms: N_31  and  C_32 
ROOT
HETATM    1  C   UNL     1      42.039 -11.923   0.829  1.00  0.00     0.071 C 
HETATM    2  C   UNL     1      42.340 -13.020   1.819  1.00  0.00     0.047 C 
HETATM    3  N   UNL     1      42.839 -12.552   3.051  1.00  0.00    -0.229 NA
HETATM    4  C   UNL     1      42.559 -13.259   4.102  1.00  0.00     0.170 C 
HETATM    5  N   UNL     1      41.858 -14.693   3.997  1.00  0.00    -0.319 N 
HETATM    6  C   UNL     1      40.774 -14.474   4.686  1.00  0.00     0.011 C 
HETATM    7  C   UNL     1      42.388 -15.235   2.736  1.00  0.00     0.165 C 
HETATM    8  S   UNL     1      42.461 -12.663   5.729  1.00  0.00    -0.086 SA
HETATM    9  C   UNL     1      41.138 -13.916   6.065  1.00  0.00     0.135 C 
HETATM   10  C   UNL     1      42.010 -14.325   1.625  1.00  0.00     0.062 C 
ENDROOT
BRANCH   6  11
HETATM   11  C   UNL     1      39.508 -14.029   3.996  1.00  0.00     0.156 C 
BRANCH  11  12
HETATM   12  C   UNL     1      39.065 -12.600   4.092  1.00  0.00     0.223 C 
HETATM   13  N   UNL     1      39.411 -11.851   2.982  1.00  0.00    -0.359 N 
HETATM   14  H   UNL     1      39.313 -12.342   2.084  1.00  0.00     0.162 HD
HETATM   15  O   UNL     1      38.581 -12.141   5.115  1.00  0.00    -0.273 OA
BRANCH  13  16
HETATM   16  C   UNL     1      39.169 -10.409   2.917  1.00  0.00     0.150 C 
BRANCH  16  17
HETATM   17  C   UNL     1      37.988 -10.039   1.997  1.00  0.00     0.253 C 
BRANCH  17  18
HETATM   18  N   UNL     1      37.772 -11.099   0.917  1.00  0.00    -0.077 N 
HETATM   19  H   UNL     1      38.239 -11.946   1.262  1.00  0.00     0.279 HD
HETATM   20  C   UNL     1      36.328 -11.452   0.683  1.00  0.00     0.269 C 
HETATM   21  C   UNL     1      38.441 -10.716  -0.380  1.00  0.00     0.269 C 
ENDBRANCH  17  18
ENDBRANCH  16  17
ENDBRANCH  13  16
ENDBRANCH  11  12
ENDBRANCH   6  11
BRANCH   7  22
HETATM   22  C   UNL     1      42.635 -16.721   2.578  1.00  0.00    -0.030 A 
HETATM   23  C   UNL     1      42.302 -17.688   3.529  1.00  0.00     0.010 A 
HETATM   24  C   UNL     1      42.878 -18.971   3.461  1.00  0.00     0.008 A 
HETATM   25  C   UNL     1      43.780 -19.321   2.441  1.00  0.00    -0.055 A 
HETATM   26  C   UNL     1      44.017 -18.395   1.427  1.00  0.00     0.008 A 
HETATM   27  C   UNL     1      43.472 -17.116   1.504  1.00  0.00     0.010 A 
BRANCH  25  28
HETATM   28  C   UNL     1      44.506 -20.661   2.480  1.00  0.00     0.010 C 
HETATM   29  C   UNL     1      44.760 -21.108   3.919  1.00  0.00     0.015 C 
HETATM   30  C   UNL     1      43.777 -21.769   1.703  1.00  0.00     0.015 C 
ENDBRANCH  25  28
ENDBRANCH   7  22
BRANCH  10  31
HETATM   31  C   UNL     1      40.909 -14.697   0.694  1.00  0.00     0.256 C 
HETATM   32  N   UNL     1      41.035 -14.264  -0.598  1.00  0.00    -0.323 N 
HETATM   33  H   UNL     1      41.811 -13.668  -0.860  1.00  0.00     0.169 HD
HETATM   34  O   UNL     1      40.087 -15.515   1.113  1.00  0.00    -0.267 OA
BRANCH  32  35
HETATM   35  C   UNL     1      40.243 -14.674  -1.698  1.00  0.00     0.035 A 
HETATM   36  C   UNL     1      39.027 -14.081  -2.045  1.00  0.00     0.029 A 
HETATM   37  C   UNL     1      38.292 -14.559  -3.135  1.00  0.00     0.002 A 
HETATM   38  C   UNL     1      38.763 -15.636  -3.881  1.00  0.00     0.000 A 
HETATM   39  C   UNL     1      39.979 -16.227  -3.549  1.00  0.00     0.002 A 
HETATM   40  C   UNL     1      40.722 -15.740  -2.470  1.00  0.00     0.029 A 
ENDBRANCH  32  35
ENDBRANCH  10  31
TORSDOF 9
ENDMDL
MODEL 6
REMARK VINA RESULT:      -7.5      3.067      6.477
REMARK  9 active torsions:
REMARK  status: ('A' for Active; 'I' for Inactive)
REMARK    1  A    between atoms: C_6  and  C_7 
REMARK    2  A    between atoms: C_7  and  C_8 
REMARK       I    between atoms: C_8  and  N_9 
REMARK    3  A    between atoms: N_9  and  C_10 
REMARK    4  A    between atoms: C_10  and  C_11 
REMARK    5  A    between atoms: C_11  and  N_12 
REMARK    6  A    between atoms: C_17  and  C_18 
REMARK    7  A    between atoms: C_21  and  C_22 
REMARK    8  A    between atoms: C_29  and  C_30 
REMARK       I    between atoms: C_30  and  N_31 
REMARK    9  A    between atoms: N_31  and  C_32 
ROOT
HETATM    1  C   UNL     1      42.057 -12.230  -0.912  1.00  0.00     0.071 C 
HETATM    2  C   UNL     1      42.104 -12.946   0.415  1.00  0.00     0.047 C 
HETATM    3  N   UNL     1      42.256 -12.085   1.520  1.00  0.00    -0.229 NA
HETATM    4  C   UNL     1      41.720 -12.467   2.639  1.00  0.00     0.170 C 
HETATM    5  N   UNL     1      41.092 -13.927   2.822  1.00  0.00    -0.319 N 
HETATM    6  C   UNL     1      39.863 -13.616   3.120  1.00  0.00     0.011 C 
HETATM    7  C   UNL     1      41.941 -14.769   1.965  1.00  0.00     0.165 C 
HETATM    8  S   UNL     1      41.191 -11.423   3.920  1.00  0.00    -0.086 SA
HETATM    9  C   UNL     1      39.844 -12.639   4.299  1.00  0.00     0.135 C 
HETATM   10  C   UNL     1      41.855 -14.275   0.567  1.00  0.00     0.062 C 
ENDROOT
BRANCH   6  11
HETATM   11  C   UNL     1      38.815 -13.523   2.038  1.00  0.00     0.156 C 
BRANCH  11  12
HETATM   12  C   UNL     1      38.463 -12.189   1.449  1.00  0.00     0.223 C 
HETATM   13  N   UNL     1      37.541 -11.491   2.208  1.00  0.00    -0.359 N 
HETATM   14  H   UNL     1      37.675 -11.565   3.224  1.00  0.00     0.162 HD
HETATM   15  O   UNL     1      38.854 -11.846   0.345  1.00  0.00    -0.273 OA
BRANCH  13  16
HETATM   16  C   UNL     1      36.980 -10.215   1.760  1.00  0.00     0.150 C 
BRANCH  16  17
HETATM   17  C   UNL     1      35.603 -10.369   1.082  1.00  0.00     0.253 C 
BRANCH  17  18
HETATM   18  N   UNL     1      34.470 -10.314   2.107  1.00  0.00    -0.077 N 
HETATM   19  H   UNL     1      34.661 -11.072   2.773  1.00  0.00     0.279 HD
HETATM   20  C   UNL     1      34.418  -9.033   2.896  1.00  0.00     0.269 C 
HETATM   21  C   UNL     1      33.132 -10.602   1.474  1.00  0.00     0.269 C 
ENDBRANCH  17  18
ENDBRANCH  16  17
ENDBRANCH  13  16
ENDBRANCH  11  12
ENDBRANCH   6  11
BRANCH   7  22
HETATM   22  C   UNL     1      42.244 -16.203   2.348  1.00  0.00    -0.030 A 
HETATM   23  C   UNL     1      41.616 -16.899   3.384  1.00  0.00     0.010 A 
HETATM   24  C   UNL     1      42.194 -18.077   3.892  1.00  0.00     0.008 A 
HETATM   25  C   UNL     1      43.394 -18.595   3.372  1.00  0.00    -0.055 A 
HETATM   26  C   UNL     1      43.952 -17.967   2.260  1.00  0.00     0.008 A 
HETATM   27  C   UNL     1      43.400 -16.785   1.770  1.00  0.00     0.010 A 
BRANCH  25  28
HETATM   28  C   UNL     1      44.076 -19.781   4.042  1.00  0.00     0.010 C 
HETATM   29  C   UNL     1      44.976 -20.526   3.058  1.00  0.00     0.015 C 
HETATM   30  C   UNL     1      44.874 -19.392   5.297  1.00  0.00     0.015 C 
ENDBRANCH  25  28
ENDBRANCH   7  22
BRANCH  10  31
HETATM   31  C   UNL     1      41.042 -15.012  -0.439  1.00  0.00     0.256 C 
HETATM   32  N   UNL     1      40.088 -14.285  -1.099  1.00  0.00    -0.323 N 
HETATM   33  H   UNL     1      39.922 -13.319  -0.845  1.00  0.00     0.169 HD
HETATM   34  O   UNL     1      41.422 -16.149  -0.727  1.00  0.00    -0.267 OA
BRANCH  32  35
HETATM   35  C   UNL     1      39.356 -14.704  -2.236  1.00  0.00     0.035 A 
HETATM   36  C   UNL     1      39.861 -15.566  -3.212  1.00  0.00     0.029 A 
HETATM   37  C   UNL     1      39.080 -15.915  -4.320  1.00  0.00     0.002 A 
HETATM   38  C   UNL     1      37.795 -15.401  -4.463  1.00  0.00     0.000 A 
HETATM   39  C   UNL     1      37.279 -14.549  -3.489  1.00  0.00     0.002 A 
HETATM   40  C   UNL     1      38.052 -14.212  -2.375  1.00  0.00     0.029 A 
ENDBRANCH  32  35
ENDBRANCH  10  31
TORSDOF 9
ENDMDL
MODEL 7
REMARK VINA RESULT:      -7.5      2.521      3.196
REMARK  9 active torsions:
REMARK  status: ('A' for Active; 'I' for Inactive)
REMARK    1  A    between atoms: C_6  and  C_7 
REMARK    2  A    between atoms: C_7  and  C_8 
REMARK       I    between atoms: C_8  and  N_9 
REMARK    3  A    between atoms: N_9  and  C_10 
REMARK    4  A    between atoms: C_10  and  C_11 
REMARK    5  A    between atoms: C_11  and  N_12 
REMARK    6  A    between atoms: C_17  and  C_18 
REMARK    7  A    between atoms: C_21  and  C_22 
REMARK    8  A    between atoms: C_29  and  C_30 
REMARK       I    between atoms: C_30  and  N_31 
REMARK    9  A    between atoms: N_31  and  C_32 
ROOT
HETATM    1  C   UNL     1      39.439 -12.733   4.667  1.00  0.00     0.071 C 
HETATM    2  C   UNL     1      39.972 -13.743   3.681  1.00  0.00     0.047 C 
HETATM    3  N   UNL     1      39.128 -13.954   2.573  1.00  0.00    -0.229 NA
HETATM    4  C   UNL     1      39.701 -14.275   1.453  1.00  0.00     0.170 C 
HETATM    5  N   UNL     1      41.262 -14.614   1.367  1.00  0.00    -0.319 N 
HETATM    6  C   UNL     1      41.653 -13.700   0.525  1.00  0.00     0.011 C 
HETATM    7  C   UNL     1      41.541 -15.245   2.666  1.00  0.00     0.165 C 
HETATM    8  S   UNL     1      39.064 -13.980  -0.134  1.00  0.00    -0.086 SA
HETATM    9  C   UNL     1      40.800 -13.764  -0.746  1.00  0.00     0.135 C 
HETATM   10  C   UNL     1      41.219 -14.281   3.749  1.00  0.00     0.062 C 
ENDROOT
BRANCH   6  11
HETATM   11  C   UNL     1      42.175 -12.375   1.024  1.00  0.00     0.156 C 
BRANCH  11  12
HETATM   12  C   UNL     1      41.277 -11.174   1.040  1.00  0.00     0.223 C 
HETATM   13  N   UNL     1      41.123 -10.632   2.304  1.00  0.00    -0.359 N 
HETATM   14  H   UNL     1      41.978 -10.621   2.874  1.00  0.00     0.162 HD
HETATM   15  O   UNL     1      40.648 -10.824   0.054  1.00  0.00    -0.273 OA
BRANCH  13  16
HETATM   16  C   UNL     1      40.205  -9.522   2.561  1.00  0.00     0.150 C 
BRANCH  16  17
HETATM   17  C   UNL     1      38.746  -9.984   2.765  1.00  0.00     0.253 C 
BRANCH  17  18
HETATM   18  N   UNL     1      37.974  -9.984   1.445  1.00  0.00    -0.077 N 
HETATM   19  H   UNL     1      38.679 -10.124   0.711  1.00  0.00     0.279 HD
HETATM   20  C   UNL     1      36.973 -11.101   1.319  1.00  0.00     0.269 C 
HETATM   21  C   UNL     1      37.318  -8.651   1.185  1.00  0.00     0.269 C 
ENDBRANCH  17  18
ENDBRANCH  16  17
ENDBRANCH  13  16
ENDBRANCH  11  12
ENDBRANCH   6  11
BRANCH   7  22
HETATM   22  C   UNL     1      42.572 -16.348   2.783  1.00  0.00    -0.030 A 
HETATM   23  C   UNL     1      43.537 -16.641   1.815  1.00  0.00     0.010 A 
HETATM   24  C   UNL     1      44.206 -17.879   1.840  1.00  0.00     0.008 A 
HETATM   25  C   UNL     1      43.944 -18.840   2.832  1.00  0.00    -0.055 A 
HETATM   26  C   UNL     1      43.072 -18.498   3.863  1.00  0.00     0.008 A 
HETATM   27  C   UNL     1      42.385 -17.286   3.829  1.00  0.00     0.010 A 
BRANCH  25  28
HETATM   28  C   UNL     1      44.567 -20.228   2.745  1.00  0.00     0.010 C 
HETATM   29  C   UNL     1      44.819 -20.807   4.136  1.00  0.00     0.015 C 
HETATM   30  C   UNL     1      43.739 -21.214   1.904  1.00  0.00     0.015 C 
ENDBRANCH  25  28
ENDBRANCH   7  22
BRANCH  10  31
HETATM   31  C   UNL     1      42.312 -13.571   4.469  1.00  0.00     0.256 C 
HETATM   32  N   UNL     1      42.406 -13.807   5.814  1.00  0.00    -0.323 N 
HETATM   33  H   UNL     1      41.714 -14.383   6.277  1.00  0.00     0.169 HD
HETATM   34  O   UNL     1      43.145 -12.992   3.769  1.00  0.00    -0.267 OA
BRANCH  32  35
HETATM   35  C   UNL     1      43.479 -13.428   6.656  1.00  0.00     0.035 A 
HETATM   36  C   UNL     1      43.354 -12.535   7.722  1.00  0.00     0.029 A 
HETATM   37  C   UNL     1      44.470 -12.194   8.495  1.00  0.00     0.002 A 
HETATM   38  C   UNL     1      45.718 -12.737   8.203  1.00  0.00     0.000 A 
HETATM   39  C   UNL     1      45.850 -13.636   7.148  1.00  0.00     0.002 A 
HETATM   40  C   UNL     1      44.734 -13.990   6.385  1.00  0.00     0.029 A 
ENDBRANCH  32  35
ENDBRANCH  10  31
TORSDOF 9
ENDMDL
MODEL 8
REMARK VINA RESULT:      -7.4      3.058      5.971
REMARK  9 active torsions:
REMARK  status: ('A' for Active; 'I' for Inactive)
REMARK    1  A    between atoms: C_6  and  C_7 
REMARK    2  A    between atoms: C_7  and  C_8 
REMARK       I    between atoms: C_8  and  N_9 
REMARK    3  A    between atoms: N_9  and  C_10 
REMARK    4  A    between atoms: C_10  and  C_11 
REMARK    5  A    between atoms: C_11  and  N_12 
REMARK    6  A    between atoms: C_17  and  C_18 
REMARK    7  A    between atoms: C_21  and  C_22 
REMARK    8  A    between atoms: C_29  and  C_30 
REMARK       I    between atoms: C_30  and  N_31 
REMARK    9  A    between atoms: N_31  and  C_32 
ROOT
HETATM    1  C   UNL     1      42.027 -12.278  -0.765  1.00  0.00     0.071 C 
HETATM    2  C   UNL     1      42.184 -13.106   0.486  1.00  0.00     0.047 C 
HETATM    3  N   UNL     1      42.407 -12.341   1.648  1.00  0.00    -0.229 NA
HETATM    4  C   UNL     1      41.964 -12.830   2.766  1.00  0.00     0.170 C 
HETATM    5  N   UNL     1      41.370 -14.312   2.865  1.00  0.00    -0.319 N 
HETATM    6  C   UNL     1      40.163 -14.053   3.280  1.00  0.00     0.011 C 
HETATM    7  C   UNL     1      42.164 -15.060   1.877  1.00  0.00     0.165 C 
HETATM    8  S   UNL     1      41.519 -11.911   4.169  1.00  0.00    -0.086 SA
HETATM    9  C   UNL     1      40.221 -13.182   4.539  1.00  0.00     0.135 C 
HETATM   10  C   UNL     1      41.965 -14.447   0.538  1.00  0.00     0.062 C 
ENDROOT
BRANCH   6  11
HETATM   11  C   UNL     1      39.035 -13.886   2.291  1.00  0.00     0.156 C 
BRANCH  11  12
HETATM   12  C   UNL     1      38.708 -12.526   1.751  1.00  0.00     0.223 C 
HETATM   13  N   UNL     1      38.041 -11.729   2.663  1.00  0.00    -0.359 N 
HETATM   14  H   UNL     1      38.375 -11.811   3.632  1.00  0.00     0.162 HD
HETATM   15  O   UNL     1      38.894 -12.234   0.580  1.00  0.00    -0.273 OA
BRANCH  13  16
HETATM   16  C   UNL     1      37.534 -10.404   2.304  1.00  0.00     0.150 C 
BRANCH  16  17
HETATM   17  C   UNL     1      36.258 -10.463   1.438  1.00  0.00     0.253 C 
BRANCH  17  18
HETATM   18  N   UNL     1      36.560 -10.114  -0.019  1.00  0.00    -0.077 N 
HETATM   19  H   UNL     1      36.923 -10.976  -0.442  1.00  0.00     0.279 HD
HETATM   20  C   UNL     1      35.350  -9.703  -0.816  1.00  0.00     0.269 C 
HETATM   21  C   UNL     1      37.644  -9.072  -0.128  1.00  0.00     0.269 C 
ENDBRANCH  17  18
ENDBRANCH  16  17
ENDBRANCH  13  16
ENDBRANCH  11  12
ENDBRANCH   6  11
BRANCH   7  22
HETATM   22  C   UNL     1      42.513 -16.515   2.108  1.00  0.00    -0.030 A 
HETATM   23  C   UNL     1      42.084 -17.271   3.201  1.00  0.00     0.010 A 
HETATM   24  C   UNL     1      42.732 -18.481   3.518  1.00  0.00     0.008 A 
HETATM   25  C   UNL     1      43.803 -18.968   2.748  1.00  0.00    -0.055 A 
HETATM   26  C   UNL     1      44.148 -18.274   1.590  1.00  0.00     0.008 A 
HETATM   27  C   UNL     1      43.529 -17.063   1.286  1.00  0.00     0.010 A 
BRANCH  25  28
HETATM   28  C   UNL     1      44.584 -20.195   3.203  1.00  0.00     0.010 C 
HETATM   29  C   UNL     1      44.470 -20.392   4.713  1.00  0.00     0.015 C 
HETATM   30  C   UNL     1      44.173 -21.482   2.469  1.00  0.00     0.015 C 
ENDBRANCH  25  28
ENDBRANCH   7  22
BRANCH  10  31
HETATM   31  C   UNL     1      41.088 -15.110  -0.466  1.00  0.00     0.256 C 
HETATM   32  N   UNL     1      40.129 -14.325  -1.047  1.00  0.00    -0.323 N 
HETATM   33  H   UNL     1      40.003 -13.368  -0.740  1.00  0.00     0.169 HD
HETATM   34  O   UNL     1      41.421 -16.241  -0.825  1.00  0.00    -0.267 OA
BRANCH  32  35
HETATM   35  C   UNL     1      39.337 -14.666  -2.170  1.00  0.00     0.035 A 
HETATM   36  C   UNL     1      38.028 -14.220  -2.363  1.00  0.00     0.029 A 
HETATM   37  C   UNL     1      37.303 -14.620  -3.491  1.00  0.00     0.002 A 
HETATM   38  C   UNL     1      37.878 -15.473  -4.428  1.00  0.00     0.000 A 
HETATM   39  C   UNL     1      39.187 -15.914  -4.250  1.00  0.00     0.002 A 
HETATM   40  C   UNL     1      39.918 -15.503  -3.132  1.00  0.00     0.029 A 
ENDBRANCH  32  35
ENDBRANCH  10  31
TORSDOF 9
ENDMDL
MODEL 9
REMARK VINA RESULT:      -7.2      1.806      2.426
REMARK  9 active torsions:
REMARK  status: ('A' for Active; 'I' for Inactive)
REMARK    1  A    between atoms: C_6  and  C_7 
REMARK    2  A    between atoms: C_7  and  C_8 
REMARK       I    between atoms: C_8  and  N_9 
REMARK    3  A    between atoms: N_9  and  C_10 
REMARK    4  A    between atoms: C_10  and  C_11 
REMARK    5  A    between atoms: C_11  and  N_12 
REMARK    6  A    between atoms: C_17  and  C_18 
REMARK    7  A    between atoms: C_21  and  C_22 
REMARK    8  A    between atoms: C_29  and  C_30 
REMARK       I    between atoms: C_30  and  N_31 
REMARK    9  A    between atoms: N_31  and  C_32 
ROOT
HETATM    1  C   UNL     1      37.795 -12.225   0.566  1.00  0.00     0.071 C 
HETATM    2  C   UNL     1      38.600 -13.428   0.142  1.00  0.00     0.047 C 
HETATM    3  N   UNL     1      38.347 -13.845  -1.179  1.00  0.00    -0.229 NA
HETATM    4  C   UNL     1      39.330 -14.402  -1.817  1.00  0.00     0.170 C 
HETATM    5  N   UNL     1      40.702 -14.785  -1.089  1.00  0.00    -0.319 N 
HETATM    6  C   UNL     1      41.542 -14.073  -1.786  1.00  0.00     0.011 C 
HETATM    7  C   UNL     1      40.273 -15.141   0.273  1.00  0.00     0.165 C 
HETATM    8  S   UNL     1      39.538 -14.427  -3.540  1.00  0.00    -0.086 SA
HETATM    9  C   UNL     1      41.372 -14.380  -3.277  1.00  0.00     0.135 C 
HETATM   10  C   UNL     1      39.602 -13.968   0.887  1.00  0.00     0.062 C 
ENDROOT
BRANCH   6  11
HETATM   11  C   UNL     1      41.925 -12.686  -1.333  1.00  0.00     0.156 C 
BRANCH  11  12
HETATM   12  C   UNL     1      41.575 -11.499  -2.180  1.00  0.00     0.223 C 
HETATM   13  N   UNL     1      42.686 -10.874  -2.719  1.00  0.00    -0.359 N 
HETATM   14  H   UNL     1      43.425 -11.512  -3.039  1.00  0.00     0.162 HD
HETATM   15  O   UNL     1      40.435 -11.068  -2.250  1.00  0.00    -0.273 OA
BRANCH  13  16
HETATM   16  C   UNL     1      42.576  -9.634  -3.488  1.00  0.00     0.150 C 
BRANCH  16  17
HETATM   17  C   UNL     1      42.281  -9.877  -4.983  1.00  0.00     0.253 C 
BRANCH  17  18
HETATM   18  N   UNL     1      40.779  -9.839  -5.265  1.00  0.00    -0.077 N 
HETATM   19  H   UNL     1      40.385 -10.655  -4.783  1.00  0.00     0.279 HD
HETATM   20  C   UNL     1      40.082  -8.621  -4.719  1.00  0.00     0.269 C 
HETATM   21  C   UNL     1      40.485 -10.002  -6.735  1.00  0.00     0.269 C 
ENDBRANCH  17  18
ENDBRANCH  16  17
ENDBRANCH  13  16
ENDBRANCH  11  12
ENDBRANCH   6  11
BRANCH   7  22
HETATM   22  C   UNL     1      40.997 -16.219   1.053  1.00  0.00    -0.030 A 
HETATM   23  C   UNL     1      40.636 -16.653   2.331  1.00  0.00     0.010 A 
HETATM   24  C   UNL     1      41.552 -17.384   3.111  1.00  0.00     0.008 A 
HETATM   25  C   UNL     1      42.833 -17.711   2.632  1.00  0.00    -0.055 A 
HETATM   26  C   UNL     1      43.145 -17.382   1.315  1.00  0.00     0.008 A 
HETATM   27  C   UNL     1      42.254 -16.635   0.547  1.00  0.00     0.010 A 
BRANCH  25  28
HETATM   28  C   UNL     1      43.857 -18.365   3.553  1.00  0.00     0.010 C 
HETATM   29  C   UNL     1      43.322 -18.477   4.979  1.00  0.00     0.015 C 
HETATM   30  C   UNL     1      44.328 -19.741   3.055  1.00  0.00     0.015 C 
ENDBRANCH  25  28
ENDBRANCH   7  22
BRANCH  10  31
HETATM   31  C   UNL     1      40.313 -13.148   1.907  1.00  0.00     0.256 C 
HETATM   32  N   UNL     1      39.885 -13.283   3.200  1.00  0.00    -0.323 N 
HETATM   33  H   UNL     1      39.082 -13.863   3.410  1.00  0.00     0.169 HD
HETATM   34  O   UNL     1      41.338 -12.574   1.534  1.00  0.00    -0.267 OA
BRANCH  32  35
HETATM   35  C   UNL     1      40.538 -12.786   4.353  1.00  0.00     0.035 A 
HETATM   36  C   UNL     1      41.653 -13.391   4.939  1.00  0.00     0.029 A 
HETATM   37  C   UNL     1      42.228 -12.849   6.093  1.00  0.00     0.002 A 
HETATM   38  C   UNL     1      41.691 -11.704   6.673  1.00  0.00     0.000 A 
HETATM   39  C   UNL     1      40.588 -11.086   6.091  1.00  0.00     0.002 A 
HETATM   40  C   UNL     1      40.021 -11.618   4.929  1.00  0.00     0.029 A 
ENDBRANCH  32  35
ENDBRANCH  10  31
TORSDOF 9
ENDMDL
MODEL 10
REMARK VINA RESULT:      -7.1      2.751      8.751
REMARK  9 active torsions:
REMARK  status: ('A' for Active; 'I' for Inactive)
REMARK    1  A    between atoms: C_6  and  C_7 
REMARK    2  A    between atoms: C_7  and  C_8 
REMARK       I    between atoms: C_8  and  N_9 
REMARK    3  A    between atoms: N_9  and  C_10 
REMARK    4  A    between atoms: C_10  and  C_11 
REMARK    5  A    between atoms: C_11  and  N_12 
REMARK    6  A    between atoms: C_17  and  C_18 
REMARK    7  A    between atoms: C_21  and  C_22 
REMARK    8  A    between atoms: C_29  and  C_30 
REMARK       I    between atoms: C_30  and  N_31 
REMARK    9  A    between atoms: N_31  and  C_32 
ROOT
HETATM    1  C   UNL     1      43.406 -16.561   1.327  1.00  0.00     0.071 C 
HETATM    2  C   UNL     1      42.086 -16.226   1.976  1.00  0.00     0.047 C 
HETATM    3  N   UNL     1      41.686 -17.151   2.961  1.00  0.00    -0.229 NA
HETATM    4  C   UNL     1      40.973 -16.691   3.942  1.00  0.00     0.170 C 
HETATM    5  N   UNL     1      40.401 -15.196   3.946  1.00  0.00    -0.319 N 
HETATM    6  C   UNL     1      40.963 -14.734   5.026  1.00  0.00     0.011 C 
HETATM    7  C   UNL     1      40.142 -14.932   2.522  1.00  0.00     0.165 C 
HETATM    8  S   UNL     1      40.883 -17.370   5.537  1.00  0.00    -0.086 SA
HETATM    9  C   UNL     1      40.656 -15.658   6.209  1.00  0.00     0.135 C 
HETATM   10  C   UNL     1      41.416 -15.060   1.769  1.00  0.00     0.062 C 
ENDROOT
BRANCH   6  11
HETATM   11  C   UNL     1      42.286 -14.011   4.949  1.00  0.00     0.156 C 
BRANCH  11  12
HETATM   12  C   UNL     1      43.384 -14.355   5.910  1.00  0.00     0.223 C 
HETATM   13  N   UNL     1      43.861 -15.643   5.747  1.00  0.00    -0.359 N 
HETATM   14  H   UNL     1      43.942 -15.951   4.770  1.00  0.00     0.162 HD
HETATM   15  O   UNL     1      43.702 -13.608   6.822  1.00  0.00    -0.273 OA
BRANCH  13  16
HETATM   16  C   UNL     1      44.858 -16.217   6.651  1.00  0.00     0.150 C 
BRANCH  16  17
HETATM   17  C   UNL     1      45.003 -17.745   6.493  1.00  0.00     0.253 C 
BRANCH  17  18
HETATM   18  N   UNL     1      44.406 -18.486   7.690  1.00  0.00    -0.077 N 
HETATM   19  H   UNL     1      45.202 -18.731   8.291  1.00  0.00     0.279 HD
HETATM   20  C   UNL     1      43.463 -17.655   8.519  1.00  0.00     0.269 C 
HETATM   21  C   UNL     1      43.748 -19.777   7.273  1.00  0.00     0.269 C 
ENDBRANCH  17  18
ENDBRANCH  16  17
ENDBRANCH  13  16
ENDBRANCH  11  12
ENDBRANCH   6  11
BRANCH   7  22
HETATM   22  C   UNL     1      38.983 -14.054   2.098  1.00  0.00    -0.030 A 
HETATM   23  C   UNL     1      38.047 -14.391   1.117  1.00  0.00     0.010 A 
HETATM   24  C   UNL     1      37.236 -13.393   0.545  1.00  0.00     0.008 A 
HETATM   25  C   UNL     1      37.327 -12.049   0.947  1.00  0.00    -0.055 A 
HETATM   26  C   UNL     1      38.173 -11.736   2.008  1.00  0.00     0.008 A 
HETATM   27  C   UNL     1      38.998 -12.714   2.559  1.00  0.00     0.010 A 
BRANCH  25  28
HETATM   28  C   UNL     1      36.550 -10.968   0.204  1.00  0.00     0.010 C 
HETATM   29  C   UNL     1      35.054 -11.062   0.501  1.00  0.00     0.015 C 
HETATM   30  C   UNL     1      37.058  -9.546   0.495  1.00  0.00     0.015 C 
ENDBRANCH  25  28
ENDBRANCH   7  22
BRANCH  10  31
HETATM   31  C   UNL     1      42.139 -13.844   1.307  1.00  0.00     0.256 C 
HETATM   32  N   UNL     1      41.697 -13.282   0.140  1.00  0.00    -0.323 N 
HETATM   33  H   UNL     1      40.962 -13.731  -0.393  1.00  0.00     0.169 HD
HETATM   34  O   UNL     1      42.934 -13.341   2.103  1.00  0.00    -0.267 OA
BRANCH  32  35
HETATM   35  C   UNL     1      42.073 -12.017  -0.374  1.00  0.00     0.035 A 
HETATM   36  C   UNL     1      42.870 -11.843  -1.507  1.00  0.00     0.029 A 
HETATM   37  C   UNL     1      43.216 -10.558  -1.939  1.00  0.00     0.002 A 
HETATM   38  C   UNL     1      42.774  -9.440  -1.238  1.00  0.00     0.000 A 
HETATM   39  C   UNL     1      41.970  -9.602  -0.114  1.00  0.00     0.002 A 
HETATM   40  C   UNL     1      41.610 -10.885   0.310  1.00  0.00     0.029 A 
ENDBRANCH  32  35
ENDBRANCH  10  31
TORSDOF 9
ENDMDL
