MODEL 1
REMARK VINA RESULT:      -9.6      0.000      0.000
REMARK  6 active torsions:
REMARK  status: ('A' for Active; 'I' for Inactive)
REMARK    1  A    between atoms: O_2  and  C_3 
REMARK    2  A    between atoms: C_6  and  C_7 
REMARK    3  A    between atoms: C_7  and  N_8 
REMARK       I    between atoms: N_8  and  C_9 
REMARK    4  A    between atoms: C_9  and  C_10 
REMARK    5  A    between atoms: C_13  and  C_14 
REMARK    6  A    between atoms: C_19  and  C_20 
ROOT
HETATM    1  C   UNL     1      42.785 -14.506   5.663  1.00  0.00     0.096 A 
HETATM    2  C   UNL     1      42.486 -15.525   4.777  1.00  0.00     0.138 A 
HETATM    3  N   UNL     1      41.370 -15.110   4.086  1.00  0.00    -0.240 N 
HETATM    4  C   UNL     1      40.669 -15.914   3.099  1.00  0.00     0.221 C 
HETATM    5  C   UNL     1      41.545 -17.091   2.634  1.00  0.00     0.066 C 
HETATM    6  C   UNL     1      42.233 -17.747   3.836  1.00  0.00     0.118 C 
HETATM    7  N   UNL     1      43.043 -16.744   4.536  1.00  0.00    -0.365 N 
HETATM    8  N   UNL     1      40.837 -13.976   4.567  1.00  0.00    -0.181 NA
HETATM    9  C   UNL     1      41.714 -13.593   5.499  1.00  0.00     0.160 A 
HETATM   10  H   UNL     1      43.608 -17.165   5.276  1.00  0.00     0.161 HD
ENDROOT
BRANCH   1  11
HETATM   11  C   UNL     1      43.879 -14.382   6.606  1.00  0.00     0.257 C 
HETATM   12  N   UNL     1      43.862 -13.234   7.363  1.00  0.00    -0.352 N 
HETATM   13  H   UNL     1      43.020 -12.673   7.353  1.00  0.00     0.163 HD
HETATM   14  O   UNL     1      44.735 -15.252   6.721  1.00  0.00    -0.267 OA
BRANCH  12  15
HETATM   15  C   UNL     1      44.878 -12.946   8.347  1.00  0.00     0.161 C 
BRANCH  15  16
HETATM   16  C   UNL     1      44.449 -11.884   9.327  1.00  0.00    -0.040 A 
HETATM   17  C   UNL     1      43.259 -11.170   9.139  1.00  0.00     0.011 A 
HETATM   18  C   UNL     1      42.839 -10.231  10.084  1.00  0.00     0.037 A 
HETATM   19  C   UNL     1      43.584 -10.001  11.241  1.00  0.00     0.068 A 
HETATM   20  C   UNL     1      44.777 -10.697  11.431  1.00  0.00     0.037 A 
HETATM   21  C   UNL     1      45.205 -11.633  10.482  1.00  0.00     0.011 A 
BRANCH  19  22
HETATM   22  O   UNL     1      43.052  -9.078  12.099  1.00  0.00    -0.356 OA
HETATM   23  C   UNL     1      43.189  -9.351  13.488  1.00  0.00     0.210 C 
ENDBRANCH  19  22
ENDBRANCH  15  16
ENDBRANCH  12  15
ENDBRANCH   1  11
BRANCH   4  24
HETATM   24  C   UNL     1      40.243 -15.093   1.901  1.00  0.00     0.409 C 
HETATM   25  F   UNL     1      41.059 -14.037   1.682  1.00  0.00    -0.169 F 
HETATM   26  F   UNL     1      40.301 -15.865   0.780  1.00  0.00    -0.169 F 
HETATM   27  F   UNL     1      38.975 -14.643   1.975  1.00  0.00    -0.169 F 
ENDBRANCH   4  24
BRANCH   6  28
HETATM   28  C   UNL     1      43.117 -18.908   3.424  1.00  0.00    -0.035 A 
HETATM   29  C   UNL     1      42.973 -19.529   2.172  1.00  0.00     0.009 A 
HETATM   30  C   UNL     1      43.785 -20.605   1.812  1.00  0.00     0.001 A 
HETATM   31  C   UNL     1      44.754 -21.073   2.696  1.00  0.00     0.000 A 
HETATM   32  C   UNL     1      44.914 -20.465   3.939  1.00  0.00     0.001 A 
HETATM   33  C   UNL     1      44.101 -19.389   4.302  1.00  0.00     0.009 A 
ENDBRANCH   6  28
TORSDOF 6
ENDMDL
MODEL 2
REMARK VINA RESULT:      -9.4      5.358      9.064
REMARK  6 active torsions:
REMARK  status: ('A' for Active; 'I' for Inactive)
REMARK    1  A    between atoms: O_2  and  C_3 
REMARK    2  A    between atoms: C_6  and  C_7 
REMARK    3  A    between atoms: C_7  and  N_8 
REMARK       I    between atoms: N_8  and  C_9 
REMARK    4  A    between atoms: C_9  and  C_10 
REMARK    5  A    between atoms: C_13  and  C_14 
REMARK    6  A    between atoms: C_19  and  C_20 
ROOT
HETATM    1  C   UNL     1      41.723 -15.537   1.686  1.00  0.00     0.096 A 
HETATM    2  C   UNL     1      42.195 -16.479   2.582  1.00  0.00     0.138 A 
HETATM    3  N   UNL     1      41.970 -15.956   3.835  1.00  0.00    -0.240 N 
HETATM    4  C   UNL     1      42.383 -16.589   5.076  1.00  0.00     0.221 C 
HETATM    5  C   UNL     1      42.724 -18.072   4.843  1.00  0.00     0.066 C 
HETATM    6  C   UNL     1      43.556 -18.231   3.567  1.00  0.00     0.118 C 
HETATM    7  N   UNL     1      42.805 -17.687   2.430  1.00  0.00    -0.365 N 
HETATM    8  N   UNL     1      41.536 -14.686   3.812  1.00  0.00    -0.181 NA
HETATM    9  C   UNL     1      41.354 -14.445   2.510  1.00  0.00     0.160 A 
HETATM   10  H   UNL     1      43.275 -17.875   1.542  1.00  0.00     0.161 HD
ENDROOT
BRANCH   1  11
HETATM   11  C   UNL     1      41.663 -15.576   0.238  1.00  0.00     0.257 C 
HETATM   12  N   UNL     1      41.770 -14.351  -0.378  1.00  0.00    -0.352 N 
HETATM   13  H   UNL     1      42.069 -13.563   0.184  1.00  0.00     0.163 HD
HETATM   14  O   UNL     1      41.545 -16.630  -0.376  1.00  0.00    -0.267 OA
BRANCH  12  15
HETATM   15  C   UNL     1      41.725 -14.205  -1.813  1.00  0.00     0.161 C 
BRANCH  15  16
HETATM   16  C   UNL     1      40.366 -14.521  -2.383  1.00  0.00    -0.040 A 
HETATM   17  C   UNL     1      39.231 -13.808  -1.977  1.00  0.00     0.011 A 
HETATM   18  C   UNL     1      37.986 -14.067  -2.556  1.00  0.00     0.037 A 
HETATM   19  C   UNL     1      37.853 -15.024  -3.562  1.00  0.00     0.068 A 
HETATM   20  C   UNL     1      38.974 -15.749  -3.964  1.00  0.00     0.037 A 
HETATM   21  C   UNL     1      40.222 -15.497  -3.380  1.00  0.00     0.011 A 
BRANCH  19  22
HETATM   22  O   UNL     1      36.588 -15.163  -4.065  1.00  0.00    -0.356 OA
HETATM   23  C   UNL     1      36.038 -14.026  -4.719  1.00  0.00     0.210 C 
ENDBRANCH  19  22
ENDBRANCH  15  16
ENDBRANCH  12  15
ENDBRANCH   1  11
BRANCH   4  24
HETATM   24  C   UNL     1      41.322 -16.474   6.149  1.00  0.00     0.409 C 
HETATM   25  F   UNL     1      40.921 -15.197   6.345  1.00  0.00    -0.169 F 
HETATM   26  F   UNL     1      40.216 -17.171   5.768  1.00  0.00    -0.169 F 
HETATM   27  F   UNL     1      41.694 -16.991   7.337  1.00  0.00    -0.169 F 
ENDBRANCH   4  24
BRANCH   6  28
HETATM   28  C   UNL     1      43.908 -19.679   3.291  1.00  0.00    -0.035 A 
HETATM   29  C   UNL     1      44.537 -20.476   4.261  1.00  0.00     0.009 A 
HETATM   30  C   UNL     1      44.867 -21.804   3.988  1.00  0.00     0.001 A 
HETATM   31  C   UNL     1      44.569 -22.355   2.745  1.00  0.00     0.000 A 
HETATM   32  C   UNL     1      43.940 -21.579   1.773  1.00  0.00     0.001 A 
HETATM   33  C   UNL     1      43.611 -20.250   2.043  1.00  0.00     0.009 A 
ENDBRANCH   6  28
TORSDOF 6
ENDMDL
MODEL 3
REMARK VINA RESULT:      -9.3      5.006      8.193
REMARK  6 active torsions:
REMARK  status: ('A' for Active; 'I' for Inactive)
REMARK    1  A    between atoms: O_2  and  C_3 
REMARK    2  A    between atoms: C_6  and  C_7 
REMARK    3  A    between atoms: C_7  and  N_8 
REMARK       I    between atoms: N_8  and  C_9 
REMARK    4  A    between atoms: C_9  and  C_10 
REMARK    5  A    between atoms: C_13  and  C_14 
REMARK    6  A    between atoms: C_19  and  C_20 
ROOT
HETATM    1  C   UNL     1      41.041 -15.665   3.653  1.00  0.00     0.096 A 
HETATM    2  C   UNL     1      42.025 -16.567   4.013  1.00  0.00     0.138 A 
HETATM    3  N   UNL     1      42.596 -16.066   5.162  1.00  0.00    -0.240 N 
HETATM    4  C   UNL     1      43.729 -16.666   5.845  1.00  0.00     0.221 C 
HETATM    5  C   UNL     1      43.943 -18.116   5.375  1.00  0.00     0.066 C 
HETATM    6  C   UNL     1      43.809 -18.205   3.851  1.00  0.00     0.118 C 
HETATM    7  N   UNL     1      42.482 -17.721   3.454  1.00  0.00    -0.365 N 
HETATM    8  N   UNL     1      42.164 -14.835   5.478  1.00  0.00    -0.181 NA
HETATM    9  C   UNL     1      41.198 -14.608   4.583  1.00  0.00     0.160 A 
HETATM   10  H   UNL     1      42.309 -17.870   2.458  1.00  0.00     0.161 HD
ENDROOT
BRANCH   1  11
HETATM   11  C   UNL     1      40.097 -15.706   2.554  1.00  0.00     0.257 C 
HETATM   12  N   UNL     1      39.489 -14.505   2.269  1.00  0.00    -0.352 N 
HETATM   13  H   UNL     1      39.870 -13.669   2.695  1.00  0.00     0.163 HD
HETATM   14  O   UNL     1      39.882 -16.735   1.925  1.00  0.00    -0.267 OA
BRANCH  12  15
HETATM   15  C   UNL     1      38.518 -14.366   1.211  1.00  0.00     0.161 C 
BRANCH  15  16
HETATM   16  C   UNL     1      39.145 -13.957  -0.098  1.00  0.00    -0.040 A 
HETATM   17  C   UNL     1      40.509 -13.650  -0.178  1.00  0.00     0.011 A 
HETATM   18  C   UNL     1      41.094 -13.331  -1.405  1.00  0.00     0.037 A 
HETATM   19  C   UNL     1      40.337 -13.333  -2.577  1.00  0.00     0.068 A 
HETATM   20  C   UNL     1      38.976 -13.625  -2.507  1.00  0.00     0.037 A 
HETATM   21  C   UNL     1      38.385 -13.937  -1.276  1.00  0.00     0.011 A 
BRANCH  19  22
HETATM   22  O   UNL     1      41.032 -13.031  -3.716  1.00  0.00    -0.356 OA
HETATM   23  C   UNL     1      42.128 -12.136  -3.571  1.00  0.00     0.210 C 
ENDBRANCH  19  22
ENDBRANCH  15  16
ENDBRANCH  12  15
ENDBRANCH   1  11
BRANCH   4  24
HETATM   24  C   UNL     1      43.561 -16.639   7.349  1.00  0.00     0.409 C 
HETATM   25  F   UNL     1      42.292 -16.908   7.731  1.00  0.00    -0.169 F 
HETATM   26  F   UNL     1      44.344 -17.602   7.909  1.00  0.00    -0.169 F 
HETATM   27  F   UNL     1      43.940 -15.477   7.917  1.00  0.00    -0.169 F 
ENDBRANCH   4  24
BRANCH   6  28
HETATM   28  C   UNL     1      44.002 -19.619   3.342  1.00  0.00    -0.035 A 
HETATM   29  C   UNL     1      43.547 -20.008   2.071  1.00  0.00     0.009 A 
HETATM   30  C   UNL     1      43.720 -21.318   1.621  1.00  0.00     0.001 A 
HETATM   31  C   UNL     1      44.354 -22.255   2.432  1.00  0.00     0.000 A 
HETATM   32  C   UNL     1      44.817 -21.884   3.693  1.00  0.00     0.001 A 
HETATM   33  C   UNL     1      44.642 -20.575   4.146  1.00  0.00     0.009 A 
ENDBRANCH   6  28
TORSDOF 6
ENDMDL
MODEL 4
REMARK VINA RESULT:      -9.0      4.949      8.139
REMARK  6 active torsions:
REMARK  status: ('A' for Active; 'I' for Inactive)
REMARK    1  A    between atoms: O_2  and  C_3 
REMARK    2  A    between atoms: C_6  and  C_7 
REMARK    3  A    between atoms: C_7  and  N_8 
REMARK       I    between atoms: N_8  and  C_9 
REMARK    4  A    between atoms: C_9  and  C_10 
REMARK    5  A    between atoms: C_13  and  C_14 
REMARK    6  A    between atoms: C_19  and  C_20 
ROOT
HETATM    1  C   UNL     1      41.523 -15.546   3.215  1.00  0.00     0.096 A 
HETATM    2  C   UNL     1      42.354 -16.529   3.721  1.00  0.00     0.138 A 
HETATM    3  N   UNL     1      42.787 -16.066   4.944  1.00  0.00    -0.240 N 
HETATM    4  C   UNL     1      43.743 -16.757   5.792  1.00  0.00     0.221 C 
HETATM    5  C   UNL     1      43.891 -18.227   5.360  1.00  0.00     0.066 C 
HETATM    6  C   UNL     1      43.983 -18.324   3.834  1.00  0.00     0.118 C 
HETATM    7  N   UNL     1      42.782 -17.728   3.238  1.00  0.00    -0.365 N 
HETATM    8  N   UNL     1      42.427 -14.797   5.190  1.00  0.00    -0.181 NA
HETATM    9  C   UNL     1      41.632 -14.495   4.159  1.00  0.00     0.160 A 
HETATM   10  H   UNL     1      42.750 -17.873   2.227  1.00  0.00     0.161 HD
ENDROOT
BRANCH   1  11
HETATM   11  C   UNL     1      40.757 -15.516   1.985  1.00  0.00     0.257 C 
HETATM   12  N   UNL     1      41.512 -15.478   0.835  1.00  0.00    -0.352 N 
HETATM   13  H   UNL     1      42.504 -15.665   0.914  1.00  0.00     0.163 HD
HETATM   14  O   UNL     1      39.532 -15.543   1.985  1.00  0.00    -0.267 OA
BRANCH  12  15
HETATM   15  C   UNL     1      40.913 -15.439  -0.477  1.00  0.00     0.161 C 
BRANCH  15  16
HETATM   16  C   UNL     1      41.418 -14.288  -1.309  1.00  0.00    -0.040 A 
HETATM   17  C   UNL     1      41.247 -14.274  -2.699  1.00  0.00     0.011 A 
HETATM   18  C   UNL     1      41.663 -13.176  -3.455  1.00  0.00     0.037 A 
HETATM   19  C   UNL     1      42.238 -12.064  -2.839  1.00  0.00     0.068 A 
HETATM   20  C   UNL     1      42.426 -12.073  -1.458  1.00  0.00     0.037 A 
HETATM   21  C   UNL     1      42.017 -13.176  -0.698  1.00  0.00     0.011 A 
BRANCH  19  22
HETATM   22  O   UNL     1      42.578 -11.045  -3.685  1.00  0.00    -0.356 OA
HETATM   23  C   UNL     1      42.548  -9.732  -3.139  1.00  0.00     0.210 C 
ENDBRANCH  19  22
ENDBRANCH  15  16
ENDBRANCH  12  15
ENDBRANCH   1  11
BRANCH   4  24
HETATM   24  C   UNL     1      43.350 -16.694   7.253  1.00  0.00     0.409 C 
HETATM   25  F   UNL     1      43.913 -17.685   7.982  1.00  0.00    -0.169 F 
HETATM   26  F   UNL     1      43.790 -15.522   7.789  1.00  0.00    -0.169 F 
HETATM   27  F   UNL     1      42.018 -16.719   7.458  1.00  0.00    -0.169 F 
ENDBRANCH   4  24
BRANCH   6  28
HETATM   28  C   UNL     1      44.121 -19.757   3.360  1.00  0.00    -0.035 A 
HETATM   29  C   UNL     1      44.701 -20.744   4.173  1.00  0.00     0.009 A 
HETATM   30  C   UNL     1      44.833 -22.057   3.719  1.00  0.00     0.001 A 
HETATM   31  C   UNL     1      44.384 -22.403   2.447  1.00  0.00     0.000 A 
HETATM   32  C   UNL     1      43.800 -21.437   1.630  1.00  0.00     0.001 A 
HETATM   33  C   UNL     1      43.669 -20.122   2.082  1.00  0.00     0.009 A 
ENDBRANCH   6  28
TORSDOF 6
ENDMDL
MODEL 5
REMARK VINA RESULT:      -8.9      4.740      7.458
REMARK  6 active torsions:
REMARK  status: ('A' for Active; 'I' for Inactive)
REMARK    1  A    between atoms: O_2  and  C_3 
REMARK    2  A    between atoms: C_6  and  C_7 
REMARK    3  A    between atoms: C_7  and  N_8 
REMARK       I    between atoms: N_8  and  C_9 
REMARK    4  A    between atoms: C_9  and  C_10 
REMARK    5  A    between atoms: C_13  and  C_14 
REMARK    6  A    between atoms: C_19  and  C_20 
ROOT
HETATM    1  C   UNL     1      42.868 -14.857   3.778  1.00  0.00     0.096 A 
HETATM    2  C   UNL     1      43.249 -16.118   4.201  1.00  0.00     0.138 A 
HETATM    3  N   UNL     1      43.420 -16.024   5.564  1.00  0.00    -0.240 N 
HETATM    4  C   UNL     1      43.894 -17.107   6.409  1.00  0.00     0.221 C 
HETATM    5  C   UNL     1      43.787 -18.457   5.675  1.00  0.00     0.066 C 
HETATM    6  C   UNL     1      44.279 -18.315   4.231  1.00  0.00     0.118 C 
HETATM    7  N   UNL     1      43.484 -17.289   3.548  1.00  0.00    -0.365 N 
HETATM    8  N   UNL     1      43.333 -14.767   6.026  1.00  0.00    -0.181 NA
HETATM    9  C   UNL     1      42.964 -14.067   4.950  1.00  0.00     0.160 A 
HETATM   10  H   UNL     1      43.703 -17.243   2.551  1.00  0.00     0.161 HD
ENDROOT
BRANCH   1  11
HETATM   11  C   UNL     1      42.514 -14.387   2.454  1.00  0.00     0.257 C 
HETATM   12  N   UNL     1      41.772 -15.271   1.705  1.00  0.00    -0.352 N 
HETATM   13  H   UNL     1      41.373 -16.072   2.178  1.00  0.00     0.163 HD
HETATM   14  O   UNL     1      42.841 -13.276   2.054  1.00  0.00    -0.267 OA
BRANCH  12  15
HETATM   15  C   UNL     1      41.338 -14.968   0.363  1.00  0.00     0.161 C 
BRANCH  15  16
HETATM   16  C   UNL     1      40.019 -14.239   0.334  1.00  0.00    -0.040 A 
HETATM   17  C   UNL     1      38.931 -14.689   1.092  1.00  0.00     0.011 A 
HETATM   18  C   UNL     1      37.731 -13.973   1.107  1.00  0.00     0.037 A 
HETATM   19  C   UNL     1      37.601 -12.787   0.384  1.00  0.00     0.068 A 
HETATM   20  C   UNL     1      38.673 -12.337  -0.385  1.00  0.00     0.037 A 
HETATM   21  C   UNL     1      39.874 -13.057  -0.408  1.00  0.00     0.011 A 
BRANCH  19  22
HETATM   22  O   UNL     1      36.387 -12.167   0.503  1.00  0.00    -0.356 OA
HETATM   23  C   UNL     1      36.345 -10.786   0.166  1.00  0.00     0.210 C 
ENDBRANCH  19  22
ENDBRANCH  15  16
ENDBRANCH  12  15
ENDBRANCH   1  11
BRANCH   4  24
HETATM   24  C   UNL     1      43.133 -17.178   7.715  1.00  0.00     0.409 C 
HETATM   25  F   UNL     1      41.799 -17.037   7.545  1.00  0.00    -0.169 F 
HETATM   26  F   UNL     1      43.322 -18.402   8.283  1.00  0.00    -0.169 F 
HETATM   27  F   UNL     1      43.543 -16.278   8.631  1.00  0.00    -0.169 F 
ENDBRANCH   4  24
BRANCH   6  28
HETATM   28  C   UNL     1      44.183 -19.619   3.465  1.00  0.00    -0.035 A 
HETATM   29  C   UNL     1      44.764 -20.801   3.956  1.00  0.00     0.009 A 
HETATM   30  C   UNL     1      44.679 -21.991   3.233  1.00  0.00     0.001 A 
HETATM   31  C   UNL     1      44.010 -22.019   2.012  1.00  0.00     0.000 A 
HETATM   32  C   UNL     1      43.423 -20.857   1.514  1.00  0.00     0.001 A 
HETATM   33  C   UNL     1      43.509 -19.665   2.235  1.00  0.00     0.009 A 
ENDBRANCH   6  28
TORSDOF 6
ENDMDL
MODEL 6
REMARK VINA RESULT:      -8.8      4.489      7.812
REMARK  6 active torsions:
REMARK  status: ('A' for Active; 'I' for Inactive)
REMARK    1  A    between atoms: O_2  and  C_3 
REMARK    2  A    between atoms: C_6  and  C_7 
REMARK    3  A    between atoms: C_7  and  N_8 
REMARK       I    between atoms: N_8  and  C_9 
REMARK    4  A    between atoms: C_9  and  C_10 
REMARK    5  A    between atoms: C_13  and  C_14 
REMARK    6  A    between atoms: C_19  and  C_20 
ROOT
HETATM    1  C   UNL     1      43.267 -15.256   5.421  1.00  0.00     0.096 A 
HETATM    2  C   UNL     1      43.656 -16.583   5.403  1.00  0.00     0.138 A 
HETATM    3  N   UNL     1      44.113 -16.861   6.672  1.00  0.00    -0.240 N 
HETATM    4  C   UNL     1      44.690 -18.131   7.077  1.00  0.00     0.221 C 
HETATM    5  C   UNL     1      44.356 -19.232   6.054  1.00  0.00     0.066 C 
HETATM    6  C   UNL     1      44.542 -18.705   4.627  1.00  0.00     0.118 C 
HETATM    7  N   UNL     1      43.681 -17.534   4.429  1.00  0.00    -0.365 N 
HETATM    8  N   UNL     1      44.197 -15.776   7.457  1.00  0.00    -0.181 NA
HETATM    9  C   UNL     1      43.651 -14.811   6.710  1.00  0.00     0.160 A 
HETATM   10  H   UNL     1      43.689 -17.220   3.456  1.00  0.00     0.161 HD
ENDROOT
BRANCH   1  11
HETATM   11  C   UNL     1      42.671 -14.445   4.377  1.00  0.00     0.257 C 
HETATM   12  N   UNL     1      41.320 -14.634   4.200  1.00  0.00    -0.352 N 
HETATM   13  H   UNL     1      40.818 -15.155   4.908  1.00  0.00     0.163 HD
HETATM   14  O   UNL     1      43.331 -13.644   3.725  1.00  0.00    -0.267 OA
BRANCH  12  15
HETATM   15  C   UNL     1      40.568 -13.914   3.201  1.00  0.00     0.161 C 
BRANCH  15  16
HETATM   16  C   UNL     1      40.704 -14.519   1.827  1.00  0.00    -0.040 A 
HETATM   17  C   UNL     1      40.487 -13.750   0.677  1.00  0.00     0.011 A 
HETATM   18  C   UNL     1      40.675 -14.302  -0.592  1.00  0.00     0.037 A 
HETATM   19  C   UNL     1      41.103 -15.622  -0.738  1.00  0.00     0.068 A 
HETATM   20  C   UNL     1      41.309 -16.401   0.399  1.00  0.00     0.037 A 
HETATM   21  C   UNL     1      41.113 -15.852   1.673  1.00  0.00     0.011 A 
BRANCH  19  22
HETATM   22  O   UNL     1      41.276 -16.035  -2.031  1.00  0.00    -0.356 OA
HETATM   23  C   UNL     1      40.625 -15.265  -3.034  1.00  0.00     0.210 C 
ENDBRANCH  19  22
ENDBRANCH  15  16
ENDBRANCH  12  15
ENDBRANCH   1  11
BRANCH   4  24
HETATM   24  C   UNL     1      44.217 -18.554   8.451  1.00  0.00     0.409 C 
HETATM   25  F   UNL     1      43.300 -17.703   8.966  1.00  0.00    -0.169 F 
HETATM   26  F   UNL     1      43.610 -19.770   8.366  1.00  0.00    -0.169 F 
HETATM   27  F   UNL     1      45.214 -18.699   9.347  1.00  0.00    -0.169 F 
ENDBRANCH   4  24
BRANCH   6  28
HETATM   28  C   UNL     1      44.214 -19.754   3.584  1.00  0.00    -0.035 A 
HETATM   29  C   UNL     1      44.713 -21.063   3.680  1.00  0.00     0.009 A 
HETATM   30  C   UNL     1      44.413 -22.015   2.704  1.00  0.00     0.001 A 
HETATM   31  C   UNL     1      43.607 -21.673   1.622  1.00  0.00     0.000 A 
HETATM   32  C   UNL     1      43.099 -20.380   1.514  1.00  0.00     0.001 A 
HETATM   33  C   UNL     1      43.400 -19.426   2.488  1.00  0.00     0.009 A 
ENDBRANCH   6  28
TORSDOF 6
ENDMDL
MODEL 7
REMARK VINA RESULT:      -8.6      5.008      8.894
REMARK  6 active torsions:
REMARK  status: ('A' for Active; 'I' for Inactive)
REMARK    1  A    between atoms: O_2  and  C_3 
REMARK    2  A    between atoms: C_6  and  C_7 
REMARK    3  A    between atoms: C_7  and  N_8 
REMARK       I    between atoms: N_8  and  C_9 
REMARK    4  A    between atoms: C_9  and  C_10 
REMARK    5  A    between atoms: C_13  and  C_14 
REMARK    6  A    between atoms: C_19  and  C_20 
ROOT
HETATM    1  C   UNL     1      41.835 -15.245   1.322  1.00  0.00     0.096 A 
HETATM    2  C   UNL     1      42.453 -16.084   2.231  1.00  0.00     0.138 A 
HETATM    3  N   UNL     1      42.611 -15.345   3.382  1.00  0.00    -0.240 N 
HETATM    4  C   UNL     1      43.288 -15.820   4.577  1.00  0.00     0.221 C 
HETATM    5  C   UNL     1      43.439 -17.352   4.545  1.00  0.00     0.066 C 
HETATM    6  C   UNL     1      43.886 -17.812   3.154  1.00  0.00     0.118 C 
HETATM    7  N   UNL     1      42.904 -17.367   2.159  1.00  0.00    -0.365 N 
HETATM    8  N   UNL     1      42.287 -14.051   3.233  1.00  0.00    -0.181 NA
HETATM    9  C   UNL     1      41.784 -13.999   1.996  1.00  0.00     0.160 A 
HETATM   10  H   UNL     1      43.106 -17.750   1.233  1.00  0.00     0.161 HD
ENDROOT
BRANCH   1  11
HETATM   11  C   UNL     1      41.389 -15.505  -0.032  1.00  0.00     0.257 C 
HETATM   12  N   UNL     1      41.013 -14.388  -0.741  1.00  0.00    -0.352 N 
HETATM   13  H   UNL     1      41.250 -13.482  -0.357  1.00  0.00     0.163 HD
HETATM   14  O   UNL     1      41.373 -16.637  -0.501  1.00  0.00    -0.267 OA
BRANCH  12  15
HETATM   15  C   UNL     1      40.539 -14.465  -2.102  1.00  0.00     0.161 C 
BRANCH  15  16
HETATM   16  C   UNL     1      40.891 -13.239  -2.907  1.00  0.00    -0.040 A 
HETATM   17  C   UNL     1      39.899 -12.498  -3.561  1.00  0.00     0.011 A 
HETATM   18  C   UNL     1      40.226 -11.329  -4.253  1.00  0.00     0.037 A 
HETATM   19  C   UNL     1      41.543 -10.868  -4.288  1.00  0.00     0.068 A 
HETATM   20  C   UNL     1      42.540 -11.605  -3.652  1.00  0.00     0.037 A 
HETATM   21  C   UNL     1      42.215 -12.781  -2.964  1.00  0.00     0.011 A 
BRANCH  19  22
HETATM   22  O   UNL     1      41.728  -9.699  -4.975  1.00  0.00    -0.356 OA
HETATM   23  C   UNL     1      41.375  -9.712  -6.353  1.00  0.00     0.210 C 
ENDBRANCH  19  22
ENDBRANCH  15  16
ENDBRANCH  12  15
ENDBRANCH   1  11
BRANCH   4  24
HETATM   24  C   UNL     1      42.563 -15.406   5.839  1.00  0.00     0.409 C 
HETATM   25  F   UNL     1      41.219 -15.458   5.703  1.00  0.00    -0.169 F 
HETATM   26  F   UNL     1      42.882 -16.266   6.846  1.00  0.00    -0.169 F 
HETATM   27  F   UNL     1      42.900 -14.178   6.281  1.00  0.00    -0.169 F 
ENDBRANCH   4  24
BRANCH   6  28
HETATM   28  C   UNL     1      44.038 -19.317   3.072  1.00  0.00    -0.035 A 
HETATM   29  C   UNL     1      44.653 -20.048   4.103  1.00  0.00     0.009 A 
HETATM   30  C   UNL     1      44.797 -21.433   4.008  1.00  0.00     0.001 A 
HETATM   31  C   UNL     1      44.327 -22.107   2.884  1.00  0.00     0.000 A 
HETATM   32  C   UNL     1      43.709 -21.398   1.856  1.00  0.00     0.001 A 
HETATM   33  C   UNL     1      43.565 -20.012   1.948  1.00  0.00     0.009 A 
ENDBRANCH   6  28
TORSDOF 6
ENDMDL
MODEL 8
REMARK VINA RESULT:      -8.4      5.934      9.032
REMARK  6 active torsions:
REMARK  status: ('A' for Active; 'I' for Inactive)
REMARK    1  A    between atoms: O_2  and  C_3 
REMARK    2  A    between atoms: C_6  and  C_7 
REMARK    3  A    between atoms: C_7  and  N_8 
REMARK       I    between atoms: N_8  and  C_9 
REMARK    4  A    between atoms: C_9  and  C_10 
REMARK    5  A    between atoms: C_13  and  C_14 
REMARK    6  A    between atoms: C_19  and  C_20 
ROOT
HETATM    1  C   UNL     1      41.141 -14.069   1.304  1.00  0.00     0.096 A 
HETATM    2  C   UNL     1      40.707 -13.491   0.125  1.00  0.00     0.138 A 
HETATM    3  N   UNL     1      41.601 -12.481  -0.153  1.00  0.00    -0.240 N 
HETATM    4  C   UNL     1      41.480 -11.562  -1.272  1.00  0.00     0.221 C 
HETATM    5  C   UNL     1      40.486 -12.103  -2.316  1.00  0.00     0.066 C 
HETATM    6  C   UNL     1      39.240 -12.663  -1.622  1.00  0.00     0.118 C 
HETATM    7  N   UNL     1      39.641 -13.722  -0.689  1.00  0.00    -0.365 N 
HETATM    8  N   UNL     1      42.480 -12.261   0.836  1.00  0.00    -0.181 NA
HETATM    9  C   UNL     1      42.224 -13.246   1.702  1.00  0.00     0.160 A 
HETATM   10  H   UNL     1      38.831 -14.200  -0.290  1.00  0.00     0.161 HD
ENDROOT
BRANCH   1  11
HETATM   11  C   UNL     1      40.610 -15.200   2.038  1.00  0.00     0.257 C 
HETATM   12  N   UNL     1      41.534 -15.884   2.793  1.00  0.00    -0.352 N 
HETATM   13  H   UNL     1      42.439 -15.454   2.937  1.00  0.00     0.163 HD
HETATM   14  O   UNL     1      39.422 -15.499   1.993  1.00  0.00    -0.267 OA
BRANCH  12  15
HETATM   15  C   UNL     1      41.178 -17.039   3.582  1.00  0.00     0.161 C 
BRANCH  15  16
HETATM   16  C   UNL     1      42.319 -18.013   3.727  1.00  0.00    -0.040 A 
HETATM   17  C   UNL     1      42.814 -18.360   4.991  1.00  0.00     0.011 A 
HETATM   18  C   UNL     1      43.831 -19.310   5.119  1.00  0.00     0.037 A 
HETATM   19  C   UNL     1      44.357 -19.945   3.994  1.00  0.00     0.068 A 
HETATM   20  C   UNL     1      43.882 -19.598   2.731  1.00  0.00     0.037 A 
HETATM   21  C   UNL     1      42.868 -18.640   2.599  1.00  0.00     0.011 A 
BRANCH  19  22
HETATM   22  O   UNL     1      45.327 -20.874   4.256  1.00  0.00    -0.356 OA
HETATM   23  C   UNL     1      44.977 -21.922   5.150  1.00  0.00     0.210 C 
ENDBRANCH  19  22
ENDBRANCH  15  16
ENDBRANCH  12  15
ENDBRANCH   1  11
BRANCH   4  24
HETATM   24  C   UNL     1      42.815 -11.297  -1.932  1.00  0.00     0.409 C 
HETATM   25  F   UNL     1      43.599 -10.473  -1.200  1.00  0.00    -0.169 F 
HETATM   26  F   UNL     1      43.498 -12.468  -2.058  1.00  0.00    -0.169 F 
HETATM   27  F   UNL     1      42.714 -10.791  -3.178  1.00  0.00    -0.169 F 
ENDBRANCH   4  24
BRANCH   6  28
HETATM   28  C   UNL     1      38.235 -13.217  -2.612  1.00  0.00    -0.035 A 
HETATM   29  C   UNL     1      38.143 -14.596  -2.866  1.00  0.00     0.009 A 
HETATM   30  C   UNL     1      37.222 -15.091  -3.790  1.00  0.00     0.001 A 
HETATM   31  C   UNL     1      36.378 -14.217  -4.469  1.00  0.00     0.000 A 
HETATM   32  C   UNL     1      36.452 -12.847  -4.224  1.00  0.00     0.001 A 
HETATM   33  C   UNL     1      37.375 -12.350  -3.302  1.00  0.00     0.009 A 
ENDBRANCH   6  28
TORSDOF 6
ENDMDL
MODEL 9
REMARK VINA RESULT:      -8.4      4.309      9.584
REMARK  6 active torsions:
REMARK  status: ('A' for Active; 'I' for Inactive)
REMARK    1  A    between atoms: O_2  and  C_3 
REMARK    2  A    between atoms: C_6  and  C_7 
REMARK    3  A    between atoms: C_7  and  N_8 
REMARK       I    between atoms: N_8  and  C_9 
REMARK    4  A    between atoms: C_9  and  C_10 
REMARK    5  A    between atoms: C_13  and  C_14 
REMARK    6  A    between atoms: C_19  and  C_20 
ROOT
HETATM    1  C   UNL     1      42.575 -15.420   3.177  1.00  0.00     0.096 A 
HETATM    2  C   UNL     1      43.145 -15.451   4.436  1.00  0.00     0.138 A 
HETATM    3  N   UNL     1      43.036 -16.753   4.870  1.00  0.00    -0.240 N 
HETATM    4  C   UNL     1      43.445 -17.219   6.184  1.00  0.00     0.221 C 
HETATM    5  C   UNL     1      44.371 -16.192   6.861  1.00  0.00     0.066 C 
HETATM    6  C   UNL     1      43.823 -14.775   6.666  1.00  0.00     0.118 C 
HETATM    7  N   UNL     1      43.703 -14.496   5.231  1.00  0.00    -0.365 N 
HETATM    8  N   UNL     1      42.299 -17.525   4.055  1.00  0.00    -0.181 NA
HETATM    9  C   UNL     1      42.051 -16.726   3.013  1.00  0.00     0.160 A 
HETATM   10  H   UNL     1      43.449 -13.522   5.056  1.00  0.00     0.161 HD
ENDROOT
BRANCH   1  11
HETATM   11  C   UNL     1      42.451 -14.323   2.237  1.00  0.00     0.257 C 
HETATM   12  N   UNL     1      41.827 -14.644   1.054  1.00  0.00    -0.352 N 
HETATM   13  H   UNL     1      41.341 -15.530   1.001  1.00  0.00     0.163 HD
HETATM   14  O   UNL     1      42.861 -13.198   2.499  1.00  0.00    -0.267 OA
BRANCH  12  15
HETATM   15  C   UNL     1      41.625 -13.675   0.004  1.00  0.00     0.161 C 
BRANCH  15  16
HETATM   16  C   UNL     1      40.697 -14.176  -1.074  1.00  0.00    -0.040 A 
HETATM   17  C   UNL     1      39.361 -13.757  -1.126  1.00  0.00     0.011 A 
HETATM   18  C   UNL     1      38.525 -14.178  -2.163  1.00  0.00     0.037 A 
HETATM   19  C   UNL     1      39.009 -15.006  -3.176  1.00  0.00     0.068 A 
HETATM   20  C   UNL     1      40.333 -15.440  -3.127  1.00  0.00     0.037 A 
HETATM   21  C   UNL     1      41.171 -15.025  -2.084  1.00  0.00     0.011 A 
BRANCH  19  22
HETATM   22  O   UNL     1      38.099 -15.324  -4.147  1.00  0.00    -0.356 OA
HETATM   23  C   UNL     1      36.892 -14.573  -4.154  1.00  0.00     0.210 C 
ENDBRANCH  19  22
ENDBRANCH  15  16
ENDBRANCH  12  15
ENDBRANCH   1  11
BRANCH   4  24
HETATM   24  C   UNL     1      44.139 -18.562   6.116  1.00  0.00     0.409 C 
HETATM   25  F   UNL     1      44.859 -18.715   4.981  1.00  0.00    -0.169 F 
HETATM   26  F   UNL     1      45.021 -18.669   7.149  1.00  0.00    -0.169 F 
HETATM   27  F   UNL     1      43.302 -19.612   6.234  1.00  0.00    -0.169 F 
ENDBRANCH   4  24
BRANCH   6  28
HETATM   28  C   UNL     1      44.709 -13.727   7.309  1.00  0.00    -0.035 A 
HETATM   29  C   UNL     1      45.997 -13.456   6.818  1.00  0.00     0.009 A 
HETATM   30  C   UNL     1      46.807 -12.497   7.428  1.00  0.00     0.001 A 
HETATM   31  C   UNL     1      46.340 -11.794   8.536  1.00  0.00     0.000 A 
HETATM   32  C   UNL     1      45.063 -12.047   9.032  1.00  0.00     0.001 A 
HETATM   33  C   UNL     1      44.252 -13.007   8.424  1.00  0.00     0.009 A 
ENDBRANCH   6  28
TORSDOF 6
ENDMDL
MODEL 10
REMARK VINA RESULT:      -8.4      5.880      8.958
REMARK  6 active torsions:
REMARK  status: ('A' for Active; 'I' for Inactive)
REMARK    1  A    between atoms: O_2  and  C_3 
REMARK    2  A    between atoms: C_6  and  C_7 
REMARK    3  A    between atoms: C_7  and  N_8 
REMARK       I    between atoms: N_8  and  C_9 
REMARK    4  A    between atoms: C_9  and  C_10 
REMARK    5  A    between atoms: C_13  and  C_14 
REMARK    6  A    between atoms: C_19  and  C_20 
ROOT
HETATM    1  C   UNL     1      41.155 -14.134   1.366  1.00  0.00     0.096 A 
HETATM    2  C   UNL     1      40.733 -13.545   0.188  1.00  0.00     0.138 A 
HETATM    3  N   UNL     1      41.623 -12.525  -0.064  1.00  0.00    -0.240 N 
HETATM    4  C   UNL     1      41.510 -11.593  -1.173  1.00  0.00     0.221 C 
HETATM    5  C   UNL     1      40.535 -12.128  -2.238  1.00  0.00     0.066 C 
HETATM    6  C   UNL     1      39.284 -12.705  -1.568  1.00  0.00     0.118 C 
HETATM    7  N   UNL     1      39.680 -13.774  -0.643  1.00  0.00    -0.365 N 
HETATM    8  N   UNL     1      42.487 -12.312   0.940  1.00  0.00    -0.181 NA
HETATM    9  C   UNL     1      42.226 -13.309   1.790  1.00  0.00     0.160 A 
HETATM   10  H   UNL     1      38.867 -14.262  -0.261  1.00  0.00     0.161 HD
ENDROOT
BRANCH   1  11
HETATM   11  C   UNL     1      40.622 -15.279   2.079  1.00  0.00     0.257 C 
HETATM   12  N   UNL     1      41.512 -15.899   2.924  1.00  0.00    -0.352 N 
HETATM   13  H   UNL     1      42.379 -15.419   3.133  1.00  0.00     0.163 HD
HETATM   14  O   UNL     1      39.459 -15.641   1.941  1.00  0.00    -0.267 OA
BRANCH  12  15
HETATM   15  C   UNL     1      41.151 -17.056   3.706  1.00  0.00     0.161 C 
BRANCH  15  16
HETATM   16  C   UNL     1      42.305 -18.007   3.899  1.00  0.00    -0.040 A 
HETATM   17  C   UNL     1      42.794 -18.295   5.179  1.00  0.00     0.011 A 
HETATM   18  C   UNL     1      43.823 -19.224   5.353  1.00  0.00     0.037 A 
HETATM   19  C   UNL     1      44.368 -19.896   4.259  1.00  0.00     0.068 A 
HETATM   20  C   UNL     1      43.898 -19.606   2.979  1.00  0.00     0.037 A 
HETATM   21  C   UNL     1      42.872 -18.670   2.801  1.00  0.00     0.011 A 
BRANCH  19  22
HETATM   22  O   UNL     1      45.350 -20.799   4.565  1.00  0.00    -0.356 OA
HETATM   23  C   UNL     1      44.923 -22.125   4.853  1.00  0.00     0.210 C 
ENDBRANCH  19  22
ENDBRANCH  15  16
ENDBRANCH  12  15
ENDBRANCH   1  11
BRANCH   4  24
HETATM   24  C   UNL     1      42.853 -11.310  -1.812  1.00  0.00     0.409 C 
HETATM   25  F   UNL     1      43.558 -12.439  -2.054  1.00  0.00    -0.169 F 
HETATM   26  F   UNL     1      42.663 -10.707  -3.018  1.00  0.00    -0.169 F 
HETATM   27  F   UNL     1      43.627 -10.469  -1.096  1.00  0.00    -0.169 F 
ENDBRANCH   4  24
BRANCH   6  28
HETATM   28  C   UNL     1      38.297 -13.254  -2.578  1.00  0.00    -0.035 A 
HETATM   29  C   UNL     1      37.317 -12.435  -3.164  1.00  0.00     0.009 A 
HETATM   30  C   UNL     1      36.406 -12.958  -4.083  1.00  0.00     0.001 A 
HETATM   31  C   UNL     1      36.464 -14.304  -4.433  1.00  0.00     0.000 A 
HETATM   32  C   UNL     1      37.434 -15.129  -3.866  1.00  0.00     0.001 A 
HETATM   33  C   UNL     1      38.344 -14.609  -2.944  1.00  0.00     0.009 A 
ENDBRANCH   6  28
TORSDOF 6
ENDMDL
