MODEL 1
REMARK VINA RESULT:      -8.1      0.000      0.000
REMARK  9 active torsions:
REMARK  status: ('A' for Active; 'I' for Inactive)
REMARK    1  A    between atoms: C_2  and  N_3 
REMARK    2  A    between atoms: C_2  and  C_23 
REMARK       I    between atoms: N_3  and  C_4 
REMARK       I    between atoms: C_4  and  N_5 
REMARK    3  A    between atoms: N_5  and  C_6 
REMARK    4  A    between atoms: C_6  and  C_7 
REMARK    5  A    between atoms: C_7  and  N_8 
REMARK    6  A    between atoms: C_7  and  C_14 
REMARK    7  A    between atoms: C_15  and  O_16 
REMARK    8  A    between atoms: C_23  and  C_24 
REMARK    9  A    between atoms: C_27  and  O_28 
ROOT
HETATM    1  N   UNL     1      44.461 -19.116   2.173  1.00  0.00    -0.339 N 
HETATM    2  C   UNL     1      43.786 -18.041   1.718  1.00  0.00     0.316 C 
HETATM    3  N   UNL     1      42.429 -18.119   1.752  1.00  0.00    -0.341 N 
HETATM    4  O   UNL     1      44.367 -17.016   1.369  1.00  0.00    -0.248 OA
HETATM    5  H   UNL     1      45.468 -19.025   2.088  1.00  0.00     0.164 HD
HETATM    6  H   UNL     1      42.075 -19.055   1.595  1.00  0.00     0.164 HD
ENDROOT
BRANCH   3   7
HETATM    7  C   UNL     1      41.621 -17.044   1.193  1.00  0.00     0.162 C 
BRANCH   7   8
HETATM    8  C   UNL     1      40.764 -16.200   2.199  1.00  0.00     0.241 C 
BRANCH   8   9
HETATM    9  N   UNL     1      40.453 -14.795   1.660  1.00  0.00    -0.061 N 
HETATM   10  H   UNL     1      41.257 -14.211   1.966  1.00  0.00     0.280 HD
HETATM   11  C   UNL     1      39.236 -14.073   2.183  1.00  0.00     0.236 C 
HETATM   12  C   UNL     1      38.183 -14.313   1.126  1.00  0.00     0.029 C 
HETATM   13  C   UNL     1      38.963 -14.231  -0.171  1.00  0.00     0.029 C 
HETATM   14  C   UNL     1      40.369 -14.717   0.154  1.00  0.00     0.236 C 
ENDBRANCH   8   9
BRANCH   8  15
HETATM   15  C   UNL     1      41.279 -16.261   3.633  1.00  0.00     0.007 A 
HETATM   16  C   UNL     1      42.320 -15.408   4.059  1.00  0.00     0.076 A 
HETATM   17  C   UNL     1      42.805 -15.493   5.369  1.00  0.00     0.037 A 
HETATM   18  C   UNL     1      42.247 -16.395   6.274  1.00  0.00     0.003 A 
HETATM   19  C   UNL     1      41.201 -17.220   5.877  1.00  0.00     0.001 A 
HETATM   20  C   UNL     1      40.720 -17.152   4.570  1.00  0.00     0.012 A 
BRANCH  16  21
HETATM   21  O   UNL     1      42.819 -14.539   3.124  1.00  0.00    -0.355 OA
HETATM   22  C   UNL     1      42.907 -13.168   3.513  1.00  0.00     0.210 C 
ENDBRANCH  16  21
ENDBRANCH   8  15
ENDBRANCH   7   8
ENDBRANCH   3   7
BRANCH   1  23
HETATM   23  C   UNL     1      43.952 -20.294   2.886  1.00  0.00     0.086 C 
HETATM   24  C   UNL     1      43.693 -21.423   1.893  1.00  0.00     0.032 C 
BRANCH  23  25
HETATM   25  C   UNL     1      44.935 -20.744   3.987  1.00  0.00     0.063 C 
BRANCH  25  26
HETATM   26  C   UNL     1      44.652 -20.072   5.314  1.00  0.00    -0.056 A 
HETATM   27  C   UNL     1      45.186 -18.807   5.601  1.00  0.00     0.010 A 
HETATM   28  C   UNL     1      44.946 -18.201   6.837  1.00  0.00     0.037 A 
HETATM   29  C   UNL     1      44.180 -18.865   7.787  1.00  0.00     0.065 A 
HETATM   30  C   UNL     1      43.644 -20.119   7.523  1.00  0.00     0.037 A 
HETATM   31  C   UNL     1      43.874 -20.721   6.285  1.00  0.00     0.010 A 
BRANCH  29  32
HETATM   32  O   UNL     1      43.936 -18.316   9.009  1.00  0.00    -0.361 OA
HETATM   33  H   UNL     1      44.581 -18.674   9.644  1.00  0.00     0.217 HD
ENDBRANCH  29  32
ENDBRANCH  25  26
ENDBRANCH  23  25
ENDBRANCH   1  23
TORSDOF 9
ENDMDL
MODEL 2
REMARK VINA RESULT:      -8.0      1.072      2.203
REMARK  9 active torsions:
REMARK  status: ('A' for Active; 'I' for Inactive)
REMARK    1  A    between atoms: C_2  and  N_3 
REMARK    2  A    between atoms: C_2  and  C_23 
REMARK       I    between atoms: N_3  and  C_4 
REMARK       I    between atoms: C_4  and  N_5 
REMARK    3  A    between atoms: N_5  and  C_6 
REMARK    4  A    between atoms: C_6  and  C_7 
REMARK    5  A    between atoms: C_7  and  N_8 
REMARK    6  A    between atoms: C_7  and  C_14 
REMARK    7  A    between atoms: C_15  and  O_16 
REMARK    8  A    between atoms: C_23  and  C_24 
REMARK    9  A    between atoms: C_27  and  O_28 
ROOT
HETATM    1  N   UNL     1      44.499 -19.377   2.083  1.00  0.00    -0.339 N 
HETATM    2  C   UNL     1      43.802 -18.256   1.807  1.00  0.00     0.316 C 
HETATM    3  N   UNL     1      42.476 -18.277   2.109  1.00  0.00    -0.341 N 
HETATM    4  O   UNL     1      44.353 -17.242   1.384  1.00  0.00    -0.248 OA
HETATM    5  H   UNL     1      45.472 -19.325   1.802  1.00  0.00     0.164 HD
HETATM    6  H   UNL     1      42.052 -19.190   1.994  1.00  0.00     0.164 HD
ENDROOT
BRANCH   3   7
HETATM    7  C   UNL     1      41.629 -17.147   1.757  1.00  0.00     0.162 C 
BRANCH   7   8
HETATM    8  C   UNL     1      41.010 -16.325   2.941  1.00  0.00     0.241 C 
BRANCH   8   9
HETATM    9  N   UNL     1      39.779 -15.516   2.505  1.00  0.00    -0.061 N 
HETATM   10  H   UNL     1      38.981 -16.176   2.605  1.00  0.00     0.280 HD
HETATM   11  C   UNL     1      39.699 -15.035   1.077  1.00  0.00     0.236 C 
HETATM   12  C   UNL     1      40.163 -13.598   1.146  1.00  0.00     0.029 C 
HETATM   13  C   UNL     1      39.566 -13.099   2.446  1.00  0.00     0.029 C 
HETATM   14  C   UNL     1      39.496 -14.309   3.367  1.00  0.00     0.236 C 
ENDBRANCH   8   9
BRANCH   8  15
HETATM   15  C   UNL     1      42.049 -15.564   3.757  1.00  0.00     0.007 A 
HETATM   16  C   UNL     1      42.292 -15.904   5.106  1.00  0.00     0.076 A 
HETATM   17  C   UNL     1      43.227 -15.180   5.855  1.00  0.00     0.037 A 
HETATM   18  C   UNL     1      43.949 -14.140   5.271  1.00  0.00     0.003 A 
HETATM   19  C   UNL     1      43.742 -13.815   3.937  1.00  0.00     0.001 A 
HETATM   20  C   UNL     1      42.804 -14.521   3.185  1.00  0.00     0.012 A 
BRANCH  16  21
HETATM   21  O   UNL     1      41.556 -16.941   5.617  1.00  0.00    -0.355 OA
HETATM   22  C   UNL     1      40.548 -16.597   6.568  1.00  0.00     0.210 C 
ENDBRANCH  16  21
ENDBRANCH   8  15
ENDBRANCH   7   8
ENDBRANCH   3   7
BRANCH   1  23
HETATM   23  C   UNL     1      44.083 -20.561   2.844  1.00  0.00     0.086 C 
HETATM   24  C   UNL     1      43.943 -21.754   1.902  1.00  0.00     0.032 C 
BRANCH  23  25
HETATM   25  C   UNL     1      45.080 -20.870   3.979  1.00  0.00     0.063 C 
BRANCH  25  26
HETATM   26  C   UNL     1      44.723 -20.154   5.264  1.00  0.00    -0.056 A 
HETATM   27  C   UNL     1      43.958 -20.796   6.249  1.00  0.00     0.010 A 
HETATM   28  C   UNL     1      43.606 -20.123   7.423  1.00  0.00     0.037 A 
HETATM   29  C   UNL     1      44.012 -18.807   7.604  1.00  0.00     0.065 A 
HETATM   30  C   UNL     1      44.768 -18.154   6.640  1.00  0.00     0.037 A 
HETATM   31  C   UNL     1      45.129 -18.827   5.473  1.00  0.00     0.010 A 
BRANCH  29  32
HETATM   32  O   UNL     1      43.677 -18.111   8.726  1.00  0.00    -0.361 OA
HETATM   33  H   UNL     1      43.330 -17.242   8.459  1.00  0.00     0.217 HD
ENDBRANCH  29  32
ENDBRANCH  25  26
ENDBRANCH  23  25
ENDBRANCH   1  23
TORSDOF 9
ENDMDL
MODEL 3
REMARK VINA RESULT:      -7.8      2.651      7.949
REMARK  9 active torsions:
REMARK  status: ('A' for Active; 'I' for Inactive)
REMARK    1  A    between atoms: C_2  and  N_3 
REMARK    2  A    between atoms: C_2  and  C_23 
REMARK       I    between atoms: N_3  and  C_4 
REMARK       I    between atoms: C_4  and  N_5 
REMARK    3  A    between atoms: N_5  and  C_6 
REMARK    4  A    between atoms: C_6  and  C_7 
REMARK    5  A    between atoms: C_7  and  N_8 
REMARK    6  A    between atoms: C_7  and  C_14 
REMARK    7  A    between atoms: C_15  and  O_16 
REMARK    8  A    between atoms: C_23  and  C_24 
REMARK    9  A    between atoms: C_27  and  O_28 
ROOT
HETATM    1  N   UNL     1      40.776 -13.544   1.237  1.00  0.00    -0.339 N 
HETATM    2  C   UNL     1      41.862 -14.113   1.798  1.00  0.00     0.316 C 
HETATM    3  N   UNL     1      41.873 -15.472   1.855  1.00  0.00    -0.341 N 
HETATM    4  O   UNL     1      42.825 -13.443   2.162  1.00  0.00    -0.248 OA
HETATM    5  H   UNL     1      40.798 -12.530   1.256  1.00  0.00     0.164 HD
HETATM    6  H   UNL     1      40.953 -15.876   1.984  1.00  0.00     0.164 HD
ENDROOT
BRANCH   3   7
HETATM    7  C   UNL     1      42.961 -16.166   2.530  1.00  0.00     0.162 C 
BRANCH   7   8
HETATM    8  C   UNL     1      42.564 -17.303   3.536  1.00  0.00     0.241 C 
BRANCH   8   9
HETATM    9  N   UNL     1      42.596 -16.823   4.995  1.00  0.00    -0.061 N 
HETATM   10  H   UNL     1      43.308 -17.426   5.455  1.00  0.00     0.280 HD
HETATM   11  C   UNL     1      41.355 -16.988   5.837  1.00  0.00     0.236 C 
HETATM   12  C   UNL     1      40.695 -15.629   5.789  1.00  0.00     0.029 C 
HETATM   13  C   UNL     1      41.866 -14.668   5.840  1.00  0.00     0.029 C 
HETATM   14  C   UNL     1      43.026 -15.385   5.163  1.00  0.00     0.236 C 
ENDBRANCH   8   9
BRANCH   8  15
HETATM   15  C   UNL     1      43.265 -18.628   3.257  1.00  0.00     0.007 A 
HETATM   16  C   UNL     1      44.264 -19.110   4.131  1.00  0.00     0.076 A 
HETATM   17  C   UNL     1      44.921 -20.313   3.850  1.00  0.00     0.037 A 
HETATM   18  C   UNL     1      44.576 -21.063   2.726  1.00  0.00     0.003 A 
HETATM   19  C   UNL     1      43.574 -20.616   1.874  1.00  0.00     0.001 A 
HETATM   20  C   UNL     1      42.922 -19.412   2.138  1.00  0.00     0.012 A 
BRANCH  16  21
HETATM   21  O   UNL     1      44.550 -18.330   5.221  1.00  0.00    -0.355 OA
HETATM   22  C   UNL     1      44.567 -18.989   6.488  1.00  0.00     0.210 C 
ENDBRANCH  16  21
ENDBRANCH   8  15
ENDBRANCH   7   8
ENDBRANCH   3   7
BRANCH   1  23
HETATM   23  C   UNL     1      39.678 -14.178   0.496  1.00  0.00     0.086 C 
HETATM   24  C   UNL     1      38.470 -14.344   1.412  1.00  0.00     0.032 C 
BRANCH  23  25
HETATM   25  C   UNL     1      39.310 -13.359  -0.758  1.00  0.00     0.063 C 
BRANCH  25  26
HETATM   26  C   UNL     1      39.193 -14.227  -1.993  1.00  0.00    -0.056 A 
HETATM   27  C   UNL     1      37.996 -14.273  -2.722  1.00  0.00     0.010 A 
HETATM   28  C   UNL     1      37.882 -15.096  -3.846  1.00  0.00     0.037 A 
HETATM   29  C   UNL     1      38.964 -15.878  -4.233  1.00  0.00     0.065 A 
HETATM   30  C   UNL     1      40.157 -15.848  -3.523  1.00  0.00     0.037 A 
HETATM   31  C   UNL     1      40.276 -15.019  -2.407  1.00  0.00     0.010 A 
BRANCH  29  32
HETATM   32  O   UNL     1      38.889 -16.706  -5.312  1.00  0.00    -0.361 OA
HETATM   33  H   UNL     1      37.956 -16.791  -5.573  1.00  0.00     0.217 HD
ENDBRANCH  29  32
ENDBRANCH  25  26
ENDBRANCH  23  25
ENDBRANCH   1  23
TORSDOF 9
ENDMDL
MODEL 4
REMARK VINA RESULT:      -7.8      1.753      2.599
REMARK  9 active torsions:
REMARK  status: ('A' for Active; 'I' for Inactive)
REMARK    1  A    between atoms: C_2  and  N_3 
REMARK    2  A    between atoms: C_2  and  C_23 
REMARK       I    between atoms: N_3  and  C_4 
REMARK       I    between atoms: C_4  and  N_5 
REMARK    3  A    between atoms: N_5  and  C_6 
REMARK    4  A    between atoms: C_6  and  C_7 
REMARK    5  A    between atoms: C_7  and  N_8 
REMARK    6  A    between atoms: C_7  and  C_14 
REMARK    7  A    between atoms: C_15  and  O_16 
REMARK    8  A    between atoms: C_23  and  C_24 
REMARK    9  A    between atoms: C_27  and  O_28 
ROOT
HETATM    1  N   UNL     1      42.423 -18.263   1.614  1.00  0.00    -0.339 N 
HETATM    2  C   UNL     1      41.486 -17.340   1.314  1.00  0.00     0.316 C 
HETATM    3  N   UNL     1      40.752 -16.861   2.353  1.00  0.00    -0.341 N 
HETATM    4  O   UNL     1      41.361 -16.898   0.174  1.00  0.00    -0.248 OA
HETATM    5  H   UNL     1      42.914 -18.618   0.801  1.00  0.00     0.164 HD
HETATM    6  H   UNL     1      40.585 -17.548   3.078  1.00  0.00     0.164 HD
ENDROOT
BRANCH   3   7
HETATM    7  C   UNL     1      39.656 -15.934   2.106  1.00  0.00     0.162 C 
BRANCH   7   8
HETATM    8  C   UNL     1      39.858 -14.451   2.574  1.00  0.00     0.241 C 
BRANCH   8   9
HETATM    9  N   UNL     1      39.586 -13.444   1.446  1.00  0.00    -0.061 N 
HETATM   10  H   UNL     1      40.412 -12.813   1.451  1.00  0.00     0.280 HD
HETATM   11  C   UNL     1      38.399 -12.521   1.572  1.00  0.00     0.236 C 
HETATM   12  C   UNL     1      37.326 -13.186   0.740  1.00  0.00     0.029 C 
HETATM   13  C   UNL     1      38.092 -13.739  -0.444  1.00  0.00     0.029 C 
HETATM   14  C   UNL     1      39.485 -14.068   0.074  1.00  0.00     0.236 C 
ENDBRANCH   8   9
BRANCH   8  15
HETATM   15  C   UNL     1      41.146 -14.235   3.360  1.00  0.00     0.007 A 
HETATM   16  C   UNL     1      41.118 -14.121   4.768  1.00  0.00     0.076 A 
HETATM   17  C   UNL     1      42.303 -13.893   5.477  1.00  0.00     0.037 A 
HETATM   18  C   UNL     1      43.524 -13.810   4.808  1.00  0.00     0.003 A 
HETATM   19  C   UNL     1      43.570 -13.952   3.427  1.00  0.00     0.001 A 
HETATM   20  C   UNL     1      42.394 -14.165   2.710  1.00  0.00     0.012 A 
BRANCH  16  21
HETATM   21  O   UNL     1      39.888 -14.220   5.364  1.00  0.00    -0.355 OA
HETATM   22  C   UNL     1      39.395 -13.042   6.004  1.00  0.00     0.210 C 
ENDBRANCH  16  21
ENDBRANCH   8  15
ENDBRANCH   7   8
ENDBRANCH   3   7
BRANCH   1  23
HETATM   23  C   UNL     1      42.908 -18.692   2.932  1.00  0.00     0.086 C 
HETATM   24  C   UNL     1      43.679 -20.001   2.794  1.00  0.00     0.032 C 
BRANCH  23  25
HETATM   25  C   UNL     1      43.785 -17.602   3.582  1.00  0.00     0.063 C 
BRANCH  25  26
HETATM   26  C   UNL     1      43.718 -17.642   5.094  1.00  0.00    -0.056 A 
HETATM   27  C   UNL     1      42.523 -17.340   5.763  1.00  0.00     0.010 A 
HETATM   28  C   UNL     1      42.471 -17.350   7.160  1.00  0.00     0.037 A 
HETATM   29  C   UNL     1      43.617 -17.654   7.884  1.00  0.00     0.065 A 
HETATM   30  C   UNL     1      44.810 -17.954   7.240  1.00  0.00     0.037 A 
HETATM   31  C   UNL     1      44.861 -17.954   5.846  1.00  0.00     0.010 A 
BRANCH  29  32
HETATM   32  O   UNL     1      43.613 -17.660   9.246  1.00  0.00    -0.361 OA
HETATM   33  H   UNL     1      43.904 -16.787   9.561  1.00  0.00     0.217 HD
ENDBRANCH  29  32
ENDBRANCH  25  26
ENDBRANCH  23  25
ENDBRANCH   1  23
TORSDOF 9
ENDMDL
MODEL 5
REMARK VINA RESULT:      -7.7      2.280      7.513
REMARK  9 active torsions:
REMARK  status: ('A' for Active; 'I' for Inactive)
REMARK    1  A    between atoms: C_2  and  N_3 
REMARK    2  A    between atoms: C_2  and  C_23 
REMARK       I    between atoms: N_3  and  C_4 
REMARK       I    between atoms: C_4  and  N_5 
REMARK    3  A    between atoms: N_5  and  C_6 
REMARK    4  A    between atoms: C_6  and  C_7 
REMARK    5  A    between atoms: C_7  and  N_8 
REMARK    6  A    between atoms: C_7  and  C_14 
REMARK    7  A    between atoms: C_15  and  O_16 
REMARK    8  A    between atoms: C_23  and  C_24 
REMARK    9  A    between atoms: C_27  and  O_28 
ROOT
HETATM    1  N   UNL     1      39.552 -14.492   3.716  1.00  0.00    -0.339 N 
HETATM    2  C   UNL     1      40.103 -15.228   4.703  1.00  0.00     0.316 C 
HETATM    3  N   UNL     1      40.662 -16.412   4.336  1.00  0.00    -0.341 N 
HETATM    4  O   UNL     1      40.168 -14.811   5.857  1.00  0.00    -0.248 OA
HETATM    5  H   UNL     1      39.113 -13.639   4.046  1.00  0.00     0.164 HD
HETATM    6  H   UNL     1      40.184 -16.860   3.563  1.00  0.00     0.164 HD
ENDROOT
BRANCH   3   7
HETATM    7  C   UNL     1      41.193 -17.313   5.350  1.00  0.00     0.162 C 
BRANCH   7   8
HETATM    8  C   UNL     1      42.645 -17.862   5.124  1.00  0.00     0.241 C 
BRANCH   8   9
HETATM    9  N   UNL     1      43.645 -17.291   6.141  1.00  0.00    -0.061 N 
HETATM   10  H   UNL     1      44.185 -16.579   5.609  1.00  0.00     0.280 HD
HETATM   11  C   UNL     1      44.692 -18.211   6.719  1.00  0.00     0.236 C 
HETATM   12  C   UNL     1      44.124 -18.619   8.059  1.00  0.00     0.029 C 
HETATM   13  C   UNL     1      43.462 -17.352   8.560  1.00  0.00     0.029 C 
HETATM   14  C   UNL     1      43.001 -16.600   7.319  1.00  0.00     0.236 C 
ENDBRANCH   8   9
BRANCH   8  15
HETATM   15  C   UNL     1      43.086 -17.823   3.665  1.00  0.00     0.007 A 
HETATM   16  C   UNL     1      43.534 -16.617   3.082  1.00  0.00     0.076 A 
HETATM   17  C   UNL     1      43.909 -16.586   1.734  1.00  0.00     0.037 A 
HETATM   18  C   UNL     1      43.875 -17.747   0.963  1.00  0.00     0.003 A 
HETATM   19  C   UNL     1      43.467 -18.947   1.531  1.00  0.00     0.001 A 
HETATM   20  C   UNL     1      43.078 -18.986   2.870  1.00  0.00     0.012 A 
BRANCH  16  21
HETATM   21  O   UNL     1      43.550 -15.514   3.896  1.00  0.00    -0.355 OA
HETATM   22  C   UNL     1      43.673 -14.248   3.248  1.00  0.00     0.210 C 
ENDBRANCH  16  21
ENDBRANCH   8  15
ENDBRANCH   7   8
ENDBRANCH   3   7
BRANCH   1  23
HETATM   23  C   UNL     1      39.635 -14.685   2.263  1.00  0.00     0.086 C 
HETATM   24  C   UNL     1      38.272 -14.418   1.631  1.00  0.00     0.032 C 
BRANCH  23  25
HETATM   25  C   UNL     1      40.717 -13.777   1.643  1.00  0.00     0.063 C 
BRANCH  25  26
HETATM   26  C   UNL     1      40.924 -14.059   0.170  1.00  0.00    -0.056 A 
HETATM   27  C   UNL     1      40.931 -13.011  -0.763  1.00  0.00     0.010 A 
HETATM   28  C   UNL     1      41.095 -13.277  -2.125  1.00  0.00     0.037 A 
HETATM   29  C   UNL     1      41.244 -14.591  -2.552  1.00  0.00     0.065 A 
HETATM   30  C   UNL     1      41.238 -15.642  -1.644  1.00  0.00     0.037 A 
HETATM   31  C   UNL     1      41.085 -15.377  -0.283  1.00  0.00     0.010 A 
BRANCH  29  32
HETATM   32  O   UNL     1      41.391 -14.894  -3.872  1.00  0.00    -0.361 OA
HETATM   33  H   UNL     1      40.533 -14.775  -4.314  1.00  0.00     0.217 HD
ENDBRANCH  29  32
ENDBRANCH  25  26
ENDBRANCH  23  25
ENDBRANCH   1  23
TORSDOF 9
ENDMDL
MODEL 6
REMARK VINA RESULT:      -7.6      2.576      4.130
REMARK  9 active torsions:
REMARK  status: ('A' for Active; 'I' for Inactive)
REMARK    1  A    between atoms: C_2  and  N_3 
REMARK    2  A    between atoms: C_2  and  C_23 
REMARK       I    between atoms: N_3  and  C_4 
REMARK       I    between atoms: C_4  and  N_5 
REMARK    3  A    between atoms: N_5  and  C_6 
REMARK    4  A    between atoms: C_6  and  C_7 
REMARK    5  A    between atoms: C_7  and  N_8 
REMARK    6  A    between atoms: C_7  and  C_14 
REMARK    7  A    between atoms: C_15  and  O_16 
REMARK    8  A    between atoms: C_23  and  C_24 
REMARK    9  A    between atoms: C_27  and  O_28 
ROOT
HETATM    1  N   UNL     1      41.114 -17.347   1.867  1.00  0.00    -0.339 N 
HETATM    2  C   UNL     1      40.819 -16.165   2.446  1.00  0.00     0.316 C 
HETATM    3  N   UNL     1      41.848 -15.511   3.049  1.00  0.00    -0.341 N 
HETATM    4  O   UNL     1      39.699 -15.667   2.361  1.00  0.00    -0.248 OA
HETATM    5  H   UNL     1      40.306 -17.812   1.468  1.00  0.00     0.164 HD
HETATM    6  H   UNL     1      42.531 -16.134   3.464  1.00  0.00     0.164 HD
ENDROOT
BRANCH   3   7
HETATM    7  C   UNL     1      41.601 -14.277   3.780  1.00  0.00     0.162 C 
BRANCH   7   8
HETATM    8  C   UNL     1      41.258 -14.410   5.305  1.00  0.00     0.241 C 
BRANCH   8   9
HETATM    9  N   UNL     1      41.245 -13.049   6.017  1.00  0.00    -0.061 N 
HETATM   10  H   UNL     1      41.910 -13.159   6.809  1.00  0.00     0.280 HD
HETATM   11  C   UNL     1      39.962 -12.582   6.659  1.00  0.00     0.236 C 
HETATM   12  C   UNL     1      39.361 -11.641   5.640  1.00  0.00     0.029 C 
HETATM   13  C   UNL     1      40.567 -10.916   5.078  1.00  0.00     0.029 C 
HETATM   14  C   UNL     1      41.725 -11.900   5.163  1.00  0.00     0.236 C 
ENDBRANCH   8   9
BRANCH   8  15
HETATM   15  C   UNL     1      42.036 -15.518   6.006  1.00  0.00     0.007 A 
HETATM   16  C   UNL     1      43.378 -15.318   6.396  1.00  0.00     0.076 A 
HETATM   17  C   UNL     1      44.092 -16.351   7.013  1.00  0.00     0.037 A 
HETATM   18  C   UNL     1      43.479 -17.576   7.275  1.00  0.00     0.003 A 
HETATM   19  C   UNL     1      42.150 -17.777   6.925  1.00  0.00     0.001 A 
HETATM   20  C   UNL     1      41.434 -16.758   6.299  1.00  0.00     0.012 A 
BRANCH  16  21
HETATM   21  O   UNL     1      43.918 -14.089   6.116  1.00  0.00    -0.355 OA
HETATM   22  C   UNL     1      45.083 -13.723   6.857  1.00  0.00     0.210 C 
ENDBRANCH  16  21
ENDBRANCH   8  15
ENDBRANCH   7   8
ENDBRANCH   3   7
BRANCH   1  23
HETATM   23  C   UNL     1      42.428 -17.952   1.618  1.00  0.00     0.086 C 
HETATM   24  C   UNL     1      43.207 -17.096   0.624  1.00  0.00     0.032 C 
BRANCH  23  25
HETATM   25  C   UNL     1      43.217 -18.125   2.932  1.00  0.00     0.063 C 
BRANCH  25  26
HETATM   26  C   UNL     1      43.727 -19.540   3.110  1.00  0.00    -0.056 A 
HETATM   27  C   UNL     1      43.586 -20.483   2.081  1.00  0.00     0.010 A 
HETATM   28  C   UNL     1      44.034 -21.795   2.258  1.00  0.00     0.037 A 
HETATM   29  C   UNL     1      44.613 -22.163   3.466  1.00  0.00     0.065 A 
HETATM   30  C   UNL     1      44.759 -21.244   4.497  1.00  0.00     0.037 A 
HETATM   31  C   UNL     1      44.323 -19.931   4.319  1.00  0.00     0.010 A 
BRANCH  29  32
HETATM   32  O   UNL     1      45.047 -23.436   3.685  1.00  0.00    -0.361 OA
HETATM   33  H   UNL     1      44.734 -23.999   2.957  1.00  0.00     0.217 HD
ENDBRANCH  29  32
ENDBRANCH  25  26
ENDBRANCH  23  25
ENDBRANCH   1  23
TORSDOF 9
ENDMDL
MODEL 7
REMARK VINA RESULT:      -7.4      2.388      7.308
REMARK  9 active torsions:
REMARK  status: ('A' for Active; 'I' for Inactive)
REMARK    1  A    between atoms: C_2  and  N_3 
REMARK    2  A    between atoms: C_2  and  C_23 
REMARK       I    between atoms: N_3  and  C_4 
REMARK       I    between atoms: C_4  and  N_5 
REMARK    3  A    between atoms: N_5  and  C_6 
REMARK    4  A    between atoms: C_6  and  C_7 
REMARK    5  A    between atoms: C_7  and  N_8 
REMARK    6  A    between atoms: C_7  and  C_14 
REMARK    7  A    between atoms: C_15  and  O_16 
REMARK    8  A    between atoms: C_23  and  C_24 
REMARK    9  A    between atoms: C_27  and  O_28 
ROOT
HETATM    1  N   UNL     1      40.808 -14.262   6.065  1.00  0.00    -0.339 N 
HETATM    2  C   UNL     1      41.281 -15.521   5.961  1.00  0.00     0.316 C 
HETATM    3  N   UNL     1      40.660 -16.329   5.061  1.00  0.00    -0.341 N 
HETATM    4  O   UNL     1      42.272 -15.890   6.586  1.00  0.00    -0.248 OA
HETATM    5  H   UNL     1      41.277 -13.713   6.777  1.00  0.00     0.164 HD
HETATM    6  H   UNL     1      39.669 -16.141   4.967  1.00  0.00     0.164 HD
ENDROOT
BRANCH   3   7
HETATM    7  C   UNL     1      41.043 -17.730   4.952  1.00  0.00     0.162 C 
BRANCH   7   8
HETATM    8  C   UNL     1      42.114 -18.093   3.865  1.00  0.00     0.241 C 
BRANCH   8   9
HETATM    9  N   UNL     1      43.523 -18.229   4.463  1.00  0.00    -0.061 N 
HETATM   10  H   UNL     1      43.870 -17.253   4.547  1.00  0.00     0.280 HD
HETATM   11  C   UNL     1      44.583 -18.943   3.660  1.00  0.00     0.236 C 
HETATM   12  C   UNL     1      44.602 -20.341   4.236  1.00  0.00     0.029 C 
HETATM   13  C   UNL     1      44.400 -20.112   5.720  1.00  0.00     0.029 C 
HETATM   14  C   UNL     1      43.553 -18.852   5.839  1.00  0.00     0.236 C 
ENDBRANCH   8   9
BRANCH   8  15
HETATM   15  C   UNL     1      42.008 -17.244   2.603  1.00  0.00     0.007 A 
HETATM   16  C   UNL     1      42.675 -16.003   2.515  1.00  0.00     0.076 A 
HETATM   17  C   UNL     1      42.547 -15.218   1.363  1.00  0.00     0.037 A 
HETATM   18  C   UNL     1      41.788 -15.665   0.282  1.00  0.00     0.003 A 
HETATM   19  C   UNL     1      41.152 -16.899   0.343  1.00  0.00     0.001 A 
HETATM   20  C   UNL     1      41.262 -17.682   1.491  1.00  0.00     0.012 A 
BRANCH  16  21
HETATM   21  O   UNL     1      43.410 -15.625   3.608  1.00  0.00    -0.355 OA
HETATM   22  C   UNL     1      43.838 -14.263   3.647  1.00  0.00     0.210 C 
ENDBRANCH  16  21
ENDBRANCH   8  15
ENDBRANCH   7   8
ENDBRANCH   3   7
BRANCH   1  23
HETATM   23  C   UNL     1      39.840 -13.565   5.209  1.00  0.00     0.086 C 
HETATM   24  C   UNL     1      39.077 -12.533   6.033  1.00  0.00     0.032 C 
BRANCH  23  25
HETATM   25  C   UNL     1      40.542 -12.899   4.007  1.00  0.00     0.063 C 
BRANCH  25  26
HETATM   26  C   UNL     1      39.880 -13.254   2.692  1.00  0.00    -0.056 A 
HETATM   27  C   UNL     1      40.044 -12.433   1.566  1.00  0.00     0.010 A 
HETATM   28  C   UNL     1      39.410 -12.749   0.361  1.00  0.00     0.037 A 
HETATM   29  C   UNL     1      38.607 -13.880   0.287  1.00  0.00     0.065 A 
HETATM   30  C   UNL     1      38.431 -14.705   1.390  1.00  0.00     0.037 A 
HETATM   31  C   UNL     1      39.072 -14.397   2.591  1.00  0.00     0.010 A 
BRANCH  29  32
HETATM   32  O   UNL     1      37.959 -14.214  -0.864  1.00  0.00    -0.361 OA
HETATM   33  H   UNL     1      37.282 -14.881  -0.655  1.00  0.00     0.217 HD
ENDBRANCH  29  32
ENDBRANCH  25  26
ENDBRANCH  23  25
ENDBRANCH   1  23
TORSDOF 9
ENDMDL
MODEL 8
REMARK VINA RESULT:      -7.3      2.342      4.768
REMARK  9 active torsions:
REMARK  status: ('A' for Active; 'I' for Inactive)
REMARK    1  A    between atoms: C_2  and  N_3 
REMARK    2  A    between atoms: C_2  and  C_23 
REMARK       I    between atoms: N_3  and  C_4 
REMARK       I    between atoms: C_4  and  N_5 
REMARK    3  A    between atoms: N_5  and  C_6 
REMARK    4  A    between atoms: C_6  and  C_7 
REMARK    5  A    between atoms: C_7  and  N_8 
REMARK    6  A    between atoms: C_7  and  C_14 
REMARK    7  A    between atoms: C_15  and  O_16 
REMARK    8  A    between atoms: C_23  and  C_24 
REMARK    9  A    between atoms: C_27  and  O_28 
ROOT
HETATM    1  N   UNL     1      42.670 -17.770   5.717  1.00  0.00    -0.339 N 
HETATM    2  C   UNL     1      41.807 -17.369   4.761  1.00  0.00     0.316 C 
HETATM    3  N   UNL     1      42.334 -16.662   3.727  1.00  0.00    -0.341 N 
HETATM    4  O   UNL     1      40.623 -17.698   4.783  1.00  0.00    -0.248 OA
HETATM    5  H   UNL     1      42.222 -18.257   6.486  1.00  0.00     0.164 HD
HETATM    6  H   UNL     1      43.114 -16.074   3.998  1.00  0.00     0.164 HD
ENDROOT
BRANCH   3   7
HETATM    7  C   UNL     1      41.461 -16.108   2.701  1.00  0.00     0.162 C 
BRANCH   7   8
HETATM    8  C   UNL     1      41.817 -14.680   2.159  1.00  0.00     0.241 C 
BRANCH   8   9
HETATM    9  N   UNL     1      41.192 -13.564   3.011  1.00  0.00    -0.061 N 
HETATM   10  H   UNL     1      40.995 -12.797   2.338  1.00  0.00     0.280 HD
HETATM   11  C   UNL     1      42.032 -12.922   4.088  1.00  0.00     0.236 C 
HETATM   12  C   UNL     1      41.607 -13.626   5.356  1.00  0.00     0.029 C 
HETATM   13  C   UNL     1      40.114 -13.808   5.172  1.00  0.00     0.029 C 
HETATM   14  C   UNL     1      39.890 -13.948   3.673  1.00  0.00     0.236 C 
ENDBRANCH   8   9
BRANCH   8  15
HETATM   15  C   UNL     1      41.636 -14.543   0.651  1.00  0.00     0.007 A 
HETATM   16  C   UNL     1      41.935 -13.326  -0.000  1.00  0.00     0.076 A 
HETATM   17  C   UNL     1      41.739 -13.202  -1.380  1.00  0.00     0.037 A 
HETATM   18  C   UNL     1      41.278 -14.283  -2.130  1.00  0.00     0.003 A 
HETATM   19  C   UNL     1      41.010 -15.496  -1.508  1.00  0.00     0.001 A 
HETATM   20  C   UNL     1      41.189 -15.626  -0.131  1.00  0.00     0.012 A 
BRANCH  16  21
HETATM   21  O   UNL     1      42.392 -12.305   0.793  1.00  0.00    -0.355 OA
HETATM   22  C   UNL     1      41.993 -10.985   0.422  1.00  0.00     0.210 C 
ENDBRANCH  16  21
ENDBRANCH   8  15
ENDBRANCH   7   8
ENDBRANCH   3   7
BRANCH   1  23
HETATM   23  C   UNL     1      44.137 -17.725   5.716  1.00  0.00     0.086 C 
HETATM   24  C   UNL     1      44.620 -16.708   6.746  1.00  0.00     0.032 C 
BRANCH  23  25
HETATM   25  C   UNL     1      44.735 -19.119   5.996  1.00  0.00     0.063 C 
BRANCH  25  26
HETATM   26  C   UNL     1      44.647 -20.030   4.790  1.00  0.00    -0.056 A 
HETATM   27  C   UNL     1      44.395 -19.504   3.515  1.00  0.00     0.010 A 
HETATM   28  C   UNL     1      44.288 -20.350   2.407  1.00  0.00     0.037 A 
HETATM   29  C   UNL     1      44.424 -21.722   2.580  1.00  0.00     0.065 A 
HETATM   30  C   UNL     1      44.672 -22.263   3.835  1.00  0.00     0.037 A 
HETATM   31  C   UNL     1      44.790 -21.419   4.939  1.00  0.00     0.010 A 
BRANCH  29  32
HETATM   32  O   UNL     1      44.310 -22.582   1.530  1.00  0.00    -0.361 OA
HETATM   33  H   UNL     1      43.948 -23.424   1.857  1.00  0.00     0.217 HD
ENDBRANCH  29  32
ENDBRANCH  25  26
ENDBRANCH  23  25
ENDBRANCH   1  23
TORSDOF 9
ENDMDL
MODEL 9
REMARK VINA RESULT:      -7.2      2.796      4.666
REMARK  9 active torsions:
REMARK  status: ('A' for Active; 'I' for Inactive)
REMARK    1  A    between atoms: C_2  and  N_3 
REMARK    2  A    between atoms: C_2  and  C_23 
REMARK       I    between atoms: N_3  and  C_4 
REMARK       I    between atoms: C_4  and  N_5 
REMARK    3  A    between atoms: N_5  and  C_6 
REMARK    4  A    between atoms: C_6  and  C_7 
REMARK    5  A    between atoms: C_7  and  N_8 
REMARK    6  A    between atoms: C_7  and  C_14 
REMARK    7  A    between atoms: C_15  and  O_16 
REMARK    8  A    between atoms: C_23  and  C_24 
REMARK    9  A    between atoms: C_27  and  O_28 
ROOT
HETATM    1  N   UNL     1      44.303 -16.249   6.415  1.00  0.00    -0.339 N 
HETATM    2  C   UNL     1      43.844 -14.992   6.244  1.00  0.00     0.316 C 
HETATM    3  N   UNL     1      42.852 -14.828   5.329  1.00  0.00    -0.341 N 
HETATM    4  O   UNL     1      44.245 -14.060   6.938  1.00  0.00    -0.248 OA
HETATM    5  H   UNL     1      45.069 -16.312   7.077  1.00  0.00     0.164 HD
HETATM    6  H   UNL     1      42.921 -15.464   4.543  1.00  0.00     0.164 HD
ENDROOT
BRANCH   3   7
HETATM    7  C   UNL     1      42.365 -13.493   5.011  1.00  0.00     0.162 C 
BRANCH   7   8
HETATM    8  C   UNL     1      41.193 -13.391   3.974  1.00  0.00     0.241 C 
BRANCH   8   9
HETATM    9  N   UNL     1      39.837 -13.146   4.654  1.00  0.00    -0.061 N 
HETATM   10  H   UNL     1      39.236 -13.931   4.334  1.00  0.00     0.280 HD
HETATM   11  C   UNL     1      39.063 -11.901   4.295  1.00  0.00     0.236 C 
HETATM   12  C   UNL     1      39.384 -10.934   5.411  1.00  0.00     0.029 C 
HETATM   13  C   UNL     1      39.420 -11.816   6.642  1.00  0.00     0.029 C 
HETATM   14  C   UNL     1      39.887 -13.184   6.163  1.00  0.00     0.236 C 
ENDBRANCH   8   9
BRANCH   8  15
HETATM   15  C   UNL     1      41.218 -14.494   2.922  1.00  0.00     0.007 A 
HETATM   16  C   UNL     1      41.911 -14.310   1.705  1.00  0.00     0.076 A 
HETATM   17  C   UNL     1      41.903 -15.318   0.734  1.00  0.00     0.037 A 
HETATM   18  C   UNL     1      41.241 -16.522   0.968  1.00  0.00     0.003 A 
HETATM   19  C   UNL     1      40.581 -16.729   2.174  1.00  0.00     0.001 A 
HETATM   20  C   UNL     1      40.572 -15.726   3.143  1.00  0.00     0.012 A 
BRANCH  16  21
HETATM   21  O   UNL     1      42.547 -13.108   1.541  1.00  0.00    -0.355 OA
HETATM   22  C   UNL     1      42.091 -12.289   0.463  1.00  0.00     0.210 C 
ENDBRANCH  16  21
ENDBRANCH   8  15
ENDBRANCH   7   8
ENDBRANCH   3   7
BRANCH   1  23
HETATM   23  C   UNL     1      43.757 -17.510   5.899  1.00  0.00     0.086 C 
HETATM   24  C   UNL     1      42.397 -17.779   6.534  1.00  0.00     0.032 C 
BRANCH  23  25
HETATM   25  C   UNL     1      43.650 -17.479   4.360  1.00  0.00     0.063 C 
BRANCH  25  26
HETATM   26  C   UNL     1      43.915 -18.836   3.742  1.00  0.00    -0.056 A 
HETATM   27  C   UNL     1      43.431 -19.143   2.462  1.00  0.00     0.010 A 
HETATM   28  C   UNL     1      43.654 -20.405   1.904  1.00  0.00     0.037 A 
HETATM   29  C   UNL     1      44.353 -21.360   2.632  1.00  0.00     0.065 A 
HETATM   30  C   UNL     1      44.838 -21.076   3.902  1.00  0.00     0.037 A 
HETATM   31  C   UNL     1      44.626 -19.813   4.455  1.00  0.00     0.010 A 
BRANCH  29  32
HETATM   32  O   UNL     1      44.578 -22.607   2.132  1.00  0.00    -0.361 OA
HETATM   33  H   UNL     1      43.973 -22.755   1.385  1.00  0.00     0.217 HD
ENDBRANCH  29  32
ENDBRANCH  25  26
ENDBRANCH  23  25
ENDBRANCH   1  23
TORSDOF 9
ENDMDL
MODEL 10
REMARK VINA RESULT:      -7.1      2.224      5.128
REMARK  9 active torsions:
REMARK  status: ('A' for Active; 'I' for Inactive)
REMARK    1  A    between atoms: C_2  and  N_3 
REMARK    2  A    between atoms: C_2  and  C_23 
REMARK       I    between atoms: N_3  and  C_4 
REMARK       I    between atoms: C_4  and  N_5 
REMARK    3  A    between atoms: N_5  and  C_6 
REMARK    4  A    between atoms: C_6  and  C_7 
REMARK    5  A    between atoms: C_7  and  N_8 
REMARK    6  A    between atoms: C_7  and  C_14 
REMARK    7  A    between atoms: C_15  and  O_16 
REMARK    8  A    between atoms: C_23  and  C_24 
REMARK    9  A    between atoms: C_27  and  O_28 
ROOT
HETATM    1  N   UNL     1      42.785 -13.950   6.262  1.00  0.00    -0.339 N 
HETATM    2  C   UNL     1      42.248 -13.853   5.029  1.00  0.00     0.316 C 
HETATM    3  N   UNL     1      43.046 -14.217   3.990  1.00  0.00    -0.341 N 
HETATM    4  O   UNL     1      41.073 -13.531   4.861  1.00  0.00    -0.248 OA
HETATM    5  H   UNL     1      42.165 -13.628   6.998  1.00  0.00     0.164 HD
HETATM    6  H   UNL     1      44.026 -14.011   4.144  1.00  0.00     0.164 HD
ENDROOT
BRANCH   3   7
HETATM    7  C   UNL     1      42.581 -14.053   2.620  1.00  0.00     0.162 C 
BRANCH   7   8
HETATM    8  C   UNL     1      41.739 -15.227   2.009  1.00  0.00     0.241 C 
BRANCH   8   9
HETATM    9  N   UNL     1      42.608 -16.207   1.206  1.00  0.00    -0.061 N 
HETATM   10  H   UNL     1      42.763 -15.735   0.293  1.00  0.00     0.280 HD
HETATM   11  C   UNL     1      42.033 -17.555   0.847  1.00  0.00     0.236 C 
HETATM   12  C   UNL     1      42.595 -18.487   1.896  1.00  0.00     0.029 C 
HETATM   13  C   UNL     1      44.009 -17.979   2.094  1.00  0.00     0.029 C 
HETATM   14  C   UNL     1      43.959 -16.482   1.823  1.00  0.00     0.236 C 
ENDBRANCH   8   9
BRANCH   8  15
HETATM   15  C   UNL     1      40.459 -14.761   1.324  1.00  0.00     0.007 A 
HETATM   16  C   UNL     1      40.494 -14.248   0.008  1.00  0.00     0.076 A 
HETATM   17  C   UNL     1      39.318 -13.795  -0.600  1.00  0.00     0.037 A 
HETATM   18  C   UNL     1      38.098 -13.875   0.070  1.00  0.00     0.003 A 
HETATM   19  C   UNL     1      38.043 -14.407   1.353  1.00  0.00     0.001 A 
HETATM   20  C   UNL     1      39.212 -14.848   1.973  1.00  0.00     0.012 A 
BRANCH  16  21
HETATM   21  O   UNL     1      41.723 -14.203  -0.597  1.00  0.00    -0.355 OA
HETATM   22  C   UNL     1      42.108 -12.950  -1.162  1.00  0.00     0.210 C 
ENDBRANCH  16  21
ENDBRANCH   8  15
ENDBRANCH   7   8
ENDBRANCH   3   7
BRANCH   1  23
HETATM   23  C   UNL     1      44.046 -14.577   6.674  1.00  0.00     0.086 C 
HETATM   24  C   UNL     1      44.895 -13.568   7.441  1.00  0.00     0.032 C 
BRANCH  23  25
HETATM   25  C   UNL     1      43.786 -15.837   7.525  1.00  0.00     0.063 C 
BRANCH  25  26
HETATM   26  C   UNL     1      43.925 -17.111   6.718  1.00  0.00    -0.056 A 
HETATM   27  C   UNL     1      42.792 -17.750   6.193  1.00  0.00     0.010 A 
HETATM   28  C   UNL     1      42.921 -18.940   5.471  1.00  0.00     0.037 A 
HETATM   29  C   UNL     1      44.182 -19.492   5.283  1.00  0.00     0.065 A 
HETATM   30  C   UNL     1      45.316 -18.875   5.796  1.00  0.00     0.037 A 
HETATM   31  C   UNL     1      45.190 -17.682   6.508  1.00  0.00     0.010 A 
BRANCH  29  32
HETATM   32  O   UNL     1      44.350 -20.658   4.600  1.00  0.00    -0.361 OA
HETATM   33  H   UNL     1      45.174 -20.601   4.086  1.00  0.00     0.217 HD
ENDBRANCH  29  32
ENDBRANCH  25  26
ENDBRANCH  23  25
ENDBRANCH   1  23
TORSDOF 9
ENDMDL
