MODEL 1
REMARK VINA RESULT:      -8.7      0.000      0.000
REMARK  4 active torsions:
REMARK  status: ('A' for Active; 'I' for Inactive)
REMARK    1  A    between atoms: C_10  and  C_11 
REMARK       I    between atoms: C_11  and  N_12 
REMARK    2  A    between atoms: N_12  and  N_13 
REMARK       I    between atoms: N_13  and  C_14 
REMARK    3  A    between atoms: C_14  and  C_15 
REMARK    4  A    between atoms: C_15  and  C_16 
ROOT
HETATM    1  C   UNL     1      43.700 -15.707   7.050  1.00  0.00     0.272 C 
HETATM    2  N   UNL     1      43.965 -14.360   6.930  1.00  0.00    -0.263 N 
HETATM    3  O   UNL     1      43.794 -16.277   8.138  1.00  0.00    -0.266 OA
HETATM    4  H   UNL     1      43.866 -13.834   6.063  1.00  0.00     0.190 HD
ENDROOT
BRANCH   2   5
HETATM    5  N   UNL     1      44.266 -13.626   8.084  1.00  0.00    -0.267 N 
HETATM    6  C   UNL     1      45.418 -12.870   8.105  1.00  0.00     0.240 C 
HETATM    7  O   UNL     1      46.220 -12.847   7.172  1.00  0.00    -0.272 OA
HETATM    8  H   UNL     1      43.618 -13.711   8.865  1.00  0.00     0.190 HD
BRANCH   6   9
HETATM    9  C   UNL     1      45.614 -12.062   9.374  1.00  0.00     0.143 C 
BRANCH   9  10
HETATM   10  C   UNL     1      44.339 -11.688  10.096  1.00  0.00    -0.049 A 
HETATM   11  C   UNL     1      44.083 -12.100  11.412  1.00  0.00     0.009 A 
HETATM   12  C   UNL     1      42.921 -11.689  12.073  1.00  0.00     0.024 A 
HETATM   13  C   UNL     1      42.018 -10.847  11.430  1.00  0.00     0.034 A 
HETATM   14 CL   UNL     1      40.596 -10.331  12.249  1.00  0.00    -0.084 Cl
HETATM   15  C   UNL     1      42.265 -10.412  10.131  1.00  0.00     0.024 A 
HETATM   16  C   UNL     1      43.424 -10.828   9.468  1.00  0.00     0.009 A 
ENDBRANCH   9  10
ENDBRANCH   6   9
ENDBRANCH   2   5
BRANCH   1  17
HETATM   17  C   UNL     1      43.314 -16.417   5.828  1.00  0.00     0.064 A 
HETATM   18  C   UNL     1      43.784 -17.642   5.233  1.00  0.00     0.046 A 
HETATM   19  C   UNL     1      44.758 -18.612   5.553  1.00  0.00     0.130 A 
HETATM   20  C   UNL     1      43.056 -17.844   4.053  1.00  0.00     0.046 A 
HETATM   21  C   UNL     1      44.975 -19.718   4.729  1.00  0.00     0.043 A 
HETATM   22  F   UNL     1      45.502 -18.491   6.660  1.00  0.00    -0.205 F 
HETATM   23  C   UNL     1      44.228 -19.884   3.570  1.00  0.00     0.005 A 
HETATM   24  C   UNL     1      43.254 -18.947   3.210  1.00  0.00     0.030 A 
HETATM   25  N   UNL     1      42.181 -16.792   3.928  1.00  0.00    -0.364 N 
HETATM   26  H   UNL     1      41.529 -16.674   3.164  1.00  0.00     0.165 HD
HETATM   27  C   UNL     1      42.331 -15.933   4.977  1.00  0.00     0.106 A 
ENDBRANCH   1  17
TORSDOF 4
ENDMDL
MODEL 2
REMARK VINA RESULT:      -8.5      3.872      8.832
REMARK  4 active torsions:
REMARK  status: ('A' for Active; 'I' for Inactive)
REMARK    1  A    between atoms: C_10  and  C_11 
REMARK       I    between atoms: C_11  and  N_12 
REMARK    2  A    between atoms: N_12  and  N_13 
REMARK       I    between atoms: N_13  and  C_14 
REMARK    3  A    between atoms: C_14  and  C_15 
REMARK    4  A    between atoms: C_15  and  C_16 
ROOT
HETATM    1  C   UNL     1      42.389 -10.395   9.151  1.00  0.00     0.272 C 
HETATM    2  N   UNL     1      42.976 -11.627   9.340  1.00  0.00    -0.263 N 
HETATM    3  O   UNL     1      42.427  -9.836   8.054  1.00  0.00    -0.266 OA
HETATM    4  H   UNL     1      42.941 -12.148  10.215  1.00  0.00     0.190 HD
ENDROOT
BRANCH   2   5
HETATM    5  N   UNL     1      43.551 -12.277   8.240  1.00  0.00    -0.267 N 
HETATM    6  C   UNL     1      44.762 -12.912   8.405  1.00  0.00     0.240 C 
HETATM    7  O   UNL     1      45.387 -12.894   9.465  1.00  0.00    -0.272 OA
HETATM    8  H   UNL     1      43.043 -12.224   7.359  1.00  0.00     0.190 HD
BRANCH   6   9
HETATM    9  C   UNL     1      45.261 -13.641   7.172  1.00  0.00     0.143 C 
BRANCH   9  10
HETATM   10  C   UNL     1      44.315 -14.683   6.620  1.00  0.00    -0.049 A 
HETATM   11  C   UNL     1      43.922 -15.801   7.370  1.00  0.00     0.009 A 
HETATM   12  C   UNL     1      43.000 -16.717   6.854  1.00  0.00     0.024 A 
HETATM   13  C   UNL     1      42.451 -16.511   5.592  1.00  0.00     0.034 A 
HETATM   14 CL   UNL     1      41.306 -17.630   4.963  1.00  0.00    -0.084 Cl
HETATM   15  C   UNL     1      42.814 -15.397   4.840  1.00  0.00     0.024 A 
HETATM   16  C   UNL     1      43.739 -14.484   5.355  1.00  0.00     0.009 A 
ENDBRANCH   9  10
ENDBRANCH   6   9
ENDBRANCH   2   5
BRANCH   1  17
HETATM   17  C   UNL     1      41.733  -9.789  10.312  1.00  0.00     0.064 A 
HETATM   18  C   UNL     1      42.186  -9.541  11.657  1.00  0.00     0.046 A 
HETATM   19  C   UNL     1      43.376  -9.769  12.381  1.00  0.00     0.130 A 
HETATM   20  C   UNL     1      41.130  -8.936  12.352  1.00  0.00     0.046 A 
HETATM   21  C   UNL     1      43.488  -9.400  13.723  1.00  0.00     0.043 A 
HETATM   22  F   UNL     1      44.430 -10.348  11.794  1.00  0.00    -0.205 F 
HETATM   23  C   UNL     1      42.418  -8.797  14.374  1.00  0.00     0.005 A 
HETATM   24  C   UNL     1      41.219  -8.555  13.699  1.00  0.00     0.030 A 
HETATM   25  N   UNL     1      40.079  -8.819  11.476  1.00  0.00    -0.364 N 
HETATM   26  H   UNL     1      39.179  -8.418  11.707  1.00  0.00     0.165 HD
HETATM   27  C   UNL     1      40.425  -9.329  10.259  1.00  0.00     0.106 A 
ENDBRANCH   1  17
TORSDOF 4
ENDMDL
MODEL 3
REMARK VINA RESULT:      -8.3      6.489      8.665
REMARK  4 active torsions:
REMARK  status: ('A' for Active; 'I' for Inactive)
REMARK    1  A    between atoms: C_10  and  C_11 
REMARK       I    between atoms: C_11  and  N_12 
REMARK    2  A    between atoms: N_12  and  N_13 
REMARK       I    between atoms: N_13  and  C_14 
REMARK    3  A    between atoms: C_14  and  C_15 
REMARK    4  A    between atoms: C_15  and  C_16 
ROOT
HETATM    1  C   UNL     1      41.463 -17.005   2.669  1.00  0.00     0.272 C 
HETATM    2  N   UNL     1      40.103 -16.877   2.851  1.00  0.00    -0.263 N 
HETATM    3  O   UNL     1      42.009 -16.579   1.650  1.00  0.00    -0.266 OA
HETATM    4  H   UNL     1      39.608 -17.177   3.689  1.00  0.00     0.190 HD
ENDROOT
BRANCH   2   5
HETATM    5  N   UNL     1      39.356 -16.180   1.891  1.00  0.00    -0.267 N 
HETATM    6  C   UNL     1      39.068 -14.851   2.115  1.00  0.00     0.240 C 
HETATM    7  O   UNL     1      39.396 -14.260   3.142  1.00  0.00    -0.272 OA
HETATM    8  H   UNL     1      39.043 -16.710   1.080  1.00  0.00     0.190 HD
BRANCH   6   9
HETATM    9  C   UNL     1      38.315 -14.176   0.985  1.00  0.00     0.143 C 
BRANCH   9  10
HETATM   10  C   UNL     1      39.150 -13.845  -0.231  1.00  0.00    -0.049 A 
HETATM   11  C   UNL     1      38.620 -13.886  -1.529  1.00  0.00     0.009 A 
HETATM   12  C   UNL     1      39.400 -13.519  -2.630  1.00  0.00     0.024 A 
HETATM   13  C   UNL     1      40.711 -13.089  -2.438  1.00  0.00     0.034 A 
HETATM   14 CL   UNL     1      41.666 -12.624  -3.790  1.00  0.00    -0.084 Cl
HETATM   15  C   UNL     1      41.248 -13.024  -1.155  1.00  0.00     0.024 A 
HETATM   16  C   UNL     1      40.468 -13.396  -0.056  1.00  0.00     0.009 A 
ENDBRANCH   9  10
ENDBRANCH   6   9
ENDBRANCH   2   5
BRANCH   1  17
HETATM   17  C   UNL     1      42.213 -17.672   3.735  1.00  0.00     0.064 A 
HETATM   18  C   UNL     1      43.205 -18.717   3.709  1.00  0.00     0.046 A 
HETATM   19  C   UNL     1      43.830 -19.494   2.710  1.00  0.00     0.130 A 
HETATM   20  C   UNL     1      43.582 -18.972   5.034  1.00  0.00     0.046 A 
HETATM   21  C   UNL     1      44.781 -20.462   3.035  1.00  0.00     0.043 A 
HETATM   22  F   UNL     1      43.521 -19.317   1.418  1.00  0.00    -0.205 F 
HETATM   23  C   UNL     1      45.130 -20.680   4.362  1.00  0.00     0.005 A 
HETATM   24  C   UNL     1      44.536 -19.938   5.386  1.00  0.00     0.030 A 
HETATM   25  N   UNL     1      42.856 -18.126   5.836  1.00  0.00    -0.364 N 
HETATM   26  H   UNL     1      42.921 -18.091   6.845  1.00  0.00     0.165 HD
HETATM   27  C   UNL     1      42.032 -17.351   5.073  1.00  0.00     0.106 A 
ENDBRANCH   1  17
TORSDOF 4
ENDMDL
MODEL 4
REMARK VINA RESULT:      -8.3      6.736      9.387
REMARK  4 active torsions:
REMARK  status: ('A' for Active; 'I' for Inactive)
REMARK    1  A    between atoms: C_10  and  C_11 
REMARK       I    between atoms: C_11  and  N_12 
REMARK    2  A    between atoms: N_12  and  N_13 
REMARK       I    between atoms: N_13  and  C_14 
REMARK    3  A    between atoms: C_14  and  C_15 
REMARK    4  A    between atoms: C_15  and  C_16 
ROOT
HETATM    1  C   UNL     1      43.733 -17.438   1.944  1.00  0.00     0.272 C 
HETATM    2  N   UNL     1      42.467 -17.251   1.435  1.00  0.00    -0.263 N 
HETATM    3  O   UNL     1      44.729 -17.066   1.320  1.00  0.00    -0.266 OA
HETATM    4  H   UNL     1      41.611 -17.505   1.926  1.00  0.00     0.190 HD
ENDROOT
BRANCH   2   5
HETATM    5  N   UNL     1      42.320 -16.555   0.228  1.00  0.00    -0.267 N 
HETATM    6  C   UNL     1      41.760 -15.296   0.254  1.00  0.00     0.240 C 
HETATM    7  O   UNL     1      41.338 -14.773   1.284  1.00  0.00    -0.272 OA
HETATM    8  H   UNL     1      42.620 -17.035  -0.618  1.00  0.00     0.190 HD
BRANCH   6   9
HETATM    9  C   UNL     1      41.711 -14.605  -1.095  1.00  0.00     0.143 C 
BRANCH   9  10
HETATM   10  C   UNL     1      40.377 -14.682  -1.804  1.00  0.00    -0.049 A 
HETATM   11  C   UNL     1      39.261 -13.955  -1.366  1.00  0.00     0.009 A 
HETATM   12  C   UNL     1      38.057 -14.001  -2.076  1.00  0.00     0.024 A 
HETATM   13  C   UNL     1      37.967 -14.760  -3.240  1.00  0.00     0.034 A 
HETATM   14 CL   UNL     1      36.491 -14.806  -4.121  1.00  0.00    -0.084 Cl
HETATM   15  C   UNL     1      39.070 -15.474  -3.700  1.00  0.00     0.024 A 
HETATM   16  C   UNL     1      40.272 -15.431  -2.987  1.00  0.00     0.009 A 
ENDBRANCH   9  10
ENDBRANCH   6   9
ENDBRANCH   2   5
BRANCH   1  17
HETATM   17  C   UNL     1      43.833 -18.102   3.246  1.00  0.00     0.064 A 
HETATM   18  C   UNL     1      44.116 -19.465   3.617  1.00  0.00     0.046 A 
HETATM   19  C   UNL     1      44.394 -20.663   2.924  1.00  0.00     0.130 A 
HETATM   20  C   UNL     1      44.077 -19.538   5.015  1.00  0.00     0.046 A 
HETATM   21  C   UNL     1      44.625 -21.857   3.609  1.00  0.00     0.043 A 
HETATM   22  F   UNL     1      44.443 -20.681   1.586  1.00  0.00    -0.205 F 
HETATM   23  C   UNL     1      44.582 -21.886   4.998  1.00  0.00     0.005 A 
HETATM   24  C   UNL     1      44.307 -20.725   5.726  1.00  0.00     0.030 A 
HETATM   25  N   UNL     1      43.783 -18.281   5.482  1.00  0.00    -0.364 N 
HETATM   26  H   UNL     1      43.689 -18.037   6.459  1.00  0.00     0.165 HD
HETATM   27  C   UNL     1      43.629 -17.418   4.436  1.00  0.00     0.106 A 
ENDBRANCH   1  17
TORSDOF 4
ENDMDL
MODEL 5
REMARK VINA RESULT:      -8.3      6.565      8.085
REMARK  4 active torsions:
REMARK  status: ('A' for Active; 'I' for Inactive)
REMARK    1  A    between atoms: C_10  and  C_11 
REMARK       I    between atoms: C_11  and  N_12 
REMARK    2  A    between atoms: N_12  and  N_13 
REMARK       I    between atoms: N_13  and  C_14 
REMARK    3  A    between atoms: C_14  and  C_15 
REMARK    4  A    between atoms: C_15  and  C_16 
ROOT
HETATM    1  C   UNL     1      43.304 -17.381   3.433  1.00  0.00     0.272 C 
HETATM    2  N   UNL     1      42.047 -16.962   3.811  1.00  0.00    -0.263 N 
HETATM    3  O   UNL     1      43.932 -16.789   2.553  1.00  0.00    -0.266 OA
HETATM    4  H   UNL     1      41.502 -17.392   4.556  1.00  0.00     0.190 HD
ENDROOT
BRANCH   2   5
HETATM    5  N   UNL     1      41.522 -15.797   3.235  1.00  0.00    -0.267 N 
HETATM    6  C   UNL     1      40.429 -15.905   2.404  1.00  0.00     0.240 C 
HETATM    7  O   UNL     1      39.921 -16.985   2.104  1.00  0.00    -0.272 OA
HETATM    8  H   UNL     1      42.000 -14.924   3.450  1.00  0.00     0.190 HD
BRANCH   6   9
HETATM    9  C   UNL     1      39.900 -14.580   1.890  1.00  0.00     0.143 C 
BRANCH   9  10
HETATM   10  C   UNL     1      40.611 -14.039   0.670  1.00  0.00    -0.049 A 
HETATM   11  C   UNL     1      41.409 -12.886   0.725  1.00  0.00     0.009 A 
HETATM   12  C   UNL     1      42.100 -12.443  -0.406  1.00  0.00     0.024 A 
HETATM   13  C   UNL     1      42.015 -13.161  -1.596  1.00  0.00     0.034 A 
HETATM   14 CL   UNL     1      42.877 -12.624  -2.984  1.00  0.00    -0.084 Cl
HETATM   15  C   UNL     1      41.243 -14.317  -1.666  1.00  0.00     0.024 A 
HETATM   16  C   UNL     1      40.548 -14.757  -0.535  1.00  0.00     0.009 A 
ENDBRANCH   9  10
ENDBRANCH   6   9
ENDBRANCH   2   5
BRANCH   1  17
HETATM   17  C   UNL     1      43.843 -18.559   4.117  1.00  0.00     0.064 A 
HETATM   18  C   UNL     1      44.088 -19.907   3.672  1.00  0.00     0.046 A 
HETATM   19  C   UNL     1      43.918 -20.620   2.465  1.00  0.00     0.130 A 
HETATM   20  C   UNL     1      44.611 -20.621   4.759  1.00  0.00     0.046 A 
HETATM   21  C   UNL     1      44.264 -21.969   2.367  1.00  0.00     0.043 A 
HETATM   22  F   UNL     1      43.418 -20.014   1.381  1.00  0.00    -0.205 F 
HETATM   23  C   UNL     1      44.785 -22.638   3.468  1.00  0.00     0.005 A 
HETATM   24  C   UNL     1      44.967 -21.975   4.685  1.00  0.00     0.030 A 
HETATM   25  N   UNL     1      44.683 -19.753   5.821  1.00  0.00    -0.364 N 
HETATM   26  H   UNL     1      45.022 -19.998   6.742  1.00  0.00     0.165 HD
HETATM   27  C   UNL     1      44.221 -18.523   5.452  1.00  0.00     0.106 A 
ENDBRANCH   1  17
TORSDOF 4
ENDMDL
MODEL 6
REMARK VINA RESULT:      -8.2      6.881      9.670
REMARK  4 active torsions:
REMARK  status: ('A' for Active; 'I' for Inactive)
REMARK    1  A    between atoms: C_10  and  C_11 
REMARK       I    between atoms: C_11  and  N_12 
REMARK    2  A    between atoms: N_12  and  N_13 
REMARK       I    between atoms: N_13  and  C_14 
REMARK    3  A    between atoms: C_14  and  C_15 
REMARK    4  A    between atoms: C_15  and  C_16 
ROOT
HETATM    1  C   UNL     1      41.965 -17.246   1.427  1.00  0.00     0.272 C 
HETATM    2  N   UNL     1      42.471 -16.286   0.579  1.00  0.00    -0.263 N 
HETATM    3  O   UNL     1      40.934 -17.860   1.146  1.00  0.00    -0.266 OA
HETATM    4  H   UNL     1      43.338 -15.777   0.746  1.00  0.00     0.190 HD
ENDROOT
BRANCH   2   5
HETATM    5  N   UNL     1      41.840 -16.073  -0.654  1.00  0.00    -0.267 N 
HETATM    6  C   UNL     1      41.001 -14.988  -0.788  1.00  0.00     0.240 C 
HETATM    7  O   UNL     1      40.742 -14.224   0.141  1.00  0.00    -0.272 OA
HETATM    8  H   UNL     1      42.022 -16.755  -1.387  1.00  0.00     0.190 HD
BRANCH   6   9
HETATM    9  C   UNL     1      40.424 -14.812  -2.179  1.00  0.00     0.143 C 
BRANCH   9  10
HETATM   10  C   UNL     1      40.880 -13.567  -2.906  1.00  0.00    -0.049 A 
HETATM   11  C   UNL     1      39.978 -12.722  -3.570  1.00  0.00     0.009 A 
HETATM   12  C   UNL     1      40.422 -11.547  -4.184  1.00  0.00     0.024 A 
HETATM   13  C   UNL     1      41.769 -11.198  -4.121  1.00  0.00     0.034 A 
HETATM   14 CL   UNL     1      42.313  -9.745  -4.864  1.00  0.00    -0.084 Cl
HETATM   15  C   UNL     1      42.676 -12.014  -3.451  1.00  0.00     0.024 A 
HETATM   16  C   UNL     1      42.232 -13.192  -2.841  1.00  0.00     0.009 A 
ENDBRANCH   9  10
ENDBRANCH   6   9
ENDBRANCH   2   5
BRANCH   1  17
HETATM   17  C   UNL     1      42.702 -17.488   2.670  1.00  0.00     0.064 A 
HETATM   18  C   UNL     1      43.483 -18.609   3.127  1.00  0.00     0.046 A 
HETATM   19  C   UNL     1      43.841 -19.871   2.605  1.00  0.00     0.130 A 
HETATM   20  C   UNL     1      43.959 -18.297   4.407  1.00  0.00     0.046 A 
HETATM   21  C   UNL     1      44.636 -20.757   3.335  1.00  0.00     0.043 A 
HETATM   22  F   UNL     1      43.422 -20.250   1.391  1.00  0.00    -0.205 F 
HETATM   23  C   UNL     1      45.091 -20.406   4.601  1.00  0.00     0.005 A 
HETATM   24  C   UNL     1      44.760 -19.169   5.160  1.00  0.00     0.030 A 
HETATM   25  N   UNL     1      43.491 -17.045   4.723  1.00  0.00    -0.364 N 
HETATM   26  H   UNL     1      43.677 -16.564   5.593  1.00  0.00     0.165 HD
HETATM   27  C   UNL     1      42.736 -16.556   3.697  1.00  0.00     0.106 A 
ENDBRANCH   1  17
TORSDOF 4
ENDMDL
MODEL 7
REMARK VINA RESULT:      -8.2      1.969      2.362
REMARK  4 active torsions:
REMARK  status: ('A' for Active; 'I' for Inactive)
REMARK    1  A    between atoms: C_10  and  C_11 
REMARK       I    between atoms: C_11  and  N_12 
REMARK    2  A    between atoms: N_12  and  N_13 
REMARK       I    between atoms: N_13  and  C_14 
REMARK    3  A    between atoms: C_14  and  C_15 
REMARK    4  A    between atoms: C_15  and  C_16 
ROOT
HETATM    1  C   UNL     1      43.084 -15.176   6.189  1.00  0.00     0.272 C 
HETATM    2  N   UNL     1      43.924 -14.477   7.029  1.00  0.00    -0.263 N 
HETATM    3  O   UNL     1      41.998 -14.708   5.845  1.00  0.00    -0.266 OA
HETATM    4  H   UNL     1      44.847 -14.802   7.313  1.00  0.00     0.190 HD
ENDROOT
BRANCH   2   5
HETATM    5  N   UNL     1      43.559 -13.184   7.426  1.00  0.00    -0.267 N 
HETATM    6  C   UNL     1      44.174 -12.632   8.528  1.00  0.00     0.240 C 
HETATM    7  O   UNL     1      44.997 -13.242   9.210  1.00  0.00    -0.272 OA
HETATM    8  H   UNL     1      42.831 -12.725   6.881  1.00  0.00     0.190 HD
BRANCH   6   9
HETATM    9  C   UNL     1      43.756 -11.206   8.830  1.00  0.00     0.143 C 
BRANCH   9  10
HETATM   10  C   UNL     1      43.340 -10.952  10.261  1.00  0.00    -0.049 A 
HETATM   11  C   UNL     1      44.239 -10.460  11.219  1.00  0.00     0.009 A 
HETATM   12  C   UNL     1      43.811 -10.180  12.520  1.00  0.00     0.024 A 
HETATM   13  C   UNL     1      42.476 -10.370  12.867  1.00  0.00     0.034 A 
HETATM   14 CL   UNL     1      41.947 -10.011  14.464  1.00  0.00    -0.084 Cl
HETATM   15  C   UNL     1      41.565 -10.839  11.925  1.00  0.00     0.024 A 
HETATM   16  C   UNL     1      41.995 -11.123  10.625  1.00  0.00     0.009 A 
ENDBRANCH   9  10
ENDBRANCH   6   9
ENDBRANCH   2   5
BRANCH   1  17
HETATM   17  C   UNL     1      43.543 -16.492   5.738  1.00  0.00     0.064 A 
HETATM   18  C   UNL     1      43.565 -17.116   4.440  1.00  0.00     0.046 A 
HETATM   19  C   UNL     1      43.173 -16.746   3.135  1.00  0.00     0.130 A 
HETATM   20  C   UNL     1      44.112 -18.396   4.596  1.00  0.00     0.046 A 
HETATM   21  C   UNL     1      43.332 -17.620   2.057  1.00  0.00     0.043 A 
HETATM   22  F   UNL     1      42.635 -15.543   2.900  1.00  0.00    -0.205 F 
HETATM   23  C   UNL     1      43.884 -18.880   2.255  1.00  0.00     0.005 A 
HETATM   24  C   UNL     1      44.284 -19.290   3.530  1.00  0.00     0.030 A 
HETATM   25  N   UNL     1      44.411 -18.552   5.927  1.00  0.00    -0.364 N 
HETATM   26  H   UNL     1      44.818 -19.386   6.332  1.00  0.00     0.165 HD
HETATM   27  C   UNL     1      44.070 -17.427   6.618  1.00  0.00     0.106 A 
ENDBRANCH   1  17
TORSDOF 4
ENDMDL
MODEL 8
REMARK VINA RESULT:      -7.8      6.511      9.387
REMARK  4 active torsions:
REMARK  status: ('A' for Active; 'I' for Inactive)
REMARK    1  A    between atoms: C_10  and  C_11 
REMARK       I    between atoms: C_11  and  N_12 
REMARK    2  A    between atoms: N_12  and  N_13 
REMARK       I    between atoms: N_13  and  C_14 
REMARK    3  A    between atoms: C_14  and  C_15 
REMARK    4  A    between atoms: C_15  and  C_16 
ROOT
HETATM    1  C   UNL     1      41.850 -15.237   0.749  1.00  0.00     0.272 C 
HETATM    2  N   UNL     1      42.303 -14.771   1.964  1.00  0.00    -0.263 N 
HETATM    3  O   UNL     1      42.119 -16.377   0.367  1.00  0.00    -0.266 OA
HETATM    4  H   UNL     1      42.078 -13.853   2.343  1.00  0.00     0.190 HD
ENDROOT
BRANCH   2   5
HETATM    5  N   UNL     1      43.012 -15.644   2.800  1.00  0.00    -0.267 N 
HETATM    6  C   UNL     1      42.356 -16.215   3.869  1.00  0.00     0.240 C 
HETATM    7  O   UNL     1      41.187 -15.955   4.152  1.00  0.00    -0.272 OA
HETATM    8  H   UNL     1      43.994 -15.794   2.580  1.00  0.00     0.190 HD
BRANCH   6   9
HETATM    9  C   UNL     1      43.193 -17.195   4.668  1.00  0.00     0.143 C 
BRANCH   9  10
HETATM   10  C   UNL     1      43.518 -18.487   3.954  1.00  0.00    -0.049 A 
HETATM   11  C   UNL     1      42.908 -18.839   2.741  1.00  0.00     0.009 A 
HETATM   12  C   UNL     1      43.271 -20.014   2.075  1.00  0.00     0.024 A 
HETATM   13  C   UNL     1      44.261 -20.835   2.607  1.00  0.00     0.034 A 
HETATM   14 CL   UNL     1      44.718 -22.272   1.780  1.00  0.00    -0.084 Cl
HETATM   15  C   UNL     1      44.892 -20.492   3.800  1.00  0.00     0.024 A 
HETATM   16  C   UNL     1      44.525 -19.321   4.468  1.00  0.00     0.009 A 
ENDBRANCH   9  10
ENDBRANCH   6   9
ENDBRANCH   2   5
BRANCH   1  17
HETATM   17  C   UNL     1      41.048 -14.313  -0.056  1.00  0.00     0.064 A 
HETATM   18  C   UNL     1      39.687 -13.855   0.066  1.00  0.00     0.046 A 
HETATM   19  C   UNL     1      38.617 -14.092   0.956  1.00  0.00     0.130 A 
HETATM   20  C   UNL     1      39.442 -12.974  -0.996  1.00  0.00     0.046 A 
HETATM   21  C   UNL     1      37.380 -13.470   0.782  1.00  0.00     0.043 A 
HETATM   22  F   UNL     1      38.766 -14.926   1.993  1.00  0.00    -0.205 F 
HETATM   23  C   UNL     1      37.180 -12.598  -0.282  1.00  0.00     0.005 A 
HETATM   24  C   UNL     1      38.209 -12.335  -1.191  1.00  0.00     0.030 A 
HETATM   25  N   UNL     1      40.596 -12.896  -1.736  1.00  0.00    -0.364 N 
HETATM   26  H   UNL     1      40.709 -12.332  -2.568  1.00  0.00     0.165 HD
HETATM   27  C   UNL     1      41.558 -13.694  -1.189  1.00  0.00     0.106 A 
ENDBRANCH   1  17
TORSDOF 4
ENDMDL
MODEL 9
REMARK VINA RESULT:      -7.8      2.975      3.979
REMARK  4 active torsions:
REMARK  status: ('A' for Active; 'I' for Inactive)
REMARK    1  A    between atoms: C_10  and  C_11 
REMARK       I    between atoms: C_11  and  N_12 
REMARK    2  A    between atoms: N_12  and  N_13 
REMARK       I    between atoms: N_13  and  C_14 
REMARK    3  A    between atoms: C_14  and  C_15 
REMARK    4  A    between atoms: C_15  and  C_16 
ROOT
HETATM    1  C   UNL     1      42.520 -15.818   5.890  1.00  0.00     0.272 C 
HETATM    2  N   UNL     1      41.144 -15.888   5.863  1.00  0.00    -0.263 N 
HETATM    3  O   UNL     1      43.096 -14.794   6.260  1.00  0.00    -0.266 OA
HETATM    4  H   UNL     1      40.620 -16.721   5.602  1.00  0.00     0.190 HD
ENDROOT
BRANCH   2   5
HETATM    5  N   UNL     1      40.403 -14.798   6.340  1.00  0.00    -0.267 N 
HETATM    6  C   UNL     1      39.927 -13.875   5.436  1.00  0.00     0.240 C 
HETATM    7  O   UNL     1      40.163 -13.937   4.229  1.00  0.00    -0.272 OA
HETATM    8  H   UNL     1      40.276 -14.737   7.348  1.00  0.00     0.190 HD
BRANCH   6   9
HETATM    9  C   UNL     1      39.082 -12.775   6.049  1.00  0.00     0.143 C 
BRANCH   9  10
HETATM   10  C   UNL     1      39.792 -11.922   7.076  1.00  0.00    -0.049 A 
HETATM   11  C   UNL     1      39.262 -11.707   8.357  1.00  0.00     0.009 A 
HETATM   12  C   UNL     1      39.970 -10.961   9.304  1.00  0.00     0.024 A 
HETATM   13  C   UNL     1      41.221 -10.442   8.984  1.00  0.00     0.034 A 
HETATM   14 CL   UNL     1      42.098  -9.537  10.155  1.00  0.00    -0.084 Cl
HETATM   15  C   UNL     1      41.772 -10.661   7.724  1.00  0.00     0.024 A 
HETATM   16  C   UNL     1      41.061 -11.403   6.776  1.00  0.00     0.009 A 
ENDBRANCH   9  10
ENDBRANCH   6   9
ENDBRANCH   2   5
BRANCH   1  17
HETATM   17  C   UNL     1      43.252 -17.010   5.454  1.00  0.00     0.064 A 
HETATM   18  C   UNL     1      43.209 -17.778   4.236  1.00  0.00     0.046 A 
HETATM   19  C   UNL     1      42.485 -17.715   3.026  1.00  0.00     0.130 A 
HETATM   20  C   UNL     1      44.128 -18.827   4.367  1.00  0.00     0.046 A 
HETATM   21  C   UNL     1      42.686 -18.653   2.013  1.00  0.00     0.043 A 
HETATM   22  F   UNL     1      41.582 -16.747   2.823  1.00  0.00    -0.205 F 
HETATM   23  C   UNL     1      43.612 -19.676   2.181  1.00  0.00     0.005 A 
HETATM   24  C   UNL     1      44.350 -19.781   3.363  1.00  0.00     0.030 A 
HETATM   25  N   UNL     1      44.708 -18.710   5.607  1.00  0.00    -0.364 N 
HETATM   26  H   UNL     1      45.411 -19.337   5.975  1.00  0.00     0.165 HD
HETATM   27  C   UNL     1      44.188 -17.634   6.266  1.00  0.00     0.106 A 
ENDBRANCH   1  17
TORSDOF 4
ENDMDL
MODEL 10
REMARK VINA RESULT:      -7.8      6.066      8.414
REMARK  4 active torsions:
REMARK  status: ('A' for Active; 'I' for Inactive)
REMARK    1  A    between atoms: C_10  and  C_11 
REMARK       I    between atoms: C_11  and  N_12 
REMARK    2  A    between atoms: N_12  and  N_13 
REMARK       I    between atoms: N_13  and  C_14 
REMARK    3  A    between atoms: C_14  and  C_15 
REMARK    4  A    between atoms: C_15  and  C_16 
ROOT
HETATM    1  C   UNL     1      42.028 -17.690   1.422  1.00  0.00     0.272 C 
HETATM    2  N   UNL     1      42.653 -16.811   0.564  1.00  0.00    -0.263 N 
HETATM    3  O   UNL     1      40.801 -17.795   1.437  1.00  0.00    -0.266 OA
HETATM    4  H   UNL     1      43.664 -16.712   0.485  1.00  0.00     0.190 HD
ENDROOT
BRANCH   2   5
HETATM    5  N   UNL     1      41.874 -16.092  -0.352  1.00  0.00    -0.267 N 
HETATM    6  C   UNL     1      41.633 -14.757  -0.111  1.00  0.00     0.240 C 
HETATM    7  O   UNL     1      42.030 -14.177   0.899  1.00  0.00    -0.272 OA
HETATM    8  H   UNL     1      41.506 -16.611  -1.147  1.00  0.00     0.190 HD
BRANCH   6   9
HETATM    9  C   UNL     1      40.838 -14.059  -1.198  1.00  0.00     0.143 C 
BRANCH   9  10
HETATM   10  C   UNL     1      39.569 -13.384  -0.728  1.00  0.00    -0.049 A 
HETATM   11  C   UNL     1      39.154 -12.146  -1.238  1.00  0.00     0.009 A 
HETATM   12  C   UNL     1      37.946 -11.574  -0.825  1.00  0.00     0.024 A 
HETATM   13  C   UNL     1      37.135 -12.248   0.084  1.00  0.00     0.034 A 
HETATM   14 CL   UNL     1      35.642 -11.552   0.580  1.00  0.00    -0.084 Cl
HETATM   15  C   UNL     1      37.521 -13.487   0.587  1.00  0.00     0.024 A 
HETATM   16  C   UNL     1      38.732 -14.055   0.178  1.00  0.00     0.009 A 
ENDBRANCH   9  10
ENDBRANCH   6   9
ENDBRANCH   2   5
BRANCH   1  17
HETATM   17  C   UNL     1      42.889 -18.476   2.309  1.00  0.00     0.064 A 
HETATM   18  C   UNL     1      43.424 -18.211   3.620  1.00  0.00     0.046 A 
HETATM   19  C   UNL     1      43.354 -17.147   4.544  1.00  0.00     0.130 A 
HETATM   20  C   UNL     1      44.196 -19.320   3.992  1.00  0.00     0.046 A 
HETATM   21  C   UNL     1      44.019 -17.207   5.770  1.00  0.00     0.043 A 
HETATM   22  F   UNL     1      42.642 -16.047   4.264  1.00  0.00    -0.205 F 
HETATM   23  C   UNL     1      44.770 -18.328   6.102  1.00  0.00     0.005 A 
HETATM   24  C   UNL     1      44.872 -19.405   5.217  1.00  0.00     0.030 A 
HETATM   25  N   UNL     1      44.139 -20.222   2.958  1.00  0.00    -0.364 N 
HETATM   26  H   UNL     1      44.608 -21.118   2.949  1.00  0.00     0.165 HD
HETATM   27  C   UNL     1      43.369 -19.727   1.947  1.00  0.00     0.106 A 
ENDBRANCH   1  17
TORSDOF 4
ENDMDL
