MODEL 1
REMARK VINA RESULT:      -8.3      0.000      0.000
REMARK  6 active torsions:
REMARK  status: ('A' for Active; 'I' for Inactive)
REMARK    1  A    between atoms: C_2  and  C_3 
REMARK       I    between atoms: C_3  and  N_4 
REMARK    2  A    between atoms: N_4  and  C_5 
REMARK    3  A    between atoms: C_8  and  N_9 
REMARK       I    between atoms: N_9  and  C_10 
REMARK    4  A    between atoms: C_10  and  C_11 
REMARK    5  A    between atoms: C_16  and  C_17 
REMARK    6  A    between atoms: C_23  and  C_24 
ROOT
HETATM    1  C   UNL     1      40.549 -12.276   6.803  1.00  0.00     0.148 A 
HETATM    2  N   UNL     1      41.662 -11.588   7.152  1.00  0.00    -0.165 NA
HETATM    3  N   UNL     1      41.233 -10.771   8.134  1.00  0.00    -0.240 N 
HETATM    4  C   UNL     1      39.899 -10.893   8.410  1.00  0.00     0.123 A 
HETATM    5  N   UNL     1      39.292 -10.121   9.337  1.00  0.00    -0.364 N 
HETATM    6  C   UNL     1      40.066  -9.287  10.258  1.00  0.00     0.143 C 
HETATM    7  C   UNL     1      41.315  -8.747   9.537  1.00  0.00     0.068 C 
HETATM    8  C   UNL     1      42.119  -9.816   8.771  1.00  0.00     0.221 C 
HETATM    9  C   UNL     1      39.426 -11.865   7.570  1.00  0.00     0.089 A 
HETATM   10  H   UNL     1      38.347 -10.338   9.648  1.00  0.00     0.162 HD
ENDROOT
BRANCH   1  11
HETATM   11  C   UNL     1      40.566 -13.302   5.743  1.00  0.00     0.276 C 
HETATM   12  N   UNL     1      41.392 -14.360   6.072  1.00  0.00    -0.322 N 
HETATM   13  H   UNL     1      41.813 -14.269   6.994  1.00  0.00     0.169 HD
HETATM   14  O   UNL     1      39.896 -13.180   4.725  1.00  0.00    -0.266 OA
BRANCH  12  15
HETATM   15  C   UNL     1      41.707 -15.492   5.307  1.00  0.00     0.035 A 
HETATM   16  C   UNL     1      41.109 -16.739   5.477  1.00  0.00     0.032 A 
HETATM   17  C   UNL     1      41.452 -17.817   4.645  1.00  0.00     0.032 A 
HETATM   18  C   UNL     1      42.398 -17.663   3.634  1.00  0.00     0.034 A 
HETATM   19  C   UNL     1      43.009 -16.415   3.474  1.00  0.00     0.032 A 
HETATM   20  C   UNL     1      42.666 -15.339   4.302  1.00  0.00     0.032 A 
BRANCH  18  21
HETATM   21  N   UNL     1      42.774 -18.684   2.736  1.00  0.00    -0.327 N 
HETATM   22  C   UNL     1      43.761 -19.637   2.907  1.00  0.00     0.221 C 
HETATM   23  O   UNL     1      44.503 -19.751   3.878  1.00  0.00    -0.273 OA
HETATM   24  H   UNL     1      42.252 -18.716   1.871  1.00  0.00     0.169 HD
BRANCH  22  25
HETATM   25  C   UNL     1      43.835 -20.643   1.768  1.00  0.00     0.098 C 
HETATM   26  C   UNL     1      44.309 -22.021   2.194  1.00  0.00     0.014 C 
ENDBRANCH  22  25
ENDBRANCH  18  21
ENDBRANCH  12  15
ENDBRANCH   1  11
BRANCH   8  27
HETATM   27  C   UNL     1      43.145 -10.535   9.618  1.00  0.00     0.409 C 
HETATM   28  F   UNL     1      44.234 -10.894   8.894  1.00  0.00    -0.169 F 
HETATM   29  F   UNL     1      43.603  -9.716  10.599  1.00  0.00    -0.169 F 
HETATM   30  F   UNL     1      42.678 -11.648  10.213  1.00  0.00    -0.169 F 
ENDBRANCH   8  27
BRANCH   6  31
HETATM   31  C   UNL     1      40.375  -9.921  11.574  1.00  0.00     0.075 A 
HETATM   32  O   UNL     1      40.042 -11.239  11.705  1.00  0.00    -0.325 OA
HETATM   33  C   UNL     1      40.417 -11.624  12.951  1.00  0.00     0.142 A 
HETATM   34  C   UNL     1      40.993 -10.574  13.627  1.00  0.00     0.027 A 
HETATM   35  C   UNL     1      40.975  -9.475  12.736  1.00  0.00     0.037 A 
ENDBRANCH   6  31
TORSDOF 6
ENDMDL
MODEL 2
REMARK VINA RESULT:      -8.1      1.666      1.942
REMARK  6 active torsions:
REMARK  status: ('A' for Active; 'I' for Inactive)
REMARK    1  A    between atoms: C_2  and  C_3 
REMARK       I    between atoms: C_3  and  N_4 
REMARK    2  A    between atoms: N_4  and  C_5 
REMARK    3  A    between atoms: C_8  and  N_9 
REMARK       I    between atoms: N_9  and  C_10 
REMARK    4  A    between atoms: C_10  and  C_11 
REMARK    5  A    between atoms: C_16  and  C_17 
REMARK    6  A    between atoms: C_23  and  C_24 
ROOT
HETATM    1  C   UNL     1      39.814 -12.359   6.598  1.00  0.00     0.148 A 
HETATM    2  N   UNL     1      40.094 -11.077   6.265  1.00  0.00    -0.165 NA
HETATM    3  N   UNL     1      39.727 -10.378   7.357  1.00  0.00    -0.240 N 
HETATM    4  C   UNL     1      39.209 -11.153   8.358  1.00  0.00     0.123 A 
HETATM    5  N   UNL     1      38.750 -10.614   9.508  1.00  0.00    -0.364 N 
HETATM    6  C   UNL     1      39.001  -9.212   9.844  1.00  0.00     0.143 C 
HETATM    7  C   UNL     1      38.977  -8.362   8.560  1.00  0.00     0.068 C 
HETATM    8  C   UNL     1      39.825  -8.933   7.406  1.00  0.00     0.221 C 
HETATM    9  C   UNL     1      39.256 -12.443   7.903  1.00  0.00     0.089 A 
HETATM   10  H   UNL     1      38.527 -11.211  10.303  1.00  0.00     0.162 HD
ENDROOT
BRANCH   1  11
HETATM   11  C   UNL     1      40.068 -13.479   5.674  1.00  0.00     0.276 C 
HETATM   12  N   UNL     1      40.975 -14.379   6.201  1.00  0.00    -0.322 N 
HETATM   13  H   UNL     1      41.280 -14.137   7.142  1.00  0.00     0.169 HD
HETATM   14  O   UNL     1      39.503 -13.554   4.589  1.00  0.00    -0.266 OA
BRANCH  12  15
HETATM   15  C   UNL     1      41.506 -15.534   5.608  1.00  0.00     0.035 A 
HETATM   16  C   UNL     1      40.968 -16.809   5.768  1.00  0.00     0.032 A 
HETATM   17  C   UNL     1      41.534 -17.913   5.111  1.00  0.00     0.032 A 
HETATM   18  C   UNL     1      42.647 -17.757   4.286  1.00  0.00     0.034 A 
HETATM   19  C   UNL     1      43.195 -16.478   4.138  1.00  0.00     0.032 A 
HETATM   20  C   UNL     1      42.629 -15.377   4.793  1.00  0.00     0.032 A 
BRANCH  18  21
HETATM   21  N   UNL     1      43.255 -18.805   3.565  1.00  0.00    -0.327 N 
HETATM   22  C   UNL     1      44.317 -19.597   3.962  1.00  0.00     0.221 C 
HETATM   23  O   UNL     1      44.933 -19.513   5.020  1.00  0.00    -0.273 OA
HETATM   24  H   UNL     1      42.858 -18.994   2.655  1.00  0.00     0.169 HD
BRANCH  22  25
HETATM   25  C   UNL     1      44.657 -20.696   2.967  1.00  0.00     0.098 C 
HETATM   26  C   UNL     1      43.620 -20.880   1.873  1.00  0.00     0.014 C 
ENDBRANCH  22  25
ENDBRANCH  18  21
ENDBRANCH  12  15
ENDBRANCH   1  11
BRANCH   8  27
HETATM   27  C   UNL     1      41.276  -8.506   7.441  1.00  0.00     0.409 C 
HETATM   28  F   UNL     1      41.799  -8.393   6.196  1.00  0.00    -0.169 F 
HETATM   29  F   UNL     1      41.391  -7.276   8.006  1.00  0.00    -0.169 F 
HETATM   30  F   UNL     1      42.072  -9.339   8.134  1.00  0.00    -0.169 F 
ENDBRANCH   8  27
BRANCH   6  31
HETATM   31  C   UNL     1      40.211  -8.971  10.685  1.00  0.00     0.075 A 
HETATM   32  O   UNL     1      40.949 -10.072  11.013  1.00  0.00    -0.325 OA
HETATM   33  C   UNL     1      42.001  -9.641  11.756  1.00  0.00     0.142 A 
HETATM   34  C   UNL     1      41.955  -8.276  11.909  1.00  0.00     0.027 A 
HETATM   35  C   UNL     1      40.805  -7.839  11.210  1.00  0.00     0.037 A 
ENDBRANCH   6  31
TORSDOF 6
ENDMDL
MODEL 3
REMARK VINA RESULT:      -7.9      7.013      9.660
REMARK  6 active torsions:
REMARK  status: ('A' for Active; 'I' for Inactive)
REMARK    1  A    between atoms: C_2  and  C_3 
REMARK       I    between atoms: C_3  and  N_4 
REMARK    2  A    between atoms: N_4  and  C_5 
REMARK    3  A    between atoms: C_8  and  N_9 
REMARK       I    between atoms: N_9  and  C_10 
REMARK    4  A    between atoms: C_10  and  C_11 
REMARK    5  A    between atoms: C_16  and  C_17 
REMARK    6  A    between atoms: C_23  and  C_24 
ROOT
HETATM    1  C   UNL     1      40.547 -14.994   1.281  1.00  0.00     0.148 A 
HETATM    2  N   UNL     1      41.191 -14.282   2.235  1.00  0.00    -0.165 NA
HETATM    3  N   UNL     1      41.245 -15.130   3.280  1.00  0.00    -0.240 N 
HETATM    4  C   UNL     1      40.649 -16.338   3.041  1.00  0.00     0.123 A 
HETATM    5  N   UNL     1      40.573 -17.293   3.993  1.00  0.00    -0.364 N 
HETATM    6  C   UNL     1      41.328 -17.184   5.242  1.00  0.00     0.143 C 
HETATM    7  C   UNL     1      41.404 -15.707   5.671  1.00  0.00     0.068 C 
HETATM    8  C   UNL     1      41.831 -14.741   4.548  1.00  0.00     0.221 C 
HETATM    9  C   UNL     1      40.191 -16.287   1.753  1.00  0.00     0.089 A 
HETATM   10  H   UNL     1      40.281 -18.238   3.751  1.00  0.00     0.162 HD
ENDROOT
BRANCH   1  11
HETATM   11  C   UNL     1      40.270 -14.436  -0.056  1.00  0.00     0.276 C 
HETATM   12  N   UNL     1      38.913 -14.302  -0.282  1.00  0.00    -0.322 N 
HETATM   13  H   UNL     1      38.345 -14.572   0.518  1.00  0.00     0.169 HD
HETATM   14  O   UNL     1      41.177 -14.135  -0.823  1.00  0.00    -0.266 OA
BRANCH  12  15
HETATM   15  C   UNL     1      38.260 -13.861  -1.443  1.00  0.00     0.035 A 
HETATM   16  C   UNL     1      37.732 -12.582  -1.601  1.00  0.00     0.032 A 
HETATM   17  C   UNL     1      37.124 -12.203  -2.808  1.00  0.00     0.032 A 
HETATM   18  C   UNL     1      37.036 -13.098  -3.873  1.00  0.00     0.034 A 
HETATM   19  C   UNL     1      37.553 -14.387  -3.708  1.00  0.00     0.032 A 
HETATM   20  C   UNL     1      38.161 -14.764  -2.504  1.00  0.00     0.032 A 
BRANCH  18  21
HETATM   21  N   UNL     1      36.473 -12.786  -5.128  1.00  0.00    -0.327 N 
HETATM   22  C   UNL     1      35.242 -13.180  -5.621  1.00  0.00     0.221 C 
HETATM   23  O   UNL     1      34.421 -13.891  -5.050  1.00  0.00    -0.273 OA
HETATM   24  H   UNL     1      37.040 -12.204  -5.727  1.00  0.00     0.169 HD
BRANCH  22  25
HETATM   25  C   UNL     1      34.917 -12.584  -6.983  1.00  0.00     0.098 C 
HETATM   26  C   UNL     1      33.508 -12.030  -7.093  1.00  0.00     0.014 C 
ENDBRANCH  22  25
ENDBRANCH  18  21
ENDBRANCH  12  15
ENDBRANCH   1  11
BRANCH   8  27
HETATM   27  C   UNL     1      43.329 -14.586   4.409  1.00  0.00     0.409 C 
HETATM   28  F   UNL     1      43.825 -15.361   3.413  1.00  0.00    -0.169 F 
HETATM   29  F   UNL     1      43.641 -13.307   4.077  1.00  0.00    -0.169 F 
HETATM   30  F   UNL     1      44.014 -14.886   5.527  1.00  0.00    -0.169 F 
ENDBRANCH   8  27
BRANCH   6  31
HETATM   31  C   UNL     1      42.658 -17.863   5.236  1.00  0.00     0.075 A 
HETATM   32  O   UNL     1      43.356 -17.840   6.410  1.00  0.00    -0.325 OA
HETATM   33  C   UNL     1      44.513 -18.518   6.200  1.00  0.00     0.142 A 
HETATM   34  C   UNL     1      44.571 -18.983   4.908  1.00  0.00     0.027 A 
HETATM   35  C   UNL     1      43.370 -18.570   4.285  1.00  0.00     0.037 A 
ENDBRANCH   6  31
TORSDOF 6
ENDMDL
MODEL 4
REMARK VINA RESULT:      -7.9      2.251      2.858
REMARK  6 active torsions:
REMARK  status: ('A' for Active; 'I' for Inactive)
REMARK    1  A    between atoms: C_2  and  C_3 
REMARK       I    between atoms: C_3  and  N_4 
REMARK    2  A    between atoms: N_4  and  C_5 
REMARK    3  A    between atoms: C_8  and  N_9 
REMARK       I    between atoms: N_9  and  C_10 
REMARK    4  A    between atoms: C_10  and  C_11 
REMARK    5  A    between atoms: C_16  and  C_17 
REMARK    6  A    between atoms: C_23  and  C_24 
ROOT
HETATM    1  C   UNL     1      43.091 -11.534   8.486  1.00  0.00     0.148 A 
HETATM    2  N   UNL     1      43.464 -11.401   9.780  1.00  0.00    -0.165 NA
HETATM    3  N   UNL     1      42.801 -10.302  10.189  1.00  0.00    -0.240 N 
HETATM    4  C   UNL     1      42.041  -9.721   9.211  1.00  0.00     0.123 A 
HETATM    5  N   UNL     1      41.343  -8.587   9.435  1.00  0.00    -0.364 N 
HETATM    6  C   UNL     1      41.168  -8.055  10.787  1.00  0.00     0.143 C 
HETATM    7  C   UNL     1      42.438  -8.325  11.615  1.00  0.00     0.068 C 
HETATM    8  C   UNL     1      42.954  -9.775  11.531  1.00  0.00     0.221 C 
HETATM    9  C   UNL     1      42.201 -10.497   8.096  1.00  0.00     0.089 A 
HETATM   10  H   UNL     1      40.656  -8.264   8.756  1.00  0.00     0.162 HD
ENDROOT
BRANCH   1  11
HETATM   11  C   UNL     1      43.591 -12.633   7.638  1.00  0.00     0.276 C 
HETATM   12  N   UNL     1      42.708 -12.931   6.618  1.00  0.00    -0.322 N 
HETATM   13  H   UNL     1      41.891 -12.324   6.603  1.00  0.00     0.169 HD
HETATM   14  O   UNL     1      44.672 -13.167   7.855  1.00  0.00    -0.266 OA
BRANCH  12  15
HETATM   15  C   UNL     1      42.803 -13.939   5.647  1.00  0.00     0.035 A 
HETATM   16  C   UNL     1      43.513 -13.808   4.455  1.00  0.00     0.032 A 
HETATM   17  C   UNL     1      43.593 -14.877   3.549  1.00  0.00     0.032 A 
HETATM   18  C   UNL     1      42.963 -16.090   3.820  1.00  0.00     0.034 A 
HETATM   19  C   UNL     1      42.238 -16.215   5.010  1.00  0.00     0.032 A 
HETATM   20  C   UNL     1      42.160 -15.150   5.915  1.00  0.00     0.032 A 
BRANCH  18  21
HETATM   21  N   UNL     1      43.023 -17.221   2.980  1.00  0.00    -0.327 N 
HETATM   22  C   UNL     1      43.679 -18.415   3.218  1.00  0.00     0.221 C 
HETATM   23  O   UNL     1      44.346 -18.695   4.209  1.00  0.00    -0.273 OA
HETATM   24  H   UNL     1      42.520 -17.142   2.107  1.00  0.00     0.169 HD
BRANCH  22  25
HETATM   25  C   UNL     1      43.456 -19.456   2.131  1.00  0.00     0.098 C 
HETATM   26  C   UNL     1      44.215 -20.752   2.353  1.00  0.00     0.014 C 
ENDBRANCH  22  25
ENDBRANCH  18  21
ENDBRANCH  12  15
ENDBRANCH   1  11
BRANCH   8  27
HETATM   27  C   UNL     1      42.321 -10.710  12.538  1.00  0.00     0.409 C 
HETATM   28  F   UNL     1      43.208 -11.622  13.005  1.00  0.00    -0.169 F 
HETATM   29  F   UNL     1      41.896 -10.014  13.624  1.00  0.00    -0.169 F 
HETATM   30  F   UNL     1      41.263 -11.391  12.060  1.00  0.00    -0.169 F 
ENDBRANCH   8  27
BRANCH   6  31
HETATM   31  C   UNL     1      39.915  -8.484  11.476  1.00  0.00     0.075 A 
HETATM   32  O   UNL     1      39.644  -7.882  12.671  1.00  0.00    -0.325 OA
HETATM   33  C   UNL     1      38.467  -8.392  13.118  1.00  0.00     0.142 A 
HETATM   34  C   UNL     1      37.972  -9.313  12.226  1.00  0.00     0.027 A 
HETATM   35  C   UNL     1      38.901  -9.368  11.159  1.00  0.00     0.037 A 
ENDBRANCH   6  31
TORSDOF 6
ENDMDL
MODEL 5
REMARK VINA RESULT:      -7.5      6.364      9.438
REMARK  6 active torsions:
REMARK  status: ('A' for Active; 'I' for Inactive)
REMARK    1  A    between atoms: C_2  and  C_3 
REMARK       I    between atoms: C_3  and  N_4 
REMARK    2  A    between atoms: N_4  and  C_5 
REMARK    3  A    between atoms: C_8  and  N_9 
REMARK       I    between atoms: N_9  and  C_10 
REMARK    4  A    between atoms: C_10  and  C_11 
REMARK    5  A    between atoms: C_16  and  C_17 
REMARK    6  A    between atoms: C_23  and  C_24 
ROOT
HETATM    1  C   UNL     1      40.761 -14.483   1.784  1.00  0.00     0.148 A 
HETATM    2  N   UNL     1      41.365 -14.044   2.913  1.00  0.00    -0.165 NA
HETATM    3  N   UNL     1      41.348 -15.123   3.720  1.00  0.00    -0.240 N 
HETATM    4  C   UNL     1      40.745 -16.218   3.164  1.00  0.00     0.123 A 
HETATM    5  N   UNL     1      40.601 -17.373   3.849  1.00  0.00    -0.364 N 
HETATM    6  C   UNL     1      41.290 -17.594   5.121  1.00  0.00     0.143 C 
HETATM    7  C   UNL     1      41.368 -16.269   5.902  1.00  0.00     0.068 C 
HETATM    8  C   UNL     1      41.871 -15.072   5.071  1.00  0.00     0.221 C 
HETATM    9  C   UNL     1      40.359 -15.841   1.907  1.00  0.00     0.089 A 
HETATM   10  H   UNL     1      40.307 -18.222   3.368  1.00  0.00     0.162 HD
ENDROOT
BRANCH   1  11
HETATM   11  C   UNL     1      40.567 -13.608   0.612  1.00  0.00     0.276 C 
HETATM   12  N   UNL     1      41.721 -13.500  -0.140  1.00  0.00    -0.322 N 
HETATM   13  H   UNL     1      42.488 -14.066   0.218  1.00  0.00     0.169 HD
HETATM   14  O   UNL     1      39.485 -13.082   0.380  1.00  0.00    -0.266 OA
BRANCH  12  15
HETATM   15  C   UNL     1      41.947 -12.725  -1.287  1.00  0.00     0.035 A 
HETATM   16  C   UNL     1      42.618 -11.505  -1.284  1.00  0.00     0.032 A 
HETATM   17  C   UNL     1      42.838 -10.805  -2.481  1.00  0.00     0.032 A 
HETATM   18  C   UNL     1      42.387 -11.315  -3.697  1.00  0.00     0.034 A 
HETATM   19  C   UNL     1      41.700 -12.534  -3.697  1.00  0.00     0.032 A 
HETATM   20  C   UNL     1      41.482 -13.232  -2.503  1.00  0.00     0.032 A 
BRANCH  18  21
HETATM   21  N   UNL     1      42.596 -10.693  -4.946  1.00  0.00    -0.327 N 
HETATM   22  C   UNL     1      41.922  -9.604  -5.467  1.00  0.00     0.221 C 
HETATM   23  O   UNL     1      41.004  -8.990  -4.934  1.00  0.00    -0.273 OA
HETATM   24  H   UNL     1      43.326 -11.095  -5.516  1.00  0.00     0.169 HD
BRANCH  22  25
HETATM   25  C   UNL     1      42.470  -9.140  -6.809  1.00  0.00     0.098 C 
HETATM   26  C   UNL     1      41.682  -9.645  -8.005  1.00  0.00     0.014 C 
ENDBRANCH  22  25
ENDBRANCH  18  21
ENDBRANCH  12  15
ENDBRANCH   1  11
BRANCH   8  27
HETATM   27  C   UNL     1      43.377 -14.933   5.047  1.00  0.00     0.409 C 
HETATM   28  F   UNL     1      43.956 -15.527   6.119  1.00  0.00    -0.169 F 
HETATM   29  F   UNL     1      43.890 -15.555   3.954  1.00  0.00    -0.169 F 
HETATM   30  F   UNL     1      43.806 -13.658   5.018  1.00  0.00    -0.169 F 
ENDBRANCH   8  27
BRANCH   6  31
HETATM   31  C   UNL     1      42.607 -18.291   5.013  1.00  0.00     0.075 A 
HETATM   32  O   UNL     1      43.260 -18.538   6.186  1.00  0.00    -0.325 OA
HETATM   33  C   UNL     1      44.411 -19.185   5.874  1.00  0.00     0.142 A 
HETATM   34  C   UNL     1      44.510 -19.364   4.514  1.00  0.00     0.027 A 
HETATM   35  C   UNL     1      43.340 -18.796   3.956  1.00  0.00     0.037 A 
ENDBRANCH   6  31
TORSDOF 6
ENDMDL
MODEL 6
REMARK VINA RESULT:      -7.5      7.624      8.982
REMARK  6 active torsions:
REMARK  status: ('A' for Active; 'I' for Inactive)
REMARK    1  A    between atoms: C_2  and  C_3 
REMARK       I    between atoms: C_3  and  N_4 
REMARK    2  A    between atoms: N_4  and  C_5 
REMARK    3  A    between atoms: C_8  and  N_9 
REMARK       I    between atoms: N_9  and  C_10 
REMARK    4  A    between atoms: C_10  and  C_11 
REMARK    5  A    between atoms: C_16  and  C_17 
REMARK    6  A    between atoms: C_23  and  C_24 
ROOT
HETATM    1  C   UNL     1      40.676 -13.929   0.503  1.00  0.00     0.148 A 
HETATM    2  N   UNL     1      41.142 -13.791  -0.761  1.00  0.00    -0.165 NA
HETATM    3  N   UNL     1      40.859 -12.509  -1.064  1.00  0.00    -0.240 N 
HETATM    4  C   UNL     1      40.220 -11.834  -0.061  1.00  0.00     0.123 A 
HETATM    5  N   UNL     1      39.824 -10.551  -0.209  1.00  0.00    -0.364 N 
HETATM    6  C   UNL     1      40.266  -9.745  -1.348  1.00  0.00     0.143 C 
HETATM    7  C   UNL     1      40.384 -10.639  -2.597  1.00  0.00     0.068 C 
HETATM    8  C   UNL     1      41.161 -11.950  -2.367  1.00  0.00     0.221 C 
HETATM    9  C   UNL     1      40.091 -12.722   0.972  1.00  0.00     0.089 A 
HETATM   10  H   UNL     1      39.505 -10.016   0.596  1.00  0.00     0.162 HD
ENDROOT
BRANCH   1  11
HETATM   11  C   UNL     1      40.785 -15.202   1.240  1.00  0.00     0.276 C 
HETATM   12  N   UNL     1      42.102 -15.585   1.404  1.00  0.00    -0.322 N 
HETATM   13  H   UNL     1      42.766 -14.913   1.025  1.00  0.00     0.169 HD
HETATM   14  O   UNL     1      39.790 -15.793   1.644  1.00  0.00    -0.266 OA
BRANCH  12  15
HETATM   15  C   UNL     1      42.605 -16.751   2.001  1.00  0.00     0.035 A 
HETATM   16  C   UNL     1      42.247 -17.191   3.273  1.00  0.00     0.032 A 
HETATM   17  C   UNL     1      42.766 -18.389   3.788  1.00  0.00     0.032 A 
HETATM   18  C   UNL     1      43.651 -19.163   3.039  1.00  0.00     0.034 A 
HETATM   19  C   UNL     1      44.021 -18.712   1.768  1.00  0.00     0.032 A 
HETATM   20  C   UNL     1      43.502 -17.517   1.253  1.00  0.00     0.032 A 
BRANCH  18  21
HETATM   21  N   UNL     1      44.190 -20.393   3.468  1.00  0.00    -0.327 N 
HETATM   22  C   UNL     1      44.080 -21.624   2.847  1.00  0.00     0.221 C 
HETATM   23  O   UNL     1      43.474 -21.866   1.809  1.00  0.00    -0.273 OA
HETATM   24  H   UNL     1      44.719 -20.360   4.328  1.00  0.00     0.169 HD
BRANCH  22  25
HETATM   25  C   UNL     1      44.866 -22.725   3.545  1.00  0.00     0.098 C 
HETATM   26  C   UNL     1      45.124 -22.460   5.018  1.00  0.00     0.014 C 
ENDBRANCH  22  25
ENDBRANCH  18  21
ENDBRANCH  12  15
ENDBRANCH   1  11
BRANCH   8  27
HETATM   27  C   UNL     1      42.657 -11.816  -2.548  1.00  0.00     0.409 C 
HETATM   28  F   UNL     1      42.973 -10.801  -3.389  1.00  0.00    -0.169 F 
HETATM   29  F   UNL     1      43.249 -11.516  -1.363  1.00  0.00    -0.169 F 
HETATM   30  F   UNL     1      43.250 -12.927  -3.021  1.00  0.00    -0.169 F 
ENDBRANCH   8  27
BRANCH   6  31
HETATM   31  C   UNL     1      41.484  -8.918  -1.100  1.00  0.00     0.075 A 
HETATM   32  O   UNL     1      41.957  -8.202  -2.162  1.00  0.00    -0.325 OA
HETATM   33  C   UNL     1      43.043  -7.513  -1.728  1.00  0.00     0.142 A 
HETATM   34  C   UNL     1      43.276  -7.770  -0.398  1.00  0.00     0.027 A 
HETATM   35  C   UNL     1      42.264  -8.670   0.013  1.00  0.00     0.037 A 
ENDBRANCH   6  31
TORSDOF 6
ENDMDL
MODEL 7
REMARK VINA RESULT:      -7.4      3.549     10.371
REMARK  6 active torsions:
REMARK  status: ('A' for Active; 'I' for Inactive)
REMARK    1  A    between atoms: C_2  and  C_3 
REMARK       I    between atoms: C_3  and  N_4 
REMARK    2  A    between atoms: N_4  and  C_5 
REMARK    3  A    between atoms: C_8  and  N_9 
REMARK       I    between atoms: N_9  and  C_10 
REMARK    4  A    between atoms: C_10  and  C_11 
REMARK    5  A    between atoms: C_16  and  C_17 
REMARK    6  A    between atoms: C_23  and  C_24 
ROOT
HETATM    1  C   UNL     1      40.949 -13.386   4.562  1.00  0.00     0.148 A 
HETATM    2  N   UNL     1      40.350 -14.048   3.545  1.00  0.00    -0.165 NA
HETATM    3  N   UNL     1      41.368 -14.697   2.947  1.00  0.00    -0.240 N 
HETATM    4  C   UNL     1      42.586 -14.463   3.523  1.00  0.00     0.123 A 
HETATM    5  N   UNL     1      43.721 -15.000   3.027  1.00  0.00    -0.364 N 
HETATM    6  C   UNL     1      43.684 -16.043   2.002  1.00  0.00     0.143 C 
HETATM    7  C   UNL     1      42.501 -15.789   1.050  1.00  0.00     0.068 C 
HETATM    8  C   UNL     1      41.163 -15.508   1.763  1.00  0.00     0.221 C 
HETATM    9  C   UNL     1      42.351 -13.623   4.578  1.00  0.00     0.089 A 
HETATM   10  H   UNL     1      44.587 -14.955   3.561  1.00  0.00     0.162 HD
ENDROOT
BRANCH   1  11
HETATM   11  C   UNL     1      40.188 -12.534   5.495  1.00  0.00     0.276 C 
HETATM   12  N   UNL     1      40.991 -12.047   6.510  1.00  0.00    -0.322 N 
HETATM   13  H   UNL     1      41.965 -12.325   6.419  1.00  0.00     0.169 HD
HETATM   14  O   UNL     1      38.995 -12.312   5.330  1.00  0.00    -0.266 OA
BRANCH  12  15
HETATM   15  C   UNL     1      40.626 -11.252   7.607  1.00  0.00     0.035 A 
HETATM   16  C   UNL     1      39.409 -11.362   8.278  1.00  0.00     0.032 A 
HETATM   17  C   UNL     1      39.132 -10.555   9.392  1.00  0.00     0.032 A 
HETATM   18  C   UNL     1      40.065  -9.627   9.850  1.00  0.00     0.034 A 
HETATM   19  C   UNL     1      41.279  -9.507   9.166  1.00  0.00     0.032 A 
HETATM   20  C   UNL     1      41.557 -10.313   8.055  1.00  0.00     0.032 A 
BRANCH  18  21
HETATM   21  N   UNL     1      39.878  -8.804  10.980  1.00  0.00    -0.327 N 
HETATM   22  C   UNL     1      39.974  -9.165  12.312  1.00  0.00     0.221 C 
HETATM   23  O   UNL     1      40.226 -10.284  12.747  1.00  0.00    -0.273 OA
HETATM   24  H   UNL     1      39.653  -7.839  10.783  1.00  0.00     0.169 HD
BRANCH  22  25
HETATM   25  C   UNL     1      39.798  -7.996  13.270  1.00  0.00     0.098 C 
HETATM   26  C   UNL     1      40.758  -8.013  14.445  1.00  0.00     0.014 C 
ENDBRANCH  22  25
ENDBRANCH  18  21
ENDBRANCH  12  15
ENDBRANCH   1  11
BRANCH   8  27
HETATM   27  C   UNL     1      40.379 -16.755   2.109  1.00  0.00     0.409 C 
HETATM   28  F   UNL     1      40.653 -17.191   3.362  1.00  0.00    -0.169 F 
HETATM   29  F   UNL     1      39.046 -16.493   2.088  1.00  0.00    -0.169 F 
HETATM   30  F   UNL     1      40.596 -17.785   1.271  1.00  0.00    -0.169 F 
ENDBRANCH   8  27
BRANCH   6  31
HETATM   31  C   UNL     1      43.730 -17.442   2.523  1.00  0.00     0.075 A 
HETATM   32  O   UNL     1      43.753 -17.581   3.881  1.00  0.00    -0.325 OA
HETATM   33  C   UNL     1      43.775 -18.913   4.146  1.00  0.00     0.142 A 
HETATM   34  C   UNL     1      43.761 -19.636   2.977  1.00  0.00     0.027 A 
HETATM   35  C   UNL     1      43.723 -18.688   1.927  1.00  0.00     0.037 A 
ENDBRANCH   6  31
TORSDOF 6
ENDMDL
MODEL 8
REMARK VINA RESULT:      -7.4      7.786     10.067
REMARK  6 active torsions:
REMARK  status: ('A' for Active; 'I' for Inactive)
REMARK    1  A    between atoms: C_2  and  C_3 
REMARK       I    between atoms: C_3  and  N_4 
REMARK    2  A    between atoms: N_4  and  C_5 
REMARK    3  A    between atoms: C_8  and  N_9 
REMARK       I    between atoms: N_9  and  C_10 
REMARK    4  A    between atoms: C_10  and  C_11 
REMARK    5  A    between atoms: C_16  and  C_17 
REMARK    6  A    between atoms: C_23  and  C_24 
ROOT
HETATM    1  C   UNL     1      39.589 -14.395   1.093  1.00  0.00     0.148 A 
HETATM    2  N   UNL     1      40.431 -15.437   0.896  1.00  0.00    -0.165 NA
HETATM    3  N   UNL     1      41.319 -15.321   1.903  1.00  0.00    -0.240 N 
HETATM    4  C   UNL     1      41.092 -14.245   2.716  1.00  0.00     0.123 A 
HETATM    5  N   UNL     1      41.910 -13.952   3.750  1.00  0.00    -0.364 N 
HETATM    6  C   UNL     1      42.934 -14.895   4.201  1.00  0.00     0.143 C 
HETATM    7  C   UNL     1      43.506 -15.653   2.989  1.00  0.00     0.068 C 
HETATM    8  C   UNL     1      42.437 -16.233   2.041  1.00  0.00     0.221 C 
HETATM    9  C   UNL     1      39.975 -13.626   2.225  1.00  0.00     0.089 A 
HETATM   10  H   UNL     1      41.636 -13.255   4.441  1.00  0.00     0.162 HD
ENDROOT
BRANCH   1  11
HETATM   11  C   UNL     1      38.441 -14.139   0.203  1.00  0.00     0.276 C 
HETATM   12  N   UNL     1      38.829 -14.071  -1.122  1.00  0.00    -0.322 N 
HETATM   13  H   UNL     1      39.823 -14.243  -1.259  1.00  0.00     0.169 HD
HETATM   14  O   UNL     1      37.304 -14.026   0.644  1.00  0.00    -0.266 OA
BRANCH  12  15
HETATM   15  C   UNL     1      38.042 -13.794  -2.249  1.00  0.00     0.035 A 
HETATM   16  C   UNL     1      37.572 -14.766  -3.130  1.00  0.00     0.032 A 
HETATM   17  C   UNL     1      36.757 -14.414  -4.217  1.00  0.00     0.032 A 
HETATM   18  C   UNL     1      36.401 -13.085  -4.440  1.00  0.00     0.034 A 
HETATM   19  C   UNL     1      36.886 -12.108  -3.563  1.00  0.00     0.032 A 
HETATM   20  C   UNL     1      37.698 -12.459  -2.478  1.00  0.00     0.032 A 
BRANCH  18  21
HETATM   21  N   UNL     1      35.561 -12.652  -5.486  1.00  0.00    -0.327 N 
HETATM   22  C   UNL     1      34.179 -12.685  -5.525  1.00  0.00     0.221 C 
HETATM   23  O   UNL     1      33.434 -13.116  -4.651  1.00  0.00    -0.273 OA
HETATM   24  H   UNL     1      36.033 -12.271  -6.294  1.00  0.00     0.169 HD
BRANCH  22  25
HETATM   25  C   UNL     1      33.595 -12.050  -6.779  1.00  0.00     0.098 C 
HETATM   26  C   UNL     1      33.984 -12.757  -8.066  1.00  0.00     0.014 C 
ENDBRANCH  22  25
ENDBRANCH  18  21
ENDBRANCH  12  15
ENDBRANCH   1  11
BRANCH   8  27
HETATM   27  C   UNL     1      41.948 -17.608   2.436  1.00  0.00     0.409 C 
HETATM   28  F   UNL     1      40.798 -17.547   3.152  1.00  0.00    -0.169 F 
HETATM   29  F   UNL     1      41.659 -18.341   1.330  1.00  0.00    -0.169 F 
HETATM   30  F   UNL     1      42.834 -18.313   3.163  1.00  0.00    -0.169 F 
ENDBRANCH   8  27
BRANCH   6  31
HETATM   31  C   UNL     1      42.513 -15.798   5.314  1.00  0.00     0.075 A 
HETATM   32  O   UNL     1      41.180 -15.819   5.606  1.00  0.00    -0.325 OA
HETATM   33  C   UNL     1      41.007 -16.704   6.621  1.00  0.00     0.142 A 
HETATM   34  C   UNL     1      42.211 -17.260   6.986  1.00  0.00     0.027 A 
HETATM   35  C   UNL     1      43.184 -16.683   6.136  1.00  0.00     0.037 A 
ENDBRANCH   6  31
TORSDOF 6
ENDMDL
MODEL 9
REMARK VINA RESULT:      -7.3      3.603     10.285
REMARK  6 active torsions:
REMARK  status: ('A' for Active; 'I' for Inactive)
REMARK    1  A    between atoms: C_2  and  C_3 
REMARK       I    between atoms: C_3  and  N_4 
REMARK    2  A    between atoms: N_4  and  C_5 
REMARK    3  A    between atoms: C_8  and  N_9 
REMARK       I    between atoms: N_9  and  C_10 
REMARK    4  A    between atoms: C_10  and  C_11 
REMARK    5  A    between atoms: C_16  and  C_17 
REMARK    6  A    between atoms: C_23  and  C_24 
ROOT
HETATM    1  C   UNL     1      40.835 -11.750   6.297  1.00  0.00     0.148 A 
HETATM    2  N   UNL     1      40.217 -11.668   5.096  1.00  0.00    -0.165 NA
HETATM    3  N   UNL     1      41.053 -12.322   4.265  1.00  0.00    -0.240 N 
HETATM    4  C   UNL     1      42.179 -12.797   4.878  1.00  0.00     0.123 A 
HETATM    5  N   UNL     1      43.146 -13.439   4.187  1.00  0.00    -0.364 N 
HETATM    6  C   UNL     1      42.933 -13.872   2.806  1.00  0.00     0.143 C 
HETATM    7  C   UNL     1      42.051 -12.845   2.073  1.00  0.00     0.068 C 
HETATM    8  C   UNL     1      40.781 -12.434   2.845  1.00  0.00     0.221 C 
HETATM    9  C   UNL     1      42.069 -12.450   6.197  1.00  0.00     0.089 A 
HETATM   10  H   UNL     1      43.890 -13.930   4.680  1.00  0.00     0.162 HD
ENDROOT
BRANCH   1  11
HETATM   11  C   UNL     1      40.254 -11.158   7.516  1.00  0.00     0.276 C 
HETATM   12  N   UNL     1      41.184 -11.071   8.535  1.00  0.00    -0.322 N 
HETATM   13  H   UNL     1      42.110 -11.392   8.260  1.00  0.00     0.169 HD
HETATM   14  O   UNL     1      39.085 -10.793   7.555  1.00  0.00    -0.266 OA
BRANCH  12  15
HETATM   15  C   UNL     1      41.001 -10.617   9.849  1.00  0.00     0.035 A 
HETATM   16  C   UNL     1      40.196 -11.256  10.789  1.00  0.00     0.032 A 
HETATM   17  C   UNL     1      40.092 -10.761  12.098  1.00  0.00     0.032 A 
HETATM   18  C   UNL     1      40.791  -9.618  12.485  1.00  0.00     0.034 A 
HETATM   19  C   UNL     1      41.588  -8.969  11.536  1.00  0.00     0.032 A 
HETATM   20  C   UNL     1      41.692  -9.465  10.230  1.00  0.00     0.032 A 
BRANCH  18  21
HETATM   21  N   UNL     1      40.768  -9.075  13.786  1.00  0.00    -0.327 N 
HETATM   22  C   UNL     1      41.557  -9.435  14.864  1.00  0.00     0.221 C 
HETATM   23  O   UNL     1      42.415 -10.312  14.879  1.00  0.00    -0.273 OA
HETATM   24  H   UNL     1      40.097  -8.336  13.938  1.00  0.00     0.169 HD
BRANCH  22  25
HETATM   25  C   UNL     1      41.325  -8.575  16.097  1.00  0.00     0.098 C 
HETATM   26  C   UNL     1      40.046  -7.759  16.048  1.00  0.00     0.014 C 
ENDBRANCH  22  25
ENDBRANCH  18  21
ENDBRANCH  12  15
ENDBRANCH   1  11
BRANCH   8  27
HETATM   27  C   UNL     1      39.597 -13.345   2.607  1.00  0.00     0.409 C 
HETATM   28  F   UNL     1      38.432 -12.655   2.563  1.00  0.00    -0.169 F 
HETATM   29  F   UNL     1      39.712 -13.961   1.402  1.00  0.00    -0.169 F 
HETATM   30  F   UNL     1      39.456 -14.309   3.536  1.00  0.00    -0.169 F 
ENDBRANCH   8  27
BRANCH   6  31
HETATM   31  C   UNL     1      42.451 -15.277   2.652  1.00  0.00     0.075 A 
HETATM   32  O   UNL     1      42.299 -15.730   1.373  1.00  0.00    -0.325 OA
HETATM   33  C   UNL     1      41.875 -17.017   1.452  1.00  0.00     0.142 A 
HETATM   34  C   UNL     1      41.754 -17.404   2.765  1.00  0.00     0.027 A 
HETATM   35  C   UNL     1      42.135 -16.285   3.543  1.00  0.00     0.037 A 
ENDBRANCH   6  31
TORSDOF 6
ENDMDL
MODEL 10
REMARK VINA RESULT:      -7.3      8.482     10.843
REMARK  6 active torsions:
REMARK  status: ('A' for Active; 'I' for Inactive)
REMARK    1  A    between atoms: C_2  and  C_3 
REMARK       I    between atoms: C_3  and  N_4 
REMARK    2  A    between atoms: N_4  and  C_5 
REMARK    3  A    between atoms: C_8  and  N_9 
REMARK       I    between atoms: N_9  and  C_10 
REMARK    4  A    between atoms: C_10  and  C_11 
REMARK    5  A    between atoms: C_16  and  C_17 
REMARK    6  A    between atoms: C_23  and  C_24 
ROOT
HETATM    1  C   UNL     1      40.829 -14.690  -1.120  1.00  0.00     0.148 A 
HETATM    2  N   UNL     1      41.257 -15.884  -0.646  1.00  0.00    -0.165 NA
HETATM    3  N   UNL     1      41.852 -15.567   0.520  1.00  0.00    -0.240 N 
HETATM    4  C   UNL     1      41.839 -14.228   0.799  1.00  0.00     0.123 A 
HETATM    5  N   UNL     1      42.429 -13.728   1.907  1.00  0.00    -0.364 N 
HETATM    6  C   UNL     1      42.898 -14.604   2.981  1.00  0.00     0.143 C 
HETATM    7  C   UNL     1      43.434 -15.916   2.377  1.00  0.00     0.068 C 
HETATM    8  C   UNL     1      42.494 -16.571   1.346  1.00  0.00     0.221 C 
HETATM    9  C   UNL     1      41.178 -13.630  -0.239  1.00  0.00     0.089 A 
HETATM   10  H   UNL     1      42.266 -12.761   2.184  1.00  0.00     0.162 HD
ENDROOT
BRANCH   1  11
HETATM   11  C   UNL     1      40.107 -14.571  -2.400  1.00  0.00     0.276 C 
HETATM   12  N   UNL     1      38.862 -13.995  -2.231  1.00  0.00    -0.322 N 
HETATM   13  H   UNL     1      38.674 -13.720  -1.269  1.00  0.00     0.169 HD
HETATM   14  O   UNL     1      40.608 -14.944  -3.454  1.00  0.00    -0.266 OA
BRANCH  12  15
HETATM   15  C   UNL     1      37.868 -13.764  -3.194  1.00  0.00     0.035 A 
HETATM   16  C   UNL     1      37.108 -14.770  -3.786  1.00  0.00     0.032 A 
HETATM   17  C   UNL     1      36.105 -14.457  -4.716  1.00  0.00     0.032 A 
HETATM   18  C   UNL     1      35.849 -13.132  -5.068  1.00  0.00     0.034 A 
HETATM   19  C   UNL     1      36.623 -12.124  -4.484  1.00  0.00     0.032 A 
HETATM   20  C   UNL     1      37.623 -12.437  -3.555  1.00  0.00     0.032 A 
BRANCH  18  21
HETATM   21  N   UNL     1      34.839 -12.730  -5.967  1.00  0.00    -0.327 N 
HETATM   22  C   UNL     1      34.847 -12.835  -7.346  1.00  0.00     0.221 C 
HETATM   23  O   UNL     1      35.752 -13.289  -8.037  1.00  0.00    -0.273 OA
HETATM   24  H   UNL     1      34.017 -12.322  -5.543  1.00  0.00     0.169 HD
BRANCH  22  25
HETATM   25  C   UNL     1      33.547 -12.381  -7.994  1.00  0.00     0.098 C 
HETATM   26  C   UNL     1      32.682 -11.512  -7.098  1.00  0.00     0.014 C 
ENDBRANCH  22  25
ENDBRANCH  18  21
ENDBRANCH  12  15
ENDBRANCH   1  11
BRANCH   8  27
HETATM   27  C   UNL     1      41.459 -17.490   1.956  1.00  0.00     0.409 C 
HETATM   28  F   UNL     1      41.193 -18.551   1.155  1.00  0.00    -0.169 F 
HETATM   29  F   UNL     1      41.920 -18.010   3.122  1.00  0.00    -0.169 F 
HETATM   30  F   UNL     1      40.286 -16.888   2.223  1.00  0.00    -0.169 F 
ENDBRANCH   8  27
BRANCH   6  31
HETATM   31  C   UNL     1      41.921 -14.823   4.089  1.00  0.00     0.075 A 
HETATM   32  O   UNL     1      42.325 -15.648   5.099  1.00  0.00    -0.325 OA
HETATM   33  C   UNL     1      41.312 -15.699   6.002  1.00  0.00     0.142 A 
HETATM   34  C   UNL     1      40.261 -14.914   5.592  1.00  0.00     0.027 A 
HETATM   35  C   UNL     1      40.655 -14.340   4.360  1.00  0.00     0.037 A 
ENDBRANCH   6  31
TORSDOF 6
ENDMDL
