MODEL 1
REMARK VINA RESULT:      -9.5      0.000      0.000
REMARK  5 active torsions:
REMARK  status: ('A' for Active; 'I' for Inactive)
REMARK    1  A    between atoms: C_3  and  O_4 
REMARK    2  A    between atoms: C_6  and  N_7 
REMARK       I    between atoms: N_7  and  C_8 
REMARK    3  A    between atoms: C_8  and  C_9 
REMARK    4  A    between atoms: C_12  and  C_13 
REMARK    5  A    between atoms: C_18  and  C_19 
ROOT
HETATM    1  C   UNL     1      42.809 -14.634   4.059  1.00  0.00     0.096 C 
HETATM    2  C   UNL     1      43.222 -15.914   4.381  1.00  0.00     0.138 C 
HETATM    3  N   UNL     1      43.420 -15.913   5.744  1.00  0.00    -0.240 N 
HETATM    4  C   UNL     1      43.909 -17.050   6.506  1.00  0.00     0.221 C 
HETATM    5  C   UNL     1      43.794 -18.343   5.678  1.00  0.00     0.066 C 
HETATM    6  C   UNL     1      44.268 -18.097   4.242  1.00  0.00     0.118 C 
HETATM    7  N   UNL     1      43.456 -17.033   3.637  1.00  0.00    -0.365 N 
HETATM    8  N   UNL     1      43.333 -14.693   6.293  1.00  0.00    -0.181 NA
HETATM    9  C   UNL     1      42.930 -13.924   5.277  1.00  0.00     0.160 C 
HETATM   10  H   UNL     1      43.697 -16.900   2.652  1.00  0.00     0.161 HD
ENDROOT
BRANCH   1  11
HETATM   11  C   UNL     1      42.392 -14.086   2.778  1.00  0.00     0.261 C 
HETATM   12  N   UNL     1      41.501 -14.898   2.101  1.00  0.00    -0.323 N 
HETATM   13  H   UNL     1      41.164 -15.700   2.623  1.00  0.00     0.169 HD
HETATM   14  O   UNL     1      42.797 -12.990   2.410  1.00  0.00    -0.267 OA
BRANCH  12  15
HETATM   15  C   UNL     1      40.944 -14.694   0.823  1.00  0.00     0.037 A 
HETATM   16  C   UNL     1      41.482 -15.214  -0.356  1.00  0.00     0.066 A 
HETATM   17  C   UNL     1      40.854 -14.969  -1.576  1.00  0.00     0.067 A 
HETATM   18  C   UNL     1      39.691 -14.210  -1.648  1.00  0.00     0.036 A 
HETATM   19  C   UNL     1      39.146 -13.691  -0.476  1.00  0.00     0.005 A 
HETATM   20  C   UNL     1      39.767 -13.935   0.753  1.00  0.00     0.029 A 
BRANCH  17  21
HETATM   21  O   UNL     1      41.416 -15.504  -2.698  1.00  0.00    -0.361 OA
HETATM   22  H   UNL     1      41.830 -14.793  -3.213  1.00  0.00     0.217 HD
ENDBRANCH  17  21
ENDBRANCH  12  15
ENDBRANCH   1  11
BRANCH   4  23
HETATM   23  C   UNL     1      43.167 -17.216   7.813  1.00  0.00     0.409 C 
HETATM   24  F   UNL     1      41.825 -17.157   7.654  1.00  0.00    -0.169 F 
HETATM   25  F   UNL     1      43.441 -18.442   8.336  1.00  0.00    -0.169 F 
HETATM   26  F   UNL     1      43.523 -16.321   8.757  1.00  0.00    -0.169 F 
ENDBRANCH   4  23
BRANCH   6  27
HETATM   27  C   UNL     1      44.175 -19.353   3.399  1.00  0.00    -0.035 A 
HETATM   28  C   UNL     1      44.801 -20.551   3.796  1.00  0.00     0.012 A 
HETATM   29  C   UNL     1      44.723 -21.692   2.996  1.00  0.00     0.043 A 
HETATM   30  C   UNL     1      44.023 -21.643   1.798  1.00  0.00     0.116 A 
HETATM   31  F   UNL     1      43.950 -22.738   1.029  1.00  0.00    -0.206 F 
HETATM   32  C   UNL     1      43.398 -20.474   1.383  1.00  0.00     0.043 A 
HETATM   33  C   UNL     1      43.473 -19.331   2.181  1.00  0.00     0.012 A 
ENDBRANCH   6  27
TORSDOF 5
ENDMDL
MODEL 2
REMARK VINA RESULT:      -9.4      2.051      3.022
REMARK  5 active torsions:
REMARK  status: ('A' for Active; 'I' for Inactive)
REMARK    1  A    between atoms: C_3  and  O_4 
REMARK    2  A    between atoms: C_6  and  N_7 
REMARK       I    between atoms: N_7  and  C_8 
REMARK    3  A    between atoms: C_8  and  C_9 
REMARK    4  A    between atoms: C_12  and  C_13 
REMARK    5  A    between atoms: C_18  and  C_19 
ROOT
HETATM    1  C   UNL     1      41.525 -15.013   0.977  1.00  0.00     0.096 C 
HETATM    2  C   UNL     1      42.241 -15.735   1.914  1.00  0.00     0.138 C 
HETATM    3  N   UNL     1      42.460 -14.873   2.966  1.00  0.00    -0.240 N 
HETATM    4  C   UNL     1      43.224 -15.205   4.157  1.00  0.00     0.221 C 
HETATM    5  C   UNL     1      43.407 -16.729   4.272  1.00  0.00     0.066 C 
HETATM    6  C   UNL     1      43.780 -17.323   2.910  1.00  0.00     0.118 C 
HETATM    7  N   UNL     1      42.722 -17.010   1.938  1.00  0.00    -0.365 N 
HETATM    8  N   UNL     1      42.093 -13.610   2.704  1.00  0.00    -0.181 NA
HETATM    9  C   UNL     1      41.496 -13.702   1.512  1.00  0.00     0.160 C 
HETATM   10  H   UNL     1      42.905 -17.460   1.038  1.00  0.00     0.161 HD
ENDROOT
BRANCH   1  11
HETATM   11  C   UNL     1      40.963 -15.438  -0.294  1.00  0.00     0.261 C 
HETATM   12  N   UNL     1      40.036 -14.549  -0.807  1.00  0.00    -0.323 N 
HETATM   13  H   UNL     1      39.953 -13.673  -0.303  1.00  0.00     0.169 HD
HETATM   14  O   UNL     1      41.343 -16.475  -0.826  1.00  0.00    -0.267 OA
BRANCH  12  15
HETATM   15  C   UNL     1      39.271 -14.679  -1.982  1.00  0.00     0.037 A 
HETATM   16  C   UNL     1      39.568 -15.573  -3.013  1.00  0.00     0.066 A 
HETATM   17  C   UNL     1      38.744 -15.639  -4.136  1.00  0.00     0.067 A 
HETATM   18  C   UNL     1      37.622 -14.827  -4.256  1.00  0.00     0.036 A 
HETATM   19  C   UNL     1      37.318 -13.934  -3.230  1.00  0.00     0.005 A 
HETATM   20  C   UNL     1      38.136 -13.864  -2.098  1.00  0.00     0.029 A 
BRANCH  17  21
HETATM   21  O   UNL     1      39.074 -16.534  -5.113  1.00  0.00    -0.361 OA
HETATM   22  H   UNL     1      38.264 -16.820  -5.565  1.00  0.00     0.217 HD
ENDBRANCH  17  21
ENDBRANCH  12  15
ENDBRANCH   1  11
BRANCH   4  23
HETATM   23  C   UNL     1      42.570 -14.675   5.414  1.00  0.00     0.409 C 
HETATM   24  F   UNL     1      41.222 -14.772   5.372  1.00  0.00    -0.169 F 
HETATM   25  F   UNL     1      42.977 -15.415   6.481  1.00  0.00    -0.169 F 
HETATM   26  F   UNL     1      42.897 -13.399   5.699  1.00  0.00    -0.169 F 
ENDBRANCH   4  23
BRANCH   6  27
HETATM   27  C   UNL     1      43.975 -18.824   2.987  1.00  0.00    -0.035 A 
HETATM   28  C   UNL     1      44.569 -19.428   4.112  1.00  0.00     0.012 A 
HETATM   29  C   UNL     1      44.761 -20.810   4.158  1.00  0.00     0.043 A 
HETATM   30  C   UNL     1      44.363 -21.593   3.082  1.00  0.00     0.116 A 
HETATM   31  F   UNL     1      44.550 -22.920   3.125  1.00  0.00    -0.206 F 
HETATM   32  C   UNL     1      43.776 -21.022   1.960  1.00  0.00     0.043 A 
HETATM   33  C   UNL     1      43.582 -19.640   1.912  1.00  0.00     0.012 A 
ENDBRANCH   6  27
TORSDOF 5
ENDMDL
MODEL 3
REMARK VINA RESULT:      -8.9      4.049      6.971
REMARK  5 active torsions:
REMARK  status: ('A' for Active; 'I' for Inactive)
REMARK    1  A    between atoms: C_3  and  O_4 
REMARK    2  A    between atoms: C_6  and  N_7 
REMARK       I    between atoms: N_7  and  C_8 
REMARK    3  A    between atoms: C_8  and  C_9 
REMARK    4  A    between atoms: C_12  and  C_13 
REMARK    5  A    between atoms: C_18  and  C_19 
ROOT
HETATM    1  C   UNL     1      42.952 -14.175   5.561  1.00  0.00     0.096 C 
HETATM    2  C   UNL     1      42.779 -15.395   4.933  1.00  0.00     0.138 C 
HETATM    3  N   UNL     1      41.931 -15.155   3.874  1.00  0.00    -0.240 N 
HETATM    4  C   UNL     1      41.438 -16.179   2.967  1.00  0.00     0.221 C 
HETATM    5  C   UNL     1      42.281 -17.461   3.092  1.00  0.00     0.066 C 
HETATM    6  C   UNL     1      42.546 -17.780   4.566  1.00  0.00     0.118 C 
HETATM    7  N   UNL     1      43.246 -16.650   5.190  1.00  0.00    -0.365 N 
HETATM    8  N   UNL     1      41.414 -13.919   3.876  1.00  0.00    -0.181 NA
HETATM    9  C   UNL     1      42.058 -13.315   4.878  1.00  0.00     0.160 C 
HETATM   10  H   UNL     1      43.507 -16.865   6.156  1.00  0.00     0.161 HD
ENDROOT
BRANCH   1  11
HETATM   11  C   UNL     1      43.798 -13.821   6.690  1.00  0.00     0.261 C 
HETATM   12  N   UNL     1      43.382 -12.678   7.346  1.00  0.00    -0.323 N 
HETATM   13  H   UNL     1      42.491 -12.302   7.038  1.00  0.00     0.169 HD
HETATM   14  O   UNL     1      44.747 -14.530   7.000  1.00  0.00    -0.267 OA
BRANCH  12  15
HETATM   15  C   UNL     1      43.997 -12.034   8.437  1.00  0.00     0.037 A 
HETATM   16  C   UNL     1      43.334 -11.172   9.313  1.00  0.00     0.066 A 
HETATM   17  C   UNL     1      44.024 -10.589  10.374  1.00  0.00     0.067 A 
HETATM   18  C   UNL     1      45.374 -10.848  10.584  1.00  0.00     0.036 A 
HETATM   19  C   UNL     1      46.043 -11.709   9.717  1.00  0.00     0.005 A 
HETATM   20  C   UNL     1      45.357 -12.302   8.652  1.00  0.00     0.029 A 
BRANCH  17  21
HETATM   21  O   UNL     1      43.329  -9.759  11.204  1.00  0.00    -0.361 OA
HETATM   22  H   UNL     1      43.585  -9.943  12.122  1.00  0.00     0.217 HD
ENDBRANCH  17  21
ENDBRANCH  12  15
ENDBRANCH   1  11
BRANCH   4  23
HETATM   23  C   UNL     1      41.439 -15.708   1.530  1.00  0.00     0.409 C 
HETATM   24  F   UNL     1      42.503 -14.924   1.246  1.00  0.00    -0.169 F 
HETATM   25  F   UNL     1      41.520 -16.784   0.701  1.00  0.00    -0.169 F 
HETATM   26  F   UNL     1      40.318 -15.048   1.174  1.00  0.00    -0.169 F 
ENDBRANCH   4  23
BRANCH   6  27
HETATM   27  C   UNL     1      43.369 -19.044   4.727  1.00  0.00    -0.035 A 
HETATM   28  C   UNL     1      43.510 -19.672   5.979  1.00  0.00     0.012 A 
HETATM   29  C   UNL     1      44.289 -20.823   6.112  1.00  0.00     0.043 A 
HETATM   30  C   UNL     1      44.932 -21.348   4.999  1.00  0.00     0.116 A 
HETATM   31  F   UNL     1      45.682 -22.451   5.128  1.00  0.00    -0.206 F 
HETATM   32  C   UNL     1      44.810 -20.746   3.753  1.00  0.00     0.043 A 
HETATM   33  C   UNL     1      44.031 -19.596   3.616  1.00  0.00     0.012 A 
ENDBRANCH   6  27
TORSDOF 5
ENDMDL
MODEL 4
REMARK VINA RESULT:      -8.8      1.677      2.492
REMARK  5 active torsions:
REMARK  status: ('A' for Active; 'I' for Inactive)
REMARK    1  A    between atoms: C_3  and  O_4 
REMARK    2  A    between atoms: C_6  and  N_7 
REMARK       I    between atoms: N_7  and  C_8 
REMARK    3  A    between atoms: C_8  and  C_9 
REMARK    4  A    between atoms: C_12  and  C_13 
REMARK    5  A    between atoms: C_18  and  C_19 
ROOT
HETATM    1  C   UNL     1      42.033 -14.757   4.274  1.00  0.00     0.096 C 
HETATM    2  C   UNL     1      42.701 -15.946   4.500  1.00  0.00     0.138 C 
HETATM    3  N   UNL     1      43.112 -15.903   5.814  1.00  0.00    -0.240 N 
HETATM    4  C   UNL     1      43.901 -16.936   6.464  1.00  0.00     0.221 C 
HETATM    5  C   UNL     1      43.872 -18.236   5.639  1.00  0.00     0.066 C 
HETATM    6  C   UNL     1      44.061 -17.923   4.151  1.00  0.00     0.118 C 
HETATM    7  N   UNL     1      42.996 -17.015   3.706  1.00  0.00    -0.365 N 
HETATM    8  N   UNL     1      42.912 -14.711   6.395  1.00  0.00    -0.181 NA
HETATM    9  C   UNL     1      42.228 -14.028   5.472  1.00  0.00     0.160 C 
HETATM   10  H   UNL     1      43.050 -16.850   2.698  1.00  0.00     0.161 HD
ENDROOT
BRANCH   1  11
HETATM   11  C   UNL     1      41.330 -14.296   3.088  1.00  0.00     0.261 C 
HETATM   12  N   UNL     1      40.028 -13.907   3.342  1.00  0.00    -0.323 N 
HETATM   13  H   UNL     1      39.768 -13.880   4.322  1.00  0.00     0.169 HD
HETATM   14  O   UNL     1      41.903 -14.245   2.006  1.00  0.00    -0.267 OA
BRANCH  12  15
HETATM   15  C   UNL     1      39.062 -13.463   2.418  1.00  0.00     0.037 A 
HETATM   16  C   UNL     1      38.618 -12.142   2.324  1.00  0.00     0.066 A 
HETATM   17  C   UNL     1      37.666 -11.792   1.369  1.00  0.00     0.067 A 
HETATM   18  C   UNL     1      37.140 -12.739   0.497  1.00  0.00     0.036 A 
HETATM   19  C   UNL     1      37.579 -14.058   0.581  1.00  0.00     0.005 A 
HETATM   20  C   UNL     1      38.537 -14.417   1.534  1.00  0.00     0.029 A 
BRANCH  17  21
HETATM   21  O   UNL     1      37.271 -10.487   1.314  1.00  0.00    -0.361 OA
HETATM   22  H   UNL     1      37.547 -10.109   0.464  1.00  0.00     0.217 HD
ENDBRANCH  17  21
ENDBRANCH  12  15
ENDBRANCH   1  11
BRANCH   4  23
HETATM   23  C   UNL     1      43.417 -17.215   7.870  1.00  0.00     0.409 C 
HETATM   24  F   UNL     1      43.649 -16.181   8.709  1.00  0.00    -0.169 F 
HETATM   25  F   UNL     1      42.069 -17.404   7.854  1.00  0.00    -0.169 F 
HETATM   26  F   UNL     1      43.942 -18.332   8.413  1.00  0.00    -0.169 F 
ENDBRANCH   4  23
BRANCH   6  27
HETATM   27  C   UNL     1      44.045 -19.183   3.308  1.00  0.00    -0.035 A 
HETATM   28  C   UNL     1      43.375 -19.228   2.071  1.00  0.00     0.012 A 
HETATM   29  C   UNL     1      43.352 -20.403   1.317  1.00  0.00     0.043 A 
HETATM   30  C   UNL     1      43.996 -21.537   1.796  1.00  0.00     0.116 A 
HETATM   31  F   UNL     1      43.972 -22.665   1.074  1.00  0.00    -0.206 F 
HETATM   32  C   UNL     1      44.664 -21.519   3.014  1.00  0.00     0.043 A 
HETATM   33  C   UNL     1      44.689 -20.345   3.769  1.00  0.00     0.012 A 
ENDBRANCH   6  27
TORSDOF 5
ENDMDL
MODEL 5
REMARK VINA RESULT:      -8.8      4.220      6.763
REMARK  5 active torsions:
REMARK  status: ('A' for Active; 'I' for Inactive)
REMARK    1  A    between atoms: C_3  and  O_4 
REMARK    2  A    between atoms: C_6  and  N_7 
REMARK       I    between atoms: N_7  and  C_8 
REMARK    3  A    between atoms: C_8  and  C_9 
REMARK    4  A    between atoms: C_12  and  C_13 
REMARK    5  A    between atoms: C_18  and  C_19 
ROOT
HETATM    1  C   UNL     1      40.251 -14.089   3.965  1.00  0.00     0.096 C 
HETATM    2  C   UNL     1      40.766 -15.161   3.260  1.00  0.00     0.138 C 
HETATM    3  N   UNL     1      40.360 -14.983   1.956  1.00  0.00    -0.240 N 
HETATM    4  C   UNL     1      40.639 -15.912   0.873  1.00  0.00     0.221 C 
HETATM    5  C   UNL     1      41.762 -16.886   1.275  1.00  0.00     0.066 C 
HETATM    6  C   UNL     1      41.539 -17.391   2.704  1.00  0.00     0.118 C 
HETATM    7  N   UNL     1      41.508 -16.246   3.624  1.00  0.00    -0.365 N 
HETATM    8  N   UNL     1      39.483 -13.980   1.804  1.00  0.00    -0.181 NA
HETATM    9  C   UNL     1      39.444 -13.417   3.016  1.00  0.00     0.160 C 
HETATM   10  H   UNL     1      41.439 -16.556   4.596  1.00  0.00     0.161 HD
ENDROOT
BRANCH   1  11
HETATM   11  C   UNL     1      40.423 -13.726   5.363  1.00  0.00     0.261 C 
HETATM   12  N   UNL     1      40.294 -12.369   5.593  1.00  0.00    -0.323 N 
HETATM   13  H   UNL     1      39.985 -11.822   4.797  1.00  0.00     0.169 HD
HETATM   14  O   UNL     1      40.622 -14.589   6.209  1.00  0.00    -0.267 OA
BRANCH  12  15
HETATM   15  C   UNL     1      40.452 -11.680   6.812  1.00  0.00     0.037 A 
HETATM   16  C   UNL     1      39.435 -11.517   7.755  1.00  0.00     0.066 A 
HETATM   17  C   UNL     1      39.688 -10.829   8.941  1.00  0.00     0.067 A 
HETATM   18  C   UNL     1      40.942 -10.293   9.209  1.00  0.00     0.036 A 
HETATM   19  C   UNL     1      41.963 -10.454   8.275  1.00  0.00     0.005 A 
HETATM   20  C   UNL     1      41.720 -11.146   7.084  1.00  0.00     0.029 A 
BRANCH  17  21
HETATM   21  O   UNL     1      38.663 -10.703   9.833  1.00  0.00    -0.361 OA
HETATM   22  H   UNL     1      38.941 -11.070  10.687  1.00  0.00     0.217 HD
ENDBRANCH  17  21
ENDBRANCH  12  15
ENDBRANCH   1  11
BRANCH   4  23
HETATM   23  C   UNL     1      41.020 -15.194  -0.402  1.00  0.00     0.409 C 
HETATM   24  F   UNL     1      42.030 -14.314  -0.215  1.00  0.00    -0.169 F 
HETATM   25  F   UNL     1      41.463 -16.101  -1.316  1.00  0.00    -0.169 F 
HETATM   26  F   UNL     1      39.994 -14.546  -0.988  1.00  0.00    -0.169 F 
ENDBRANCH   4  23
BRANCH   6  27
HETATM   27  C   UNL     1      42.625 -18.360   3.131  1.00  0.00    -0.035 A 
HETATM   28  C   UNL     1      43.216 -19.249   2.212  1.00  0.00     0.012 A 
HETATM   29  C   UNL     1      44.199 -20.149   2.627  1.00  0.00     0.043 A 
HETATM   30  C   UNL     1      44.594 -20.167   3.958  1.00  0.00     0.116 A 
HETATM   31  F   UNL     1      45.536 -21.033   4.357  1.00  0.00    -0.206 F 
HETATM   32  C   UNL     1      44.026 -19.301   4.884  1.00  0.00     0.043 A 
HETATM   33  C   UNL     1      43.043 -18.399   4.472  1.00  0.00     0.012 A 
ENDBRANCH   6  27
TORSDOF 5
ENDMDL
MODEL 6
REMARK VINA RESULT:      -8.5      3.889      7.101
REMARK  5 active torsions:
REMARK  status: ('A' for Active; 'I' for Inactive)
REMARK    1  A    between atoms: C_3  and  O_4 
REMARK    2  A    between atoms: C_6  and  N_7 
REMARK       I    between atoms: N_7  and  C_8 
REMARK    3  A    between atoms: C_8  and  C_9 
REMARK    4  A    between atoms: C_12  and  C_13 
REMARK    5  A    between atoms: C_18  and  C_19 
ROOT
HETATM    1  C   UNL     1      40.968 -15.877   4.672  1.00  0.00     0.096 C 
HETATM    2  C   UNL     1      40.567 -15.010   3.673  1.00  0.00     0.138 C 
HETATM    3  N   UNL     1      40.336 -13.802   4.293  1.00  0.00    -0.240 N 
HETATM    4  C   UNL     1      39.846 -12.611   3.619  1.00  0.00     0.221 C 
HETATM    5  C   UNL     1      40.001 -12.752   2.094  1.00  0.00     0.066 C 
HETATM    6  C   UNL     1      39.557 -14.148   1.644  1.00  0.00     0.118 C 
HETATM    7  N   UNL     1      40.367 -15.161   2.332  1.00  0.00    -0.365 N 
HETATM    8  N   UNL     1      40.391 -13.872   5.631  1.00  0.00    -0.181 NA
HETATM    9  C   UNL     1      40.807 -15.122   5.859  1.00  0.00     0.160 C 
HETATM   10  H   UNL     1      40.148 -16.101   1.993  1.00  0.00     0.161 HD
ENDROOT
BRANCH   1  11
HETATM   11  C   UNL     1      41.407 -17.261   4.582  1.00  0.00     0.261 C 
HETATM   12  N   UNL     1      42.533 -17.426   3.798  1.00  0.00    -0.323 N 
HETATM   13  H   UNL     1      42.974 -16.567   3.487  1.00  0.00     0.169 HD
HETATM   14  O   UNL     1      40.816 -18.141   5.196  1.00  0.00    -0.267 OA
BRANCH  12  15
HETATM   15  C   UNL     1      43.184 -18.629   3.462  1.00  0.00     0.037 A 
HETATM   16  C   UNL     1      44.021 -19.335   4.330  1.00  0.00     0.066 A 
HETATM   17  C   UNL     1      44.613 -20.526   3.913  1.00  0.00     0.067 A 
HETATM   18  C   UNL     1      44.389 -21.033   2.639  1.00  0.00     0.036 A 
HETATM   19  C   UNL     1      43.554 -20.337   1.768  1.00  0.00     0.005 A 
HETATM   20  C   UNL     1      42.952 -19.144   2.179  1.00  0.00     0.029 A 
BRANCH  17  21
HETATM   21  O   UNL     1      45.416 -21.180   4.801  1.00  0.00    -0.361 OA
HETATM   22  H   UNL     1      44.865 -21.575   5.495  1.00  0.00     0.217 HD
ENDBRANCH  17  21
ENDBRANCH  12  15
ENDBRANCH   1  11
BRANCH   4  23
HETATM   23  C   UNL     1      40.560 -11.363   4.089  1.00  0.00     0.409 C 
HETATM   24  F   UNL     1      41.876 -11.576   4.313  1.00  0.00    -0.169 F 
HETATM   25  F   UNL     1      40.482 -10.408   3.123  1.00  0.00    -0.169 F 
HETATM   26  F   UNL     1      40.022 -10.815   5.198  1.00  0.00    -0.169 F 
ENDBRANCH   4  23
BRANCH   6  27
HETATM   27  C   UNL     1      39.689 -14.320   0.143  1.00  0.00    -0.035 A 
HETATM   28  C   UNL     1      38.690 -13.863  -0.738  1.00  0.00     0.012 A 
HETATM   29  C   UNL     1      38.818 -14.049  -2.115  1.00  0.00     0.043 A 
HETATM   30  C   UNL     1      39.941 -14.693  -2.618  1.00  0.00     0.116 A 
HETATM   31  F   UNL     1      40.063 -14.873  -3.941  1.00  0.00    -0.206 F 
HETATM   32  C   UNL     1      40.940 -15.154  -1.771  1.00  0.00     0.043 A 
HETATM   33  C   UNL     1      40.815 -14.968  -0.393  1.00  0.00     0.012 A 
ENDBRANCH   6  27
TORSDOF 5
ENDMDL
MODEL 7
REMARK VINA RESULT:      -8.3      4.091      7.624
REMARK  5 active torsions:
REMARK  status: ('A' for Active; 'I' for Inactive)
REMARK    1  A    between atoms: C_3  and  O_4 
REMARK    2  A    between atoms: C_6  and  N_7 
REMARK       I    between atoms: N_7  and  C_8 
REMARK    3  A    between atoms: C_8  and  C_9 
REMARK    4  A    between atoms: C_12  and  C_13 
REMARK    5  A    between atoms: C_18  and  C_19 
ROOT
HETATM    1  C   UNL     1      41.845 -15.797   3.007  1.00  0.00     0.096 C 
HETATM    2  C   UNL     1      41.381 -14.776   2.198  1.00  0.00     0.138 C 
HETATM    3  N   UNL     1      40.464 -14.082   2.957  1.00  0.00    -0.240 N 
HETATM    4  C   UNL     1      39.687 -12.951   2.479  1.00  0.00     0.221 C 
HETATM    5  C   UNL     1      40.299 -12.387   1.183  1.00  0.00     0.066 C 
HETATM    6  C   UNL     1      40.684 -13.529   0.238  1.00  0.00     0.118 C 
HETATM    7  N   UNL     1      41.647 -14.412   0.911  1.00  0.00    -0.365 N 
HETATM    8  N   UNL     1      40.179 -14.680   4.123  1.00  0.00    -0.181 NA
HETATM    9  C   UNL     1      41.040 -15.700   4.167  1.00  0.00     0.160 C 
HETATM   10  H   UNL     1      41.983 -15.141   0.277  1.00  0.00     0.161 HD
ENDROOT
BRANCH   1  11
HETATM   11  C   UNL     1      42.874 -16.792   2.750  1.00  0.00     0.261 C 
HETATM   12  N   UNL     1      42.537 -18.054   3.202  1.00  0.00    -0.323 N 
HETATM   13  H   UNL     1      41.586 -18.153   3.541  1.00  0.00     0.169 HD
HETATM   14  O   UNL     1      43.900 -16.485   2.154  1.00  0.00    -0.267 OA
BRANCH  12  15
HETATM   15  C   UNL     1      43.320 -19.225   3.161  1.00  0.00     0.037 A 
HETATM   16  C   UNL     1      43.260 -20.170   2.135  1.00  0.00     0.066 A 
HETATM   17  C   UNL     1      44.083 -21.294   2.174  1.00  0.00     0.067 A 
HETATM   18  C   UNL     1      44.972 -21.500   3.223  1.00  0.00     0.036 A 
HETATM   19  C   UNL     1      45.041 -20.560   4.249  1.00  0.00     0.005 A 
HETATM   20  C   UNL     1      44.221 -19.427   4.216  1.00  0.00     0.029 A 
BRANCH  17  21
HETATM   21  O   UNL     1      43.990 -22.185   1.145  1.00  0.00    -0.361 OA
HETATM   22  H   UNL     1      44.774 -22.096   0.579  1.00  0.00     0.217 HD
ENDBRANCH  17  21
ENDBRANCH  12  15
ENDBRANCH   1  11
BRANCH   4  23
HETATM   23  C   UNL     1      39.592 -11.853   3.516  1.00  0.00     0.409 C 
HETATM   24  F   UNL     1      40.757 -11.668   4.177  1.00  0.00    -0.169 F 
HETATM   25  F   UNL     1      39.306 -10.674   2.900  1.00  0.00    -0.169 F 
HETATM   26  F   UNL     1      38.613 -12.046   4.422  1.00  0.00    -0.169 F 
ENDBRANCH   4  23
BRANCH   6  27
HETATM   27  C   UNL     1      41.284 -13.009  -1.054  1.00  0.00    -0.035 A 
HETATM   28  C   UNL     1      42.259 -11.994  -1.052  1.00  0.00     0.012 A 
HETATM   29  C   UNL     1      42.785 -11.512  -2.252  1.00  0.00     0.043 A 
HETATM   30  C   UNL     1      42.338 -12.039  -3.457  1.00  0.00     0.116 A 
HETATM   31  F   UNL     1      42.841 -11.575  -4.609  1.00  0.00    -0.206 F 
HETATM   32  C   UNL     1      41.375 -13.040  -3.486  1.00  0.00     0.043 A 
HETATM   33  C   UNL     1      40.849 -13.525  -2.287  1.00  0.00     0.012 A 
ENDBRANCH   6  27
TORSDOF 5
ENDMDL
MODEL 8
REMARK VINA RESULT:      -8.2      2.972      5.893
REMARK  5 active torsions:
REMARK  status: ('A' for Active; 'I' for Inactive)
REMARK    1  A    between atoms: C_3  and  O_4 
REMARK    2  A    between atoms: C_6  and  N_7 
REMARK       I    between atoms: N_7  and  C_8 
REMARK    3  A    between atoms: C_8  and  C_9 
REMARK    4  A    between atoms: C_12  and  C_13 
REMARK    5  A    between atoms: C_18  and  C_19 
ROOT
HETATM    1  C   UNL     1      41.708 -15.193   0.574  1.00  0.00     0.096 C 
HETATM    2  C   UNL     1      42.087 -15.673   1.814  1.00  0.00     0.138 C 
HETATM    3  N   UNL     1      42.056 -17.047   1.711  1.00  0.00    -0.240 N 
HETATM    4  C   UNL     1      42.338 -17.961   2.805  1.00  0.00     0.221 C 
HETATM    5  C   UNL     1      43.052 -17.223   3.953  1.00  0.00     0.066 C 
HETATM    6  C   UNL     1      42.380 -15.872   4.213  1.00  0.00     0.118 C 
HETATM    7  N   UNL     1      42.423 -15.064   2.986  1.00  0.00    -0.365 N 
HETATM    8  N   UNL     1      41.523 -17.482   0.560  1.00  0.00    -0.181 NA
HETATM    9  C   UNL     1      41.343 -16.359  -0.142  1.00  0.00     0.160 C 
HETATM   10  H   UNL     1      42.052 -14.125   3.151  1.00  0.00     0.161 HD
ENDROOT
BRANCH   1  11
HETATM   11  C   UNL     1      41.633 -13.824   0.090  1.00  0.00     0.261 C 
HETATM   12  N   UNL     1      42.253 -13.643  -1.132  1.00  0.00    -0.323 N 
HETATM   13  H   UNL     1      42.573 -14.492  -1.585  1.00  0.00     0.169 HD
HETATM   14  O   UNL     1      41.031 -12.971   0.731  1.00  0.00    -0.267 OA
BRANCH  12  15
HETATM   15  C   UNL     1      42.409 -12.442  -1.853  1.00  0.00     0.037 A 
HETATM   16  C   UNL     1      43.039 -11.303  -1.348  1.00  0.00     0.066 A 
HETATM   17  C   UNL     1      43.158 -10.163  -2.141  1.00  0.00     0.067 A 
HETATM   18  C   UNL     1      42.657 -10.132  -3.437  1.00  0.00     0.036 A 
HETATM   19  C   UNL     1      42.030 -11.265  -3.950  1.00  0.00     0.005 A 
HETATM   20  C   UNL     1      41.910 -12.415  -3.163  1.00  0.00     0.029 A 
BRANCH  17  21
HETATM   21  O   UNL     1      43.787  -9.078  -1.603  1.00  0.00    -0.361 OA
HETATM   22  H   UNL     1      43.399  -8.886  -0.734  1.00  0.00     0.217 HD
ENDBRANCH  17  21
ENDBRANCH  12  15
ENDBRANCH   1  11
BRANCH   4  23
HETATM   23  C   UNL     1      43.178 -19.137   2.356  1.00  0.00     0.409 C 
HETATM   24  F   UNL     1      44.147 -18.775   1.486  1.00  0.00    -0.169 F 
HETATM   25  F   UNL     1      43.809 -19.678   3.434  1.00  0.00    -0.169 F 
HETATM   26  F   UNL     1      42.461 -20.136   1.804  1.00  0.00    -0.169 F 
ENDBRANCH   4  23
BRANCH   6  27
HETATM   27  C   UNL     1      43.054 -15.120   5.344  1.00  0.00    -0.035 A 
HETATM   28  C   UNL     1      42.872 -13.734   5.514  1.00  0.00     0.012 A 
HETATM   29  C   UNL     1      43.517 -13.054   6.549  1.00  0.00     0.043 A 
HETATM   30  C   UNL     1      44.347 -13.754   7.415  1.00  0.00     0.116 A 
HETATM   31  F   UNL     1      44.968 -13.100   8.407  1.00  0.00    -0.206 F 
HETATM   32  C   UNL     1      44.544 -15.121   7.269  1.00  0.00     0.043 A 
HETATM   33  C   UNL     1      43.900 -15.803   6.235  1.00  0.00     0.012 A 
ENDBRANCH   6  27
TORSDOF 5
ENDMDL
MODEL 9
REMARK VINA RESULT:      -8.2      5.158      9.383
REMARK  5 active torsions:
REMARK  status: ('A' for Active; 'I' for Inactive)
REMARK    1  A    between atoms: C_3  and  O_4 
REMARK    2  A    between atoms: C_6  and  N_7 
REMARK       I    between atoms: N_7  and  C_8 
REMARK    3  A    between atoms: C_8  and  C_9 
REMARK    4  A    between atoms: C_12  and  C_13 
REMARK    5  A    between atoms: C_18  and  C_19 
ROOT
HETATM    1  C   UNL     1      42.807 -13.366   5.783  1.00  0.00     0.096 C 
HETATM    2  C   UNL     1      42.464 -12.327   6.628  1.00  0.00     0.138 C 
HETATM    3  N   UNL     1      41.695 -11.467   5.875  1.00  0.00    -0.240 N 
HETATM    4  C   UNL     1      41.159 -10.205   6.357  1.00  0.00     0.221 C 
HETATM    5  C   UNL     1      41.216 -10.148   7.895  1.00  0.00     0.066 C 
HETATM    6  C   UNL     1      42.568 -10.668   8.394  1.00  0.00     0.118 C 
HETATM    7  N   UNL     1      42.758 -12.049   7.930  1.00  0.00    -0.365 N 
HETATM    8  N   UNL     1      41.662 -11.785   4.573  1.00  0.00    -0.181 NA
HETATM    9  C   UNL     1      42.308 -12.955   4.523  1.00  0.00     0.160 C 
HETATM   10  H   UNL     1      43.617 -12.452   8.314  1.00  0.00     0.161 HD
ENDROOT
BRANCH   1  11
HETATM   11  C   UNL     1      43.548 -14.586   6.061  1.00  0.00     0.261 C 
HETATM   12  N   UNL     1      42.915 -15.726   5.601  1.00  0.00    -0.323 N 
HETATM   13  H   UNL     1      42.089 -15.564   5.035  1.00  0.00     0.169 HD
HETATM   14  O   UNL     1      44.638 -14.536   6.617  1.00  0.00    -0.267 OA
BRANCH  12  15
HETATM   15  C   UNL     1      43.330 -17.064   5.749  1.00  0.00     0.037 A 
HETATM   16  C   UNL     1      43.321 -17.756   6.962  1.00  0.00     0.066 A 
HETATM   17  C   UNL     1      43.739 -19.085   7.010  1.00  0.00     0.067 A 
HETATM   18  C   UNL     1      44.170 -19.745   5.865  1.00  0.00     0.036 A 
HETATM   19  C   UNL     1      44.178 -19.064   4.650  1.00  0.00     0.005 A 
HETATM   20  C   UNL     1      43.757 -17.731   4.592  1.00  0.00     0.029 A 
BRANCH  17  21
HETATM   21  O   UNL     1      43.706 -19.718   8.218  1.00  0.00    -0.361 OA
HETATM   22  H   UNL     1      43.722 -19.052   8.924  1.00  0.00     0.217 HD
ENDBRANCH  17  21
ENDBRANCH  12  15
ENDBRANCH   1  11
BRANCH   4  23
HETATM   23  C   UNL     1      39.736  -9.982   5.893  1.00  0.00     0.409 C 
HETATM   24  F   UNL     1      39.037 -11.136   5.803  1.00  0.00    -0.169 F 
HETATM   25  F   UNL     1      39.083  -9.205   6.798  1.00  0.00    -0.169 F 
HETATM   26  F   UNL     1      39.646  -9.336   4.713  1.00  0.00    -0.169 F 
ENDBRANCH   4  23
BRANCH   6  27
HETATM   27  C   UNL     1      42.662 -10.619   9.907  1.00  0.00    -0.035 A 
HETATM   28  C   UNL     1      43.871 -10.301  10.555  1.00  0.00     0.012 A 
HETATM   29  C   UNL     1      43.945 -10.281  11.949  1.00  0.00     0.043 A 
HETATM   30  C   UNL     1      42.816 -10.580  12.700  1.00  0.00     0.116 A 
HETATM   31  F   UNL     1      42.888 -10.563  14.038  1.00  0.00    -0.206 F 
HETATM   32  C   UNL     1      41.612 -10.897  12.085  1.00  0.00     0.043 A 
HETATM   33  C   UNL     1      41.534 -10.917  10.691  1.00  0.00     0.012 A 
ENDBRANCH   6  27
TORSDOF 5
ENDMDL
MODEL 10
REMARK VINA RESULT:      -8.1      3.830      7.048
REMARK  5 active torsions:
REMARK  status: ('A' for Active; 'I' for Inactive)
REMARK    1  A    between atoms: C_3  and  O_4 
REMARK    2  A    between atoms: C_6  and  N_7 
REMARK       I    between atoms: N_7  and  C_8 
REMARK    3  A    between atoms: C_8  and  C_9 
REMARK    4  A    between atoms: C_12  and  C_13 
REMARK    5  A    between atoms: C_18  and  C_19 
ROOT
HETATM    1  C   UNL     1      40.923 -15.680   4.757  1.00  0.00     0.096 C 
HETATM    2  C   UNL     1      40.519 -14.861   3.719  1.00  0.00     0.138 C 
HETATM    3  N   UNL     1      40.254 -13.635   4.289  1.00  0.00    -0.240 N 
HETATM    4  C   UNL     1      39.749 -12.481   3.563  1.00  0.00     0.221 C 
HETATM    5  C   UNL     1      39.930 -12.677   2.047  1.00  0.00     0.066 C 
HETATM    6  C   UNL     1      39.523 -14.098   1.644  1.00  0.00     0.118 C 
HETATM    7  N   UNL     1      40.344 -15.067   2.383  1.00  0.00    -0.365 N 
HETATM    8  N   UNL     1      40.290 -13.653   5.629  1.00  0.00    -0.181 NA
HETATM    9  C   UNL     1      40.729 -14.883   5.911  1.00  0.00     0.160 C 
HETATM   10  H   UNL     1      40.149 -16.024   2.077  1.00  0.00     0.161 HD
ENDROOT
BRANCH   1  11
HETATM   11  C   UNL     1      41.393 -17.056   4.727  1.00  0.00     0.261 C 
HETATM   12  N   UNL     1      42.634 -17.196   4.135  1.00  0.00    -0.323 N 
HETATM   13  H   UNL     1      43.106 -16.327   3.907  1.00  0.00     0.169 HD
HETATM   14  O   UNL     1      40.724 -17.951   5.228  1.00  0.00    -0.267 OA
BRANCH  12  15
HETATM   15  C   UNL     1      43.350 -18.386   3.898  1.00  0.00     0.037 A 
HETATM   16  C   UNL     1      43.204 -19.172   2.753  1.00  0.00     0.066 A 
HETATM   17  C   UNL     1      43.965 -20.329   2.599  1.00  0.00     0.067 A 
HETATM   18  C   UNL     1      44.877 -20.725   3.572  1.00  0.00     0.036 A 
HETATM   19  C   UNL     1      45.031 -19.946   4.716  1.00  0.00     0.005 A 
HETATM   20  C   UNL     1      44.274 -18.781   4.876  1.00  0.00     0.029 A 
BRANCH  17  21
HETATM   21  O   UNL     1      43.789 -21.058   1.459  1.00  0.00    -0.361 OA
HETATM   22  H   UNL     1      43.346 -20.505   0.796  1.00  0.00     0.217 HD
ENDBRANCH  17  21
ENDBRANCH  12  15
ENDBRANCH   1  11
BRANCH   4  23
HETATM   23  C   UNL     1      40.429 -11.201   3.995  1.00  0.00     0.409 C 
HETATM   24  F   UNL     1      41.734 -11.387   4.297  1.00  0.00    -0.169 F 
HETATM   25  F   UNL     1      40.394 -10.304   2.972  1.00  0.00    -0.169 F 
HETATM   26  F   UNL     1      39.832 -10.595   5.041  1.00  0.00    -0.169 F 
ENDBRANCH   4  23
BRANCH   6  27
HETATM   27  C   UNL     1      39.681 -14.325   0.153  1.00  0.00    -0.035 A 
HETATM   28  C   UNL     1      40.806 -14.990  -0.371  1.00  0.00     0.012 A 
HETATM   29  C   UNL     1      40.946 -15.171  -1.748  1.00  0.00     0.043 A 
HETATM   30  C   UNL     1      39.967 -14.687  -2.606  1.00  0.00     0.116 A 
HETATM   31  F   UNL     1      40.102 -14.859  -3.928  1.00  0.00    -0.206 F 
HETATM   32  C   UNL     1      38.848 -14.027  -2.114  1.00  0.00     0.043 A 
HETATM   33  C   UNL     1      38.705 -13.845  -0.737  1.00  0.00     0.012 A 
ENDBRANCH   6  27
TORSDOF 5
ENDMDL
