MODEL 1
REMARK VINA RESULT:      -9.9      0.000      0.000
REMARK  4 active torsions:
REMARK  status: ('A' for Active; 'I' for Inactive)
REMARK    1  A    between atoms: C_7  and  C_8 
REMARK    2  A    between atoms: N_9  and  C_10 
REMARK    3  A    between atoms: C_10  and  C_11 
REMARK       I    between atoms: C_11  and  N_12 
REMARK    4  A    between atoms: N_12  and  C_13 
ROOT
HETATM    1  C   UNL     1      43.234 -15.456   5.132  1.00  0.00     0.158 C 
HETATM    2  N   UNL     1      43.788 -16.204   6.249  1.00  0.00    -0.326 N 
HETATM    3  C   UNL     1      44.231 -17.453   5.870  1.00  0.00     0.255 C 
HETATM    4  O   UNL     1      44.896 -18.230   6.528  1.00  0.00    -0.267 OA
HETATM    5  C   UNL     1      43.787 -17.663   4.486  1.00  0.00     0.040 A 
HETATM    6  C   UNL     1      43.162 -16.493   4.047  1.00  0.00    -0.015 A 
HETATM    7  C   UNL     1      43.910 -18.792   3.697  1.00  0.00     0.017 A 
HETATM    8  C   UNL     1      43.372 -18.736   2.411  1.00  0.00     0.001 A 
HETATM    9  C   UNL     1      42.740 -17.566   1.950  1.00  0.00     0.001 A 
HETATM   10  C   UNL     1      42.639 -16.432   2.765  1.00  0.00     0.011 A 
ENDROOT
BRANCH   1  11
HETATM   11  C   UNL     1      41.846 -14.948   5.377  1.00  0.00     0.004 A 
HETATM   12  C   UNL     1      40.774 -15.730   5.804  1.00  0.00     0.015 A 
HETATM   13  C   UNL     1      40.695 -17.177   6.139  1.00  0.00     0.069 C 
HETATM   14  N   UNL     1      39.665 -14.928   5.876  1.00  0.00    -0.359 N 
HETATM   15  H   UNL     1      38.741 -15.235   6.147  1.00  0.00     0.166 HD
HETATM   16  C   UNL     1      39.974 -13.639   5.524  1.00  0.00     0.043 A 
HETATM   17  C   UNL     1      41.334 -13.610   5.216  1.00  0.00     0.001 A 
HETATM   18  C   UNL     1      39.149 -12.510   5.454  1.00  0.00     0.030 A 
HETATM   19  C   UNL     1      41.894 -12.374   4.824  1.00  0.00     0.014 A 
HETATM   20  C   UNL     1      41.084 -11.234   4.746  1.00  0.00     0.001 A 
HETATM   21  C   UNL     1      39.730 -11.304   5.056  1.00  0.00     0.002 A 
ENDBRANCH   1  11
BRANCH   2  22
HETATM   22  C   UNL     1      44.024 -15.611   7.554  1.00  0.00     0.229 C 
BRANCH  22  23
HETATM   23  C   UNL     1      44.627 -14.207   7.513  1.00  0.00     0.235 C 
HETATM   24  N   UNL     1      44.191 -13.352   8.508  1.00  0.00    -0.355 N 
HETATM   25  H   UNL     1      43.396 -13.669   9.060  1.00  0.00     0.162 HD
HETATM   26  O   UNL     1      45.341 -13.842   6.581  1.00  0.00    -0.272 OA
BRANCH  24  27
HETATM   27  C   UNL     1      44.452 -11.918   8.434  1.00  0.00     0.084 C 
HETATM   28  C   UNL     1      43.218 -11.111   8.867  1.00  0.00     0.025 C 
HETATM   29  C   UNL     1      42.996 -11.134  10.379  1.00  0.00     0.002 C 
HETATM   30  C   UNL     1      44.244 -10.692  11.134  1.00  0.00     0.000 C 
HETATM   31  C   UNL     1      45.453 -11.541  10.754  1.00  0.00     0.002 C 
HETATM   32  C   UNL     1      45.693 -11.536   9.247  1.00  0.00     0.025 C 
ENDBRANCH  24  27
ENDBRANCH  22  23
ENDBRANCH   2  22
TORSDOF 4
ENDMDL
MODEL 2
REMARK VINA RESULT:      -9.0      4.105      7.729
REMARK  4 active torsions:
REMARK  status: ('A' for Active; 'I' for Inactive)
REMARK    1  A    between atoms: C_7  and  C_8 
REMARK    2  A    between atoms: N_9  and  C_10 
REMARK    3  A    between atoms: C_10  and  C_11 
REMARK       I    between atoms: C_11  and  N_12 
REMARK    4  A    between atoms: N_12  and  C_13 
ROOT
HETATM    1  C   UNL     1      40.784 -15.950   3.768  1.00  0.00     0.158 C 
HETATM    2  N   UNL     1      40.519 -16.000   2.340  1.00  0.00    -0.326 N 
HETATM    3  C   UNL     1      41.140 -17.071   1.733  1.00  0.00     0.255 C 
HETATM    4  O   UNL     1      40.966 -17.479   0.600  1.00  0.00    -0.267 OA
HETATM    5  C   UNL     1      42.032 -17.672   2.733  1.00  0.00     0.040 A 
HETATM    6  C   UNL     1      41.853 -16.991   3.940  1.00  0.00    -0.015 A 
HETATM    7  C   UNL     1      42.930 -18.711   2.582  1.00  0.00     0.017 A 
HETATM    8  C   UNL     1      43.684 -19.074   3.698  1.00  0.00     0.001 A 
HETATM    9  C   UNL     1      43.518 -18.402   4.923  1.00  0.00     0.001 A 
HETATM   10  C   UNL     1      42.592 -17.359   5.054  1.00  0.00     0.011 A 
ENDROOT
BRANCH   1  11
HETATM   11  C   UNL     1      41.338 -14.637   4.232  1.00  0.00     0.004 A 
HETATM   12  C   UNL     1      42.555 -14.096   3.822  1.00  0.00     0.015 A 
HETATM   13  C   UNL     1      43.575 -14.603   2.865  1.00  0.00     0.069 C 
HETATM   14  N   UNL     1      42.740 -12.913   4.487  1.00  0.00    -0.359 N 
HETATM   15  H   UNL     1      43.546 -12.311   4.393  1.00  0.00     0.166 HD
HETATM   16  C   UNL     1      41.677 -12.649   5.313  1.00  0.00     0.043 A 
HETATM   17  C   UNL     1      40.773 -13.701   5.171  1.00  0.00     0.001 A 
HETATM   18  C   UNL     1      41.459 -11.562   6.169  1.00  0.00     0.030 A 
HETATM   19  C   UNL     1      39.581 -13.652   5.928  1.00  0.00     0.014 A 
HETATM   20  C   UNL     1      39.346 -12.574   6.791  1.00  0.00     0.001 A 
HETATM   21  C   UNL     1      40.275 -11.545   6.910  1.00  0.00     0.002 A 
ENDBRANCH   1  11
BRANCH   2  22
HETATM   22  C   UNL     1      39.550 -15.137   1.687  1.00  0.00     0.229 C 
BRANCH  22  23
HETATM   23  C   UNL     1      40.085 -14.397   0.460  1.00  0.00     0.235 C 
HETATM   24  N   UNL     1      39.539 -14.792  -0.747  1.00  0.00    -0.355 N 
HETATM   25  H   UNL     1      38.974 -15.639  -0.732  1.00  0.00     0.162 HD
HETATM   26  O   UNL     1      41.023 -13.607   0.546  1.00  0.00    -0.272 OA
BRANCH  24  27
HETATM   27  C   UNL     1      40.144 -14.388  -2.012  1.00  0.00     0.084 C 
HETATM   28  C   UNL     1      40.853 -15.572  -2.687  1.00  0.00     0.025 C 
HETATM   29  C   UNL     1      39.877 -16.569  -3.311  1.00  0.00     0.002 C 
HETATM   30  C   UNL     1      38.909 -15.880  -4.267  1.00  0.00     0.000 C 
HETATM   31  C   UNL     1      38.156 -14.749  -3.575  1.00  0.00     0.002 C 
HETATM   32  C   UNL     1      39.110 -13.742  -2.941  1.00  0.00     0.025 C 
ENDBRANCH  24  27
ENDBRANCH  22  23
ENDBRANCH   2  22
TORSDOF 4
ENDMDL
MODEL 3
REMARK VINA RESULT:      -8.7      3.628      6.111
REMARK  4 active torsions:
REMARK  status: ('A' for Active; 'I' for Inactive)
REMARK    1  A    between atoms: C_7  and  C_8 
REMARK    2  A    between atoms: N_9  and  C_10 
REMARK    3  A    between atoms: C_10  and  C_11 
REMARK       I    between atoms: C_11  and  N_12 
REMARK    4  A    between atoms: N_12  and  C_13 
ROOT
HETATM    1  C   UNL     1      41.570 -16.557   4.466  1.00  0.00     0.158 C 
HETATM    2  N   UNL     1      41.518 -17.254   3.191  1.00  0.00    -0.326 N 
HETATM    3  C   UNL     1      42.453 -18.264   3.112  1.00  0.00     0.255 C 
HETATM    4  O   UNL     1      42.535 -19.127   2.259  1.00  0.00    -0.267 OA
HETATM    5  C   UNL     1      43.321 -18.137   4.290  1.00  0.00     0.040 A 
HETATM    6  C   UNL     1      42.826 -17.102   5.087  1.00  0.00    -0.015 A 
HETATM    7  C   UNL     1      44.454 -18.859   4.613  1.00  0.00     0.017 A 
HETATM    8  C   UNL     1      45.117 -18.515   5.792  1.00  0.00     0.001 A 
HETATM    9  C   UNL     1      44.633 -17.477   6.609  1.00  0.00     0.001 A 
HETATM   10  C   UNL     1      43.476 -16.768   6.264  1.00  0.00     0.011 A 
ENDROOT
BRANCH   1  11
HETATM   11  C   UNL     1      41.727 -15.073   4.335  1.00  0.00     0.004 A 
HETATM   12  C   UNL     1      42.764 -14.437   3.656  1.00  0.00     0.015 A 
HETATM   13  C   UNL     1      43.919 -14.992   2.900  1.00  0.00     0.069 C 
HETATM   14  N   UNL     1      42.593 -13.084   3.787  1.00  0.00    -0.359 N 
HETATM   15  H   UNL     1      43.207 -12.379   3.404  1.00  0.00     0.166 HD
HETATM   16  C   UNL     1      41.467 -12.806   4.521  1.00  0.00     0.043 A 
HETATM   17  C   UNL     1      40.892 -14.027   4.872  1.00  0.00     0.001 A 
HETATM   18  C   UNL     1      40.928 -11.570   4.896  1.00  0.00     0.030 A 
HETATM   19  C   UNL     1      39.704 -13.999   5.636  1.00  0.00     0.014 A 
HETATM   20  C   UNL     1      39.151 -12.772   6.023  1.00  0.00     0.001 A 
HETATM   21  C   UNL     1      39.758 -11.575   5.658  1.00  0.00     0.002 A 
ENDBRANCH   1  11
BRANCH   2  22
HETATM   22  C   UNL     1      40.466 -17.031   2.214  1.00  0.00     0.229 C 
BRANCH  22  23
HETATM   23  C   UNL     1      40.694 -15.827   1.300  1.00  0.00     0.235 C 
HETATM   24  N   UNL     1      39.828 -14.767   1.500  1.00  0.00    -0.355 N 
HETATM   25  H   UNL     1      39.026 -14.946   2.101  1.00  0.00     0.162 HD
HETATM   26  O   UNL     1      41.503 -15.866   0.375  1.00  0.00    -0.272 OA
BRANCH  24  27
HETATM   27  C   UNL     1      39.737 -13.680   0.532  1.00  0.00     0.084 C 
HETATM   28  C   UNL     1      38.415 -13.748  -0.249  1.00  0.00     0.025 C 
HETATM   29  C   UNL     1      37.213 -13.297   0.581  1.00  0.00     0.002 C 
HETATM   30  C   UNL     1      37.436 -11.913   1.180  1.00  0.00     0.000 C 
HETATM   31  C   UNL     1      38.712 -11.868   2.013  1.00  0.00     0.002 C 
HETATM   32  C   UNL     1      39.928 -12.317   1.206  1.00  0.00     0.025 C 
ENDBRANCH  24  27
ENDBRANCH  22  23
ENDBRANCH   2  22
TORSDOF 4
ENDMDL
MODEL 4
REMARK VINA RESULT:      -8.6      3.707      7.178
REMARK  4 active torsions:
REMARK  status: ('A' for Active; 'I' for Inactive)
REMARK    1  A    between atoms: C_7  and  C_8 
REMARK    2  A    between atoms: N_9  and  C_10 
REMARK    3  A    between atoms: C_10  and  C_11 
REMARK       I    between atoms: C_11  and  N_12 
REMARK    4  A    between atoms: N_12  and  C_13 
ROOT
HETATM    1  C   UNL     1      40.785 -14.004   2.533  1.00  0.00     0.158 C 
HETATM    2  N   UNL     1      41.815 -13.690   3.510  1.00  0.00    -0.326 N 
HETATM    3  C   UNL     1      41.459 -12.633   4.320  1.00  0.00     0.255 C 
HETATM    4  O   UNL     1      42.022 -12.257   5.331  1.00  0.00    -0.267 OA
HETATM    5  C   UNL     1      40.228 -12.060   3.760  1.00  0.00     0.040 A 
HETATM    6  C   UNL     1      39.835 -12.848   2.675  1.00  0.00    -0.015 A 
HETATM    7  C   UNL     1      39.533 -10.936   4.163  1.00  0.00     0.017 A 
HETATM    8  C   UNL     1      38.395 -10.590   3.434  1.00  0.00     0.001 A 
HETATM    9  C   UNL     1      37.982 -11.372   2.340  1.00  0.00     0.001 A 
HETATM   10  C   UNL     1      38.697 -12.513   1.958  1.00  0.00     0.011 A 
ENDROOT
BRANCH   1  11
HETATM   11  C   UNL     1      41.281 -14.024   1.120  1.00  0.00     0.004 A 
HETATM   12  C   UNL     1      41.355 -15.160   0.317  1.00  0.00     0.015 A 
HETATM   13  C   UNL     1      40.977 -16.573   0.588  1.00  0.00     0.069 C 
HETATM   14  N   UNL     1      41.893 -14.794  -0.889  1.00  0.00    -0.359 N 
HETATM   15  H   UNL     1      42.074 -15.420  -1.661  1.00  0.00     0.166 HD
HETATM   16  C   UNL     1      42.163 -13.449  -0.912  1.00  0.00     0.043 A 
HETATM   17  C   UNL     1      41.782 -12.930   0.325  1.00  0.00     0.001 A 
HETATM   18  C   UNL     1      42.717 -12.666  -1.933  1.00  0.00     0.030 A 
HETATM   19  C   UNL     1      41.961 -11.546   0.542  1.00  0.00     0.014 A 
HETATM   20  C   UNL     1      42.516 -10.747  -0.466  1.00  0.00     0.001 A 
HETATM   21  C   UNL     1      42.889 -11.303  -1.686  1.00  0.00     0.002 A 
ENDBRANCH   1  11
BRANCH   2  22
HETATM   22  C   UNL     1      42.981 -14.531   3.723  1.00  0.00     0.229 C 
BRANCH  22  23
HETATM   23  C   UNL     1      42.668 -15.917   4.287  1.00  0.00     0.235 C 
HETATM   24  N   UNL     1      43.106 -16.977   3.514  1.00  0.00    -0.355 N 
HETATM   25  H   UNL     1      43.432 -16.748   2.577  1.00  0.00     0.162 HD
HETATM   26  O   UNL     1      41.966 -16.060   5.286  1.00  0.00    -0.272 OA
BRANCH  24  27
HETATM   27  C   UNL     1      42.640 -18.335   3.771  1.00  0.00     0.084 C 
HETATM   28  C   UNL     1      42.874 -19.238   2.550  1.00  0.00     0.025 C 
HETATM   29  C   UNL     1      44.342 -19.625   2.372  1.00  0.00     0.002 C 
HETATM   30  C   UNL     1      44.913 -20.246   3.642  1.00  0.00     0.000 C 
HETATM   31  C   UNL     1      44.742 -19.318   4.840  1.00  0.00     0.002 C 
HETATM   32  C   UNL     1      43.283 -18.914   5.036  1.00  0.00     0.025 C 
ENDBRANCH  24  27
ENDBRANCH  22  23
ENDBRANCH   2  22
TORSDOF 4
ENDMDL
MODEL 5
REMARK VINA RESULT:      -8.4      2.916      4.159
REMARK  4 active torsions:
REMARK  status: ('A' for Active; 'I' for Inactive)
REMARK    1  A    between atoms: C_7  and  C_8 
REMARK    2  A    between atoms: N_9  and  C_10 
REMARK    3  A    between atoms: C_10  and  C_11 
REMARK       I    between atoms: C_11  and  N_12 
REMARK    4  A    between atoms: N_12  and  C_13 
ROOT
HETATM    1  C   UNL     1      43.405 -16.347   3.608  1.00  0.00     0.158 C 
HETATM    2  N   UNL     1      43.493 -16.293   5.057  1.00  0.00    -0.326 N 
HETATM    3  C   UNL     1      44.067 -17.430   5.586  1.00  0.00     0.255 C 
HETATM    4  O   UNL     1      44.436 -17.604   6.732  1.00  0.00    -0.267 OA
HETATM    5  C   UNL     1      44.198 -18.394   4.487  1.00  0.00     0.040 A 
HETATM    6  C   UNL     1      43.776 -17.772   3.309  1.00  0.00    -0.015 A 
HETATM    7  C   UNL     1      44.634 -19.705   4.530  1.00  0.00     0.017 A 
HETATM    8  C   UNL     1      44.636 -20.419   3.332  1.00  0.00     0.001 A 
HETATM    9  C   UNL     1      44.216 -19.810   2.135  1.00  0.00     0.001 A 
HETATM   10  C   UNL     1      43.790 -18.477   2.116  1.00  0.00     0.011 A 
ENDROOT
BRANCH   1  11
HETATM   11  C   UNL     1      42.023 -16.109   3.079  1.00  0.00     0.004 A 
HETATM   12  C   UNL     1      40.858 -16.640   3.627  1.00  0.00     0.015 A 
HETATM   13  C   UNL     1      40.647 -17.510   4.815  1.00  0.00     0.069 C 
HETATM   14  N   UNL     1      39.802 -16.236   2.853  1.00  0.00    -0.359 N 
HETATM   15  H   UNL     1      38.835 -16.485   3.010  1.00  0.00     0.166 HD
HETATM   16  C   UNL     1      40.232 -15.445   1.818  1.00  0.00     0.043 A 
HETATM   17  C   UNL     1      41.617 -15.333   1.933  1.00  0.00     0.001 A 
HETATM   18  C   UNL     1      39.497 -14.832   0.797  1.00  0.00     0.030 A 
HETATM   19  C   UNL     1      42.297 -14.553   0.971  1.00  0.00     0.014 A 
HETATM   20  C   UNL     1      41.579 -13.933  -0.059  1.00  0.00     0.001 A 
HETATM   21  C   UNL     1      40.198 -14.073  -0.144  1.00  0.00     0.002 A 
ENDBRANCH   1  11
BRANCH   2  22
HETATM   22  C   UNL     1      43.196 -15.093   5.821  1.00  0.00     0.229 C 
BRANCH  22  23
HETATM   23  C   UNL     1      43.165 -13.807   4.995  1.00  0.00     0.235 C 
HETATM   24  N   UNL     1      42.043 -13.020   5.176  1.00  0.00    -0.355 N 
HETATM   25  H   UNL     1      41.275 -13.441   5.696  1.00  0.00     0.162 HD
HETATM   26  O   UNL     1      44.019 -13.572   4.142  1.00  0.00    -0.272 OA
BRANCH  24  27
HETATM   27  C   UNL     1      41.739 -11.925   4.261  1.00  0.00     0.084 C 
HETATM   28  C   UNL     1      40.621 -12.318   3.283  1.00  0.00     0.025 C 
HETATM   29  C   UNL     1      39.241 -12.339   3.939  1.00  0.00     0.002 C 
HETATM   30  C   UNL     1      38.933 -11.018   4.636  1.00  0.00     0.000 C 
HETATM   31  C   UNL     1      40.009 -10.665   5.657  1.00  0.00     0.002 C 
HETATM   32  C   UNL     1      41.399 -10.641   5.026  1.00  0.00     0.025 C 
ENDBRANCH  24  27
ENDBRANCH  22  23
ENDBRANCH   2  22
TORSDOF 4
ENDMDL
MODEL 6
REMARK VINA RESULT:      -8.4      3.084      7.359
REMARK  4 active torsions:
REMARK  status: ('A' for Active; 'I' for Inactive)
REMARK    1  A    between atoms: C_7  and  C_8 
REMARK    2  A    between atoms: N_9  and  C_10 
REMARK    3  A    between atoms: C_10  and  C_11 
REMARK       I    between atoms: C_11  and  N_12 
REMARK    4  A    between atoms: N_12  and  C_13 
ROOT
HETATM    1  C   UNL     1      42.058 -12.465   5.039  1.00  0.00     0.158 C 
HETATM    2  N   UNL     1      41.681 -12.171   3.666  1.00  0.00    -0.326 N 
HETATM    3  C   UNL     1      40.977 -10.990   3.561  1.00  0.00     0.255 C 
HETATM    4  O   UNL     1      40.685 -10.394   2.542  1.00  0.00    -0.267 OA
HETATM    5  C   UNL     1      40.677 -10.548   4.930  1.00  0.00     0.040 A 
HETATM    6  C   UNL     1      41.288 -11.437   5.818  1.00  0.00    -0.015 A 
HETATM    7  C   UNL     1      39.920  -9.470   5.346  1.00  0.00     0.017 A 
HETATM    8  C   UNL     1      39.768  -9.286   6.721  1.00  0.00     0.001 A 
HETATM    9  C   UNL     1      40.376 -10.170   7.631  1.00  0.00     0.001 A 
HETATM   10  C   UNL     1      41.149 -11.248   7.184  1.00  0.00     0.011 A 
ENDROOT
BRANCH   1  11
HETATM   11  C   UNL     1      41.623 -13.820   5.506  1.00  0.00     0.004 A 
HETATM   12  C   UNL     1      40.302 -14.260   5.557  1.00  0.00     0.015 A 
HETATM   13  C   UNL     1      39.033 -13.583   5.173  1.00  0.00     0.069 C 
HETATM   14  N   UNL     1      40.295 -15.529   6.073  1.00  0.00    -0.359 N 
HETATM   15  H   UNL     1      39.469 -16.089   6.234  1.00  0.00     0.166 HD
HETATM   16  C   UNL     1      41.572 -15.946   6.352  1.00  0.00     0.043 A 
HETATM   17  C   UNL     1      42.432 -14.907   5.999  1.00  0.00     0.001 A 
HETATM   18  C   UNL     1      42.017 -17.160   6.891  1.00  0.00     0.030 A 
HETATM   19  C   UNL     1      43.817 -15.105   6.193  1.00  0.00     0.014 A 
HETATM   20  C   UNL     1      44.282 -16.311   6.732  1.00  0.00     0.001 A 
HETATM   21  C   UNL     1      43.392 -17.322   7.077  1.00  0.00     0.002 A 
ENDBRANCH   1  11
BRANCH   2  22
HETATM   22  C   UNL     1      42.172 -12.936   2.532  1.00  0.00     0.229 C 
BRANCH  22  23
HETATM   23  C   UNL     1      41.460 -14.271   2.312  1.00  0.00     0.235 C 
HETATM   24  N   UNL     1      42.254 -15.392   2.471  1.00  0.00    -0.355 N 
HETATM   25  H   UNL     1      43.256 -15.229   2.546  1.00  0.00     0.162 HD
HETATM   26  O   UNL     1      40.304 -14.321   1.897  1.00  0.00    -0.272 OA
BRANCH  24  27
HETATM   27  C   UNL     1      41.799 -16.704   2.023  1.00  0.00     0.084 C 
HETATM   28  C   UNL     1      42.591 -17.169   0.791  1.00  0.00     0.025 C 
HETATM   29  C   UNL     1      44.009 -17.624   1.136  1.00  0.00     0.002 C 
HETATM   30  C   UNL     1      44.004 -18.686   2.230  1.00  0.00     0.000 C 
HETATM   31  C   UNL     1      43.278 -18.195   3.477  1.00  0.00     0.002 C 
HETATM   32  C   UNL     1      41.859 -17.732   3.158  1.00  0.00     0.025 C 
ENDBRANCH  24  27
ENDBRANCH  22  23
ENDBRANCH   2  22
TORSDOF 4
ENDMDL
MODEL 7
REMARK VINA RESULT:      -8.3      4.195      7.140
REMARK  4 active torsions:
REMARK  status: ('A' for Active; 'I' for Inactive)
REMARK    1  A    between atoms: C_7  and  C_8 
REMARK    2  A    between atoms: N_9  and  C_10 
REMARK    3  A    between atoms: C_10  and  C_11 
REMARK       I    between atoms: C_11  and  N_12 
REMARK    4  A    between atoms: N_12  and  C_13 
ROOT
HETATM    1  C   UNL     1      40.098 -13.867   1.730  1.00  0.00     0.158 C 
HETATM    2  N   UNL     1      41.029 -12.850   2.190  1.00  0.00    -0.326 N 
HETATM    3  C   UNL     1      40.415 -11.631   2.383  1.00  0.00     0.255 C 
HETATM    4  O   UNL     1      40.882 -10.648   2.926  1.00  0.00    -0.267 OA
HETATM    5  C   UNL     1      39.053 -11.748   1.846  1.00  0.00     0.040 A 
HETATM    6  C   UNL     1      38.864 -13.067   1.423  1.00  0.00    -0.015 A 
HETATM    7  C   UNL     1      38.080 -10.774   1.728  1.00  0.00     0.017 A 
HETATM    8  C   UNL     1      36.866 -11.147   1.151  1.00  0.00     0.001 A 
HETATM    9  C   UNL     1      36.656 -12.470   0.721  1.00  0.00     0.001 A 
HETATM   10  C   UNL     1      37.653 -13.442   0.863  1.00  0.00     0.011 A 
ENDROOT
BRANCH   1  11
HETATM   11  C   UNL     1      40.529 -14.551   0.468  1.00  0.00     0.004 A 
HETATM   12  C   UNL     1      40.906 -15.890   0.376  1.00  0.00     0.015 A 
HETATM   13  C   UNL     1      40.967 -16.959   1.409  1.00  0.00     0.069 C 
HETATM   14  N   UNL     1      41.270 -16.141  -0.920  1.00  0.00    -0.359 N 
HETATM   15  H   UNL     1      41.600 -17.029  -1.271  1.00  0.00     0.166 HD
HETATM   16  C   UNL     1      41.134 -15.014  -1.690  1.00  0.00     0.043 A 
HETATM   17  C   UNL     1      40.660 -14.000  -0.857  1.00  0.00     0.001 A 
HETATM   18  C   UNL     1      41.398 -14.824  -3.052  1.00  0.00     0.030 A 
HETATM   19  C   UNL     1      40.434 -12.729  -1.431  1.00  0.00     0.014 A 
HETATM   20  C   UNL     1      40.695 -12.520  -2.791  1.00  0.00     0.001 A 
HETATM   21  C   UNL     1      41.172 -13.555  -3.588  1.00  0.00     0.002 A 
ENDBRANCH   1  11
BRANCH   2  22
HETATM   22  C   UNL     1      42.394 -13.153   2.588  1.00  0.00     0.229 C 
BRANCH  22  23
HETATM   23  C   UNL     1      42.548 -13.581   4.047  1.00  0.00     0.235 C 
HETATM   24  N   UNL     1      42.674 -14.943   4.249  1.00  0.00    -0.355 N 
HETATM   25  H   UNL     1      42.480 -15.538   3.445  1.00  0.00     0.162 HD
HETATM   26  O   UNL     1      42.434 -12.775   4.969  1.00  0.00    -0.272 OA
BRANCH  24  27
HETATM   27  C   UNL     1      42.543 -15.520   5.582  1.00  0.00     0.084 C 
HETATM   28  C   UNL     1      41.260 -16.357   5.697  1.00  0.00     0.025 C 
HETATM   29  C   UNL     1      41.362 -17.700   4.974  1.00  0.00     0.002 C 
HETATM   30  C   UNL     1      42.585 -18.488   5.430  1.00  0.00     0.000 C 
HETATM   31  C   UNL     1      43.865 -17.681   5.250  1.00  0.00     0.002 C 
HETATM   32  C   UNL     1      43.786 -16.333   5.961  1.00  0.00     0.025 C 
ENDBRANCH  24  27
ENDBRANCH  22  23
ENDBRANCH   2  22
TORSDOF 4
ENDMDL
MODEL 8
REMARK VINA RESULT:      -8.3      4.253      7.642
REMARK  4 active torsions:
REMARK  status: ('A' for Active; 'I' for Inactive)
REMARK    1  A    between atoms: C_7  and  C_8 
REMARK    2  A    between atoms: N_9  and  C_10 
REMARK    3  A    between atoms: C_10  and  C_11 
REMARK       I    between atoms: C_11  and  N_12 
REMARK    4  A    between atoms: N_12  and  C_13 
ROOT
HETATM    1  C   UNL     1      39.160 -14.120   1.869  1.00  0.00     0.158 C 
HETATM    2  N   UNL     1      39.917 -15.161   2.546  1.00  0.00    -0.326 N 
HETATM    3  C   UNL     1      40.152 -14.855   3.870  1.00  0.00     0.255 C 
HETATM    4  O   UNL     1      40.595 -15.593   4.729  1.00  0.00    -0.267 OA
HETATM    5  C   UNL     1      39.722 -13.465   4.071  1.00  0.00     0.040 A 
HETATM    6  C   UNL     1      39.160 -13.006   2.877  1.00  0.00    -0.015 A 
HETATM    7  C   UNL     1      39.836 -12.677   5.201  1.00  0.00     0.017 A 
HETATM    8  C   UNL     1      39.366 -11.367   5.117  1.00  0.00     0.001 A 
HETATM    9  C   UNL     1      38.795 -10.886   3.925  1.00  0.00     0.001 A 
HETATM   10  C   UNL     1      38.681 -11.708   2.797  1.00  0.00     0.011 A 
ENDROOT
BRANCH   1  11
HETATM   11  C   UNL     1      39.816 -13.614   0.621  1.00  0.00     0.004 A 
HETATM   12  C   UNL     1      41.101 -13.080   0.556  1.00  0.00     0.015 A 
HETATM   13  C   UNL     1      42.132 -12.888   1.611  1.00  0.00     0.069 C 
HETATM   14  N   UNL     1      41.335 -12.691  -0.737  1.00  0.00    -0.359 N 
HETATM   15  H   UNL     1      42.185 -12.258  -1.071  1.00  0.00     0.166 HD
HETATM   16  C   UNL     1      40.249 -12.964  -1.530  1.00  0.00     0.043 A 
HETATM   17  C   UNL     1      39.282 -13.553  -0.717  1.00  0.00     0.001 A 
HETATM   18  C   UNL     1      40.060 -12.727  -2.897  1.00  0.00     0.030 A 
HETATM   19  C   UNL     1      38.060 -13.932  -1.317  1.00  0.00     0.014 A 
HETATM   20  C   UNL     1      37.851 -13.702  -2.682  1.00  0.00     0.001 A 
HETATM   21  C   UNL     1      38.839 -13.106  -3.460  1.00  0.00     0.002 A 
ENDBRANCH   1  11
BRANCH   2  22
HETATM   22  C   UNL     1      40.202 -16.449   1.939  1.00  0.00     0.229 C 
BRANCH  22  23
HETATM   23  C   UNL     1      41.691 -16.757   1.776  1.00  0.00     0.235 C 
HETATM   24  N   UNL     1      42.251 -17.500   2.799  1.00  0.00    -0.355 N 
HETATM   25  H   UNL     1      41.681 -17.622   3.634  1.00  0.00     0.162 HD
HETATM   26  O   UNL     1      42.353 -16.263   0.866  1.00  0.00    -0.272 OA
BRANCH  24  27
HETATM   27  C   UNL     1      43.699 -17.628   2.928  1.00  0.00     0.084 C 
HETATM   28  C   UNL     1      44.103 -17.864   4.392  1.00  0.00     0.025 C 
HETATM   29  C   UNL     1      43.794 -19.282   4.870  1.00  0.00     0.002 C 
HETATM   30  C   UNL     1      44.409 -20.329   3.946  1.00  0.00     0.000 C 
HETATM   31  C   UNL     1      43.950 -20.135   2.505  1.00  0.00     0.002 C 
HETATM   32  C   UNL     1      44.245 -18.723   2.006  1.00  0.00     0.025 C 
ENDBRANCH  24  27
ENDBRANCH  22  23
ENDBRANCH   2  22
TORSDOF 4
ENDMDL
MODEL 9
REMARK VINA RESULT:      -8.3      3.810      7.217
REMARK  4 active torsions:
REMARK  status: ('A' for Active; 'I' for Inactive)
REMARK    1  A    between atoms: C_7  and  C_8 
REMARK    2  A    between atoms: N_9  and  C_10 
REMARK    3  A    between atoms: C_10  and  C_11 
REMARK       I    between atoms: C_11  and  N_12 
REMARK    4  A    between atoms: N_12  and  C_13 
ROOT
HETATM    1  C   UNL     1      41.989 -16.383   3.680  1.00  0.00     0.158 C 
HETATM    2  N   UNL     1      42.851 -16.251   2.518  1.00  0.00    -0.326 N 
HETATM    3  C   UNL     1      43.762 -17.282   2.426  1.00  0.00     0.255 C 
HETATM    4  O   UNL     1      44.486 -17.545   1.484  1.00  0.00    -0.267 OA
HETATM    5  C   UNL     1      43.666 -18.050   3.674  1.00  0.00     0.040 A 
HETATM    6  C   UNL     1      42.636 -17.503   4.444  1.00  0.00    -0.015 A 
HETATM    7  C   UNL     1      44.433 -19.120   4.095  1.00  0.00     0.017 A 
HETATM    8  C   UNL     1      44.149 -19.656   5.352  1.00  0.00     0.001 A 
HETATM    9  C   UNL     1      43.115 -19.121   6.141  1.00  0.00     0.001 A 
HETATM   10  C   UNL     1      42.345 -18.043   5.687  1.00  0.00     0.011 A 
ENDROOT
BRANCH   1  11
HETATM   11  C   UNL     1      41.975 -15.171   4.560  1.00  0.00     0.004 A 
HETATM   12  C   UNL     1      40.967 -14.210   4.579  1.00  0.00     0.015 A 
HETATM   13  C   UNL     1      39.695 -14.116   3.812  1.00  0.00     0.069 C 
HETATM   14  N   UNL     1      41.322 -13.237   5.476  1.00  0.00    -0.359 N 
HETATM   15  H   UNL     1      40.780 -12.409   5.684  1.00  0.00     0.166 HD
HETATM   16  C   UNL     1      42.527 -13.533   6.061  1.00  0.00     0.043 A 
HETATM   17  C   UNL     1      42.962 -14.743   5.521  1.00  0.00     0.001 A 
HETATM   18  C   UNL     1      43.255 -12.816   7.018  1.00  0.00     0.030 A 
HETATM   19  C   UNL     1      44.193 -15.262   5.977  1.00  0.00     0.014 A 
HETATM   20  C   UNL     1      44.937 -14.559   6.933  1.00  0.00     0.001 A 
HETATM   21  C   UNL     1      44.473 -13.351   7.444  1.00  0.00     0.002 A 
ENDBRANCH   1  11
BRANCH   2  22
HETATM   22  C   UNL     1      42.629 -15.258   1.480  1.00  0.00     0.229 C 
BRANCH  22  23
HETATM   23  C   UNL     1      41.793 -15.752   0.299  1.00  0.00     0.235 C 
HETATM   24  N   UNL     1      41.608 -14.830  -0.715  1.00  0.00    -0.355 N 
HETATM   25  H   UNL     1      41.889 -13.872  -0.511  1.00  0.00     0.162 HD
HETATM   26  O   UNL     1      41.225 -16.842   0.325  1.00  0.00    -0.272 OA
BRANCH  24  27
HETATM   27  C   UNL     1      40.612 -15.050  -1.758  1.00  0.00     0.084 C 
HETATM   28  C   UNL     1      39.406 -14.116  -1.573  1.00  0.00     0.025 C 
HETATM   29  C   UNL     1      39.708 -12.672  -1.972  1.00  0.00     0.002 C 
HETATM   30  C   UNL     1      40.266 -12.589  -3.389  1.00  0.00     0.000 C 
HETATM   31  C   UNL     1      41.505 -13.463  -3.550  1.00  0.00     0.002 C 
HETATM   32  C   UNL     1      41.229 -14.911  -3.154  1.00  0.00     0.025 C 
ENDBRANCH  24  27
ENDBRANCH  22  23
ENDBRANCH   2  22
TORSDOF 4
ENDMDL
MODEL 10
REMARK VINA RESULT:      -8.2      5.161      7.776
REMARK  4 active torsions:
REMARK  status: ('A' for Active; 'I' for Inactive)
REMARK    1  A    between atoms: C_7  and  C_8 
REMARK    2  A    between atoms: N_9  and  C_10 
REMARK    3  A    between atoms: C_10  and  C_11 
REMARK       I    between atoms: C_11  and  N_12 
REMARK    4  A    between atoms: N_12  and  C_13 
ROOT
HETATM    1  C   UNL     1      39.928 -14.312  -0.325  1.00  0.00     0.158 C 
HETATM    2  N   UNL     1      40.726 -14.298   0.890  1.00  0.00    -0.326 N 
HETATM    3  C   UNL     1      40.115 -13.595   1.906  1.00  0.00     0.255 C 
HETATM    4  O   UNL     1      40.443 -13.556   3.077  1.00  0.00    -0.267 OA
HETATM    5  C   UNL     1      38.946 -12.925   1.320  1.00  0.00     0.040 A 
HETATM    6  C   UNL     1      38.844 -13.318  -0.017  1.00  0.00    -0.015 A 
HETATM    7  C   UNL     1      38.068 -12.037   1.912  1.00  0.00     0.017 A 
HETATM    8  C   UNL     1      37.046 -11.520   1.116  1.00  0.00     0.001 A 
HETATM    9  C   UNL     1      36.925 -11.904  -0.232  1.00  0.00     0.001 A 
HETATM   10  C   UNL     1      37.821 -12.814  -0.805  1.00  0.00     0.011 A 
ENDROOT
BRANCH   1  11
HETATM   11  C   UNL     1      40.666 -13.829  -1.536  1.00  0.00     0.004 A 
HETATM   12  C   UNL     1      40.858 -14.569  -2.701  1.00  0.00     0.015 A 
HETATM   13  C   UNL     1      40.407 -15.938  -3.072  1.00  0.00     0.069 C 
HETATM   14  N   UNL     1      41.609 -13.816  -3.565  1.00  0.00    -0.359 N 
HETATM   15  H   UNL     1      41.910 -14.110  -4.484  1.00  0.00     0.166 HD
HETATM   16  C   UNL     1      41.907 -12.597  -3.012  1.00  0.00     0.043 A 
HETATM   17  C   UNL     1      41.324 -12.563  -1.746  1.00  0.00     0.001 A 
HETATM   18  C   UNL     1      42.650 -11.534  -3.542  1.00  0.00     0.030 A 
HETATM   19  C   UNL     1      41.492 -11.392  -0.975  1.00  0.00     0.014 A 
HETATM   20  C   UNL     1      42.233 -10.319  -1.487  1.00  0.00     0.001 A 
HETATM   21  C   UNL     1      42.805 -10.392  -2.752  1.00  0.00     0.002 A 
ENDBRANCH   1  11
BRANCH   2  22
HETATM   22  C   UNL     1      41.923 -15.105   1.056  1.00  0.00     0.229 C 
BRANCH  22  23
HETATM   23  C   UNL     1      41.719 -16.380   1.873  1.00  0.00     0.235 C 
HETATM   24  N   UNL     1      42.180 -16.322   3.176  1.00  0.00    -0.355 N 
HETATM   25  H   UNL     1      42.757 -15.518   3.415  1.00  0.00     0.162 HD
HETATM   26  O   UNL     1      41.296 -17.413   1.358  1.00  0.00    -0.272 OA
BRANCH  24  27
HETATM   27  C   UNL     1      42.314 -17.532   3.980  1.00  0.00     0.084 C 
HETATM   28  C   UNL     1      43.643 -17.537   4.750  1.00  0.00     0.025 C 
HETATM   29  C   UNL     1      43.641 -16.579   5.941  1.00  0.00     0.002 C 
HETATM   30  C   UNL     1      42.458 -16.841   6.867  1.00  0.00     0.000 C 
HETATM   31  C   UNL     1      41.135 -16.767   6.113  1.00  0.00     0.002 C 
HETATM   32  C   UNL     1      41.114 -17.713   4.916  1.00  0.00     0.025 C 
ENDBRANCH  24  27
ENDBRANCH  22  23
ENDBRANCH   2  22
TORSDOF 4
ENDMDL
