MODEL 1
REMARK VINA RESULT:      -8.2      0.000      0.000
REMARK  4 active torsions:
REMARK  status: ('A' for Active; 'I' for Inactive)
REMARK    1  A    between atoms: C_4  and  C_5 
REMARK       I    between atoms: C_5  and  N_6 
REMARK    2  A    between atoms: N_6  and  C_7 
REMARK    3  A    between atoms: C_20  and  C_21 
REMARK    4  A    between atoms: C_24  and  O_25 
ROOT
HETATM    1  C   UNL     1      42.039 -14.005   0.737  1.00  0.00     0.263 C 
HETATM    2  N   UNL     1      41.713 -14.296  -0.579  1.00  0.00    -0.323 N 
HETATM    3  O   UNL     1      42.367 -12.886   1.125  1.00  0.00    -0.267 OA
HETATM    4  H   UNL     1      41.602 -15.284  -0.784  1.00  0.00     0.169 HD
ENDROOT
BRANCH   1   5
HETATM    5  C   UNL     1      41.985 -15.146   1.646  1.00  0.00     0.074 A 
HETATM    6  S   UNL     1      40.978 -15.164   3.027  1.00  0.00    -0.089 SA
HETATM    7  C   UNL     1      41.594 -16.671   3.565  1.00  0.00    -0.009 A 
HETATM    8  C   UNL     1      41.129 -17.205   4.883  1.00  0.00     0.057 C 
HETATM    9  C   UNL     1      42.491 -17.210   2.654  1.00  0.00    -0.012 A 
HETATM   10  C   UNL     1      42.730 -16.307   1.566  1.00  0.00     0.038 A 
BRANCH   9  11
HETATM   11  C   UNL     1      43.151 -18.498   2.853  1.00  0.00    -0.025 A 
HETATM   12  C   UNL     1      43.931 -18.714   3.994  1.00  0.00     0.015 A 
HETATM   13  C   UNL     1      44.558 -19.948   4.196  1.00  0.00     0.037 A 
HETATM   14  C   UNL     1      44.410 -20.982   3.270  1.00  0.00     0.068 A 
HETATM   15  C   UNL     1      43.656 -20.763   2.118  1.00  0.00     0.037 A 
HETATM   16  C   UNL     1      43.037 -19.525   1.907  1.00  0.00     0.015 A 
BRANCH  14  17
HETATM   17  O   UNL     1      45.058 -22.141   3.597  1.00  0.00    -0.356 OA
HETATM   18  C   UNL     1      45.138 -22.459   4.982  1.00  0.00     0.210 C 
ENDBRANCH  14  17
ENDBRANCH   9  11
ENDBRANCH   1   5
BRANCH   2  19
HETATM   19  C   UNL     1      41.529 -13.396  -1.646  1.00  0.00     0.035 A 
HETATM   20  C   UNL     1      40.272 -12.969  -2.082  1.00  0.00     0.039 A 
HETATM   21  C   UNL     1      40.197 -12.125  -3.180  1.00  0.00    -0.022 A 
HETATM   22  C   UNL     1      41.347 -11.682  -3.838  1.00  0.00    -0.025 A 
HETATM   23  C   UNL     1      38.976 -11.556  -3.820  1.00  0.00     0.274 C 
HETATM   24  C   UNL     1      40.980 -10.773  -4.962  1.00  0.00     0.273 C 
HETATM   25  C   UNL     1      42.602 -12.079  -3.412  1.00  0.00     0.012 A 
HETATM   26  N   UNL     1      39.483 -10.988  -5.140  1.00  0.00    -0.067 N 
HETATM   27  H   UNL     1      39.391 -11.751  -5.821  1.00  0.00     0.280 HD
HETATM   28  C   UNL     1      38.732  -9.810  -5.641  1.00  0.00     0.270 C 
HETATM   29  C   UNL     1      42.684 -12.950  -2.319  1.00  0.00     0.030 A 
ENDBRANCH   2  19
TORSDOF 4
ENDMDL
MODEL 2
REMARK VINA RESULT:      -8.1      7.112     10.212
REMARK  4 active torsions:
REMARK  status: ('A' for Active; 'I' for Inactive)
REMARK    1  A    between atoms: C_4  and  C_5 
REMARK       I    between atoms: C_5  and  N_6 
REMARK    2  A    between atoms: N_6  and  C_7 
REMARK    3  A    between atoms: C_20  and  C_21 
REMARK    4  A    between atoms: C_24  and  O_25 
ROOT
HETATM    1  C   UNL     1      43.967 -13.182   7.621  1.00  0.00     0.263 C 
HETATM    2  N   UNL     1      43.238 -12.096   8.083  1.00  0.00    -0.323 N 
HETATM    3  O   UNL     1      44.938 -13.650   8.212  1.00  0.00    -0.267 OA
HETATM    4  H   UNL     1      42.556 -11.729   7.427  1.00  0.00     0.169 HD
ENDROOT
BRANCH   1   5
HETATM    5  C   UNL     1      43.505 -13.731   6.349  1.00  0.00     0.074 A 
HETATM    6  S   UNL     1      42.380 -12.910   5.359  1.00  0.00    -0.089 SA
HETATM    7  C   UNL     1      42.281 -14.210   4.245  1.00  0.00    -0.009 A 
HETATM    8  C   UNL     1      41.301 -14.114   3.118  1.00  0.00     0.057 C 
HETATM    9  C   UNL     1      43.168 -15.227   4.566  1.00  0.00    -0.012 A 
HETATM   10  C   UNL     1      43.847 -14.950   5.799  1.00  0.00     0.038 A 
BRANCH   9  11
HETATM   11  C   UNL     1      43.306 -16.444   3.771  1.00  0.00    -0.025 A 
HETATM   12  C   UNL     1      42.988 -17.685   4.334  1.00  0.00     0.015 A 
HETATM   13  C   UNL     1      43.108 -18.854   3.577  1.00  0.00     0.037 A 
HETATM   14  C   UNL     1      43.538 -18.803   2.250  1.00  0.00     0.068 A 
HETATM   15  C   UNL     1      43.882 -17.572   1.692  1.00  0.00     0.037 A 
HETATM   16  C   UNL     1      43.774 -16.400   2.452  1.00  0.00     0.015 A 
BRANCH  14  17
HETATM   17  O   UNL     1      43.592 -20.013   1.617  1.00  0.00    -0.356 OA
HETATM   18  C   UNL     1      44.200 -21.082   2.333  1.00  0.00     0.210 C 
ENDBRANCH  14  17
ENDBRANCH   9  11
ENDBRANCH   1   5
BRANCH   2  19
HETATM   19  C   UNL     1      43.339 -11.451   9.330  1.00  0.00     0.035 A 
HETATM   20  C   UNL     1      42.232 -10.981  10.043  1.00  0.00     0.039 A 
HETATM   21  C   UNL     1      42.444 -10.306  11.236  1.00  0.00    -0.022 A 
HETATM   22  C   UNL     1      43.732 -10.111  11.744  1.00  0.00    -0.025 A 
HETATM   23  C   UNL     1      41.426  -9.714  12.150  1.00  0.00     0.274 C 
HETATM   24  C   UNL     1      43.667  -9.383  13.044  1.00  0.00     0.273 C 
HETATM   25  C   UNL     1      44.839 -10.584  11.063  1.00  0.00     0.012 A 
HETATM   26  N   UNL     1      42.244  -8.847  13.100  1.00  0.00    -0.067 N 
HETATM   27  H   UNL     1      42.278  -7.918  12.663  1.00  0.00     0.280 HD
HETATM   28  C   UNL     1      41.676  -8.709  14.464  1.00  0.00     0.270 C 
HETATM   29  C   UNL     1      44.634 -11.245   9.845  1.00  0.00     0.030 A 
ENDBRANCH   2  19
TORSDOF 4
ENDMDL
MODEL 3
REMARK VINA RESULT:      -8.0      2.255      2.761
REMARK  4 active torsions:
REMARK  status: ('A' for Active; 'I' for Inactive)
REMARK    1  A    between atoms: C_4  and  C_5 
REMARK       I    between atoms: C_5  and  N_6 
REMARK    2  A    between atoms: N_6  and  C_7 
REMARK    3  A    between atoms: C_20  and  C_21 
REMARK    4  A    between atoms: C_24  and  O_25 
ROOT
HETATM    1  C   UNL     1      40.773 -15.247  -0.747  1.00  0.00     0.263 C 
HETATM    2  N   UNL     1      39.641 -14.463  -0.577  1.00  0.00    -0.323 N 
HETATM    3  O   UNL     1      41.177 -15.631  -1.843  1.00  0.00    -0.267 OA
HETATM    4  H   UNL     1      39.345 -14.343   0.386  1.00  0.00     0.169 HD
ENDROOT
BRANCH   1   5
HETATM    5  C   UNL     1      41.455 -15.610   0.492  1.00  0.00     0.074 A 
HETATM    6  S   UNL     1      41.789 -14.465   1.716  1.00  0.00    -0.089 SA
HETATM    7  C   UNL     1      42.668 -15.598   2.657  1.00  0.00    -0.009 A 
HETATM    8  C   UNL     1      43.346 -15.121   3.903  1.00  0.00     0.057 C 
HETATM    9  C   UNL     1      42.630 -16.866   2.096  1.00  0.00    -0.012 A 
HETATM   10  C   UNL     1      41.951 -16.852   0.833  1.00  0.00     0.038 A 
BRANCH   9  11
HETATM   11  C   UNL     1      43.279 -18.025   2.703  1.00  0.00    -0.025 A 
HETATM   12  C   UNL     1      43.467 -18.076   4.088  1.00  0.00     0.015 A 
HETATM   13  C   UNL     1      44.079 -19.186   4.677  1.00  0.00     0.037 A 
HETATM   14  C   UNL     1      44.504 -20.262   3.896  1.00  0.00     0.068 A 
HETATM   15  C   UNL     1      44.344 -20.206   2.512  1.00  0.00     0.037 A 
HETATM   16  C   UNL     1      43.742 -19.090   1.918  1.00  0.00     0.015 A 
BRANCH  14  17
HETATM   17  O   UNL     1      45.067 -21.292   4.597  1.00  0.00    -0.356 OA
HETATM   18  C   UNL     1      44.667 -22.607   4.232  1.00  0.00     0.210 C 
ENDBRANCH  14  17
ENDBRANCH   9  11
ENDBRANCH   1   5
BRANCH   2  19
HETATM   19  C   UNL     1      38.865 -13.835  -1.570  1.00  0.00     0.035 A 
HETATM   20  C   UNL     1      38.056 -14.536  -2.469  1.00  0.00     0.039 A 
HETATM   21  C   UNL     1      37.376 -13.828  -3.448  1.00  0.00    -0.022 A 
HETATM   22  C   UNL     1      37.467 -12.435  -3.536  1.00  0.00    -0.025 A 
HETATM   23  C   UNL     1      36.473 -14.360  -4.509  1.00  0.00     0.274 C 
HETATM   24  C   UNL     1      36.621 -11.934  -4.657  1.00  0.00     0.273 C 
HETATM   25  C   UNL     1      38.248 -11.721  -2.645  1.00  0.00     0.012 A 
HETATM   26  N   UNL     1      36.287 -13.184  -5.459  1.00  0.00    -0.067 N 
HETATM   27  H   UNL     1      37.035 -13.274  -6.158  1.00  0.00     0.280 HD
HETATM   28  C   UNL     1      34.981 -13.151  -6.163  1.00  0.00     0.270 C 
HETATM   29  C   UNL     1      38.957 -12.433  -1.669  1.00  0.00     0.030 A 
ENDBRANCH   2  19
TORSDOF 4
ENDMDL
MODEL 4
REMARK VINA RESULT:      -7.9      5.643     10.247
REMARK  4 active torsions:
REMARK  status: ('A' for Active; 'I' for Inactive)
REMARK    1  A    between atoms: C_4  and  C_5 
REMARK       I    between atoms: C_5  and  N_6 
REMARK    2  A    between atoms: N_6  and  C_7 
REMARK    3  A    between atoms: C_20  and  C_21 
REMARK    4  A    between atoms: C_24  and  O_25 
ROOT
HETATM    1  C   UNL     1      41.498 -14.939   3.968  1.00  0.00     0.263 C 
HETATM    2  N   UNL     1      42.772 -15.459   4.145  1.00  0.00    -0.323 N 
HETATM    3  O   UNL     1      40.599 -15.531   3.375  1.00  0.00    -0.267 OA
HETATM    4  H   UNL     1      43.451 -14.806   4.524  1.00  0.00     0.169 HD
ENDROOT
BRANCH   1   5
HETATM    5  C   UNL     1      41.300 -13.605   4.527  1.00  0.00     0.074 A 
HETATM    6  S   UNL     1      41.220 -12.209   3.544  1.00  0.00    -0.089 SA
HETATM    7  C   UNL     1      41.139 -11.156   4.896  1.00  0.00    -0.009 A 
HETATM    8  C   UNL     1      41.152  -9.679   4.654  1.00  0.00     0.057 C 
HETATM    9  C   UNL     1      41.077 -11.861   6.089  1.00  0.00    -0.012 A 
HETATM   10  C   UNL     1      41.200 -13.272   5.863  1.00  0.00     0.038 A 
BRANCH   9  11
HETATM   11  C   UNL     1      40.981 -11.211   7.394  1.00  0.00    -0.025 A 
HETATM   12  C   UNL     1      39.744 -11.121   8.040  1.00  0.00     0.015 A 
HETATM   13  C   UNL     1      39.646 -10.510   9.293  1.00  0.00     0.037 A 
HETATM   14  C   UNL     1      40.777  -9.988   9.922  1.00  0.00     0.068 A 
HETATM   15  C   UNL     1      42.009 -10.051   9.271  1.00  0.00     0.037 A 
HETATM   16  C   UNL     1      42.108 -10.652   8.010  1.00  0.00     0.015 A 
BRANCH  14  17
HETATM   17  O   UNL     1      40.547  -9.436  11.152  1.00  0.00    -0.356 OA
HETATM   18  C   UNL     1      39.841 -10.239  12.090  1.00  0.00     0.210 C 
ENDBRANCH  14  17
ENDBRANCH   9  11
ENDBRANCH   1   5
BRANCH   2  19
HETATM   19  C   UNL     1      43.225 -16.760   3.858  1.00  0.00     0.035 A 
HETATM   20  C   UNL     1      43.461 -17.726   4.841  1.00  0.00     0.039 A 
HETATM   21  C   UNL     1      43.962 -18.960   4.457  1.00  0.00    -0.022 A 
HETATM   22  C   UNL     1      44.212 -19.261   3.115  1.00  0.00    -0.025 A 
HETATM   23  C   UNL     1      44.296 -20.126   5.325  1.00  0.00     0.274 C 
HETATM   24  C   UNL     1      44.722 -20.657   2.986  1.00  0.00     0.273 C 
HETATM   25  C   UNL     1      43.969 -18.326   2.125  1.00  0.00     0.012 A 
HETATM   26  N   UNL     1      45.089 -21.052   4.410  1.00  0.00    -0.067 N 
HETATM   27  H   UNL     1      46.072 -20.780   4.529  1.00  0.00     0.280 HD
HETATM   28  C   UNL     1      44.955 -22.497   4.717  1.00  0.00     0.270 C 
HETATM   29  C   UNL     1      43.486 -17.068   2.508  1.00  0.00     0.030 A 
ENDBRANCH   2  19
TORSDOF 4
ENDMDL
MODEL 5
REMARK VINA RESULT:      -7.9      7.188     11.257
REMARK  4 active torsions:
REMARK  status: ('A' for Active; 'I' for Inactive)
REMARK    1  A    between atoms: C_4  and  C_5 
REMARK       I    between atoms: C_5  and  N_6 
REMARK    2  A    between atoms: N_6  and  C_7 
REMARK    3  A    between atoms: C_20  and  C_21 
REMARK    4  A    between atoms: C_24  and  O_25 
ROOT
HETATM    1  C   UNL     1      44.819 -13.705   7.358  1.00  0.00     0.263 C 
HETATM    2  N   UNL     1      44.038 -14.851   7.396  1.00  0.00    -0.323 N 
HETATM    3  O   UNL     1      45.819 -13.586   6.653  1.00  0.00    -0.267 OA
HETATM    4  H   UNL     1      43.333 -14.863   8.125  1.00  0.00     0.169 HD
ENDROOT
BRANCH   1   5
HETATM    5  C   UNL     1      44.374 -12.635   8.245  1.00  0.00     0.074 A 
HETATM    6  S   UNL     1      45.339 -12.063   9.536  1.00  0.00    -0.089 SA
HETATM    7  C   UNL     1      44.107 -11.015  10.106  1.00  0.00    -0.009 A 
HETATM    8  C   UNL     1      44.345 -10.256  11.374  1.00  0.00     0.057 C 
HETATM    9  C   UNL     1      43.001 -11.023   9.270  1.00  0.00    -0.012 A 
HETATM   10  C   UNL     1      43.157 -11.984   8.216  1.00  0.00     0.038 A 
BRANCH   9  11
HETATM   11  C   UNL     1      41.815 -10.205   9.509  1.00  0.00    -0.025 A 
HETATM   12  C   UNL     1      40.900 -10.575  10.500  1.00  0.00     0.015 A 
HETATM   13  C   UNL     1      39.767  -9.792  10.742  1.00  0.00     0.037 A 
HETATM   14  C   UNL     1      39.535  -8.629  10.006  1.00  0.00     0.068 A 
HETATM   15  C   UNL     1      40.429  -8.270   8.999  1.00  0.00     0.037 A 
HETATM   16  C   UNL     1      41.558  -9.059   8.746  1.00  0.00     0.015 A 
BRANCH  14  17
HETATM   17  O   UNL     1      38.403  -7.946  10.356  1.00  0.00    -0.356 OA
HETATM   18  C   UNL     1      37.611  -8.511  11.393  1.00  0.00     0.210 C 
ENDBRANCH  14  17
ENDBRANCH   9  11
ENDBRANCH   1   5
BRANCH   2  19
HETATM   19  C   UNL     1      44.118 -15.982   6.562  1.00  0.00     0.035 A 
HETATM   20  C   UNL     1      43.442 -16.085   5.342  1.00  0.00     0.039 A 
HETATM   21  C   UNL     1      43.539 -17.266   4.622  1.00  0.00    -0.022 A 
HETATM   22  C   UNL     1      44.313 -18.336   5.079  1.00  0.00    -0.025 A 
HETATM   23  C   UNL     1      42.903 -17.601   3.315  1.00  0.00     0.274 C 
HETATM   24  C   UNL     1      44.260 -19.464   4.104  1.00  0.00     0.273 C 
HETATM   25  C   UNL     1      45.004 -18.249   6.274  1.00  0.00     0.012 A 
HETATM   26  N   UNL     1      43.100 -19.107   3.185  1.00  0.00    -0.067 N 
HETATM   27  H   UNL     1      42.267 -19.530   3.612  1.00  0.00     0.280 HD
HETATM   28  C   UNL     1      43.224 -19.601   1.792  1.00  0.00     0.270 C 
HETATM   29  C   UNL     1      44.890 -17.068   7.019  1.00  0.00     0.030 A 
ENDBRANCH   2  19
TORSDOF 4
ENDMDL
MODEL 6
REMARK VINA RESULT:      -7.7      2.935     10.368
REMARK  4 active torsions:
REMARK  status: ('A' for Active; 'I' for Inactive)
REMARK    1  A    between atoms: C_4  and  C_5 
REMARK       I    between atoms: C_5  and  N_6 
REMARK    2  A    between atoms: N_6  and  C_7 
REMARK    3  A    between atoms: C_20  and  C_21 
REMARK    4  A    between atoms: C_24  and  O_25 
ROOT
HETATM    1  C   UNL     1      41.886 -15.856   1.106  1.00  0.00     0.263 C 
HETATM    2  N   UNL     1      43.086 -16.184   1.720  1.00  0.00    -0.323 N 
HETATM    3  O   UNL     1      40.927 -16.622   1.035  1.00  0.00    -0.267 OA
HETATM    4  H   UNL     1      43.835 -15.514   1.578  1.00  0.00     0.169 HD
ENDROOT
BRANCH   1   5
HETATM    5  C   UNL     1      41.846 -14.520   0.519  1.00  0.00     0.074 A 
HETATM    6  S   UNL     1      41.979 -13.105   1.468  1.00  0.00    -0.089 SA
HETATM    7  C   UNL     1      41.699 -12.074   0.126  1.00  0.00    -0.009 A 
HETATM    8  C   UNL     1      41.593 -10.600   0.365  1.00  0.00     0.057 C 
HETATM    9  C   UNL     1      41.600 -12.791  -1.057  1.00  0.00    -0.012 A 
HETATM   10  C   UNL     1      41.657 -14.203  -0.812  1.00  0.00     0.038 A 
BRANCH   9  11
HETATM   11  C   UNL     1      41.382 -12.160  -2.356  1.00  0.00    -0.025 A 
HETATM   12  C   UNL     1      40.080 -11.952  -2.822  1.00  0.00     0.015 A 
HETATM   13  C   UNL     1      39.863 -11.339  -4.060  1.00  0.00     0.037 A 
HETATM   14  C   UNL     1      40.939 -10.920  -4.845  1.00  0.00     0.068 A 
HETATM   15  C   UNL     1      42.239 -11.149  -4.398  1.00  0.00     0.037 A 
HETATM   16  C   UNL     1      42.459 -11.773  -3.164  1.00  0.00     0.015 A 
BRANCH  14  17
HETATM   17  O   UNL     1      40.589 -10.317  -6.022  1.00  0.00    -0.356 OA
HETATM   18  C   UNL     1      41.638  -9.704  -6.761  1.00  0.00     0.210 C 
ENDBRANCH  14  17
ENDBRANCH   9  11
ENDBRANCH   1   5
BRANCH   2  19
HETATM   19  C   UNL     1      43.381 -17.321   2.495  1.00  0.00     0.035 A 
HETATM   20  C   UNL     1      43.085 -17.419   3.857  1.00  0.00     0.039 A 
HETATM   21  C   UNL     1      43.469 -18.561   4.544  1.00  0.00    -0.022 A 
HETATM   22  C   UNL     1      44.122 -19.615   3.898  1.00  0.00    -0.025 A 
HETATM   23  C   UNL     1      43.270 -18.876   5.988  1.00  0.00     0.274 C 
HETATM   24  C   UNL     1      44.396 -20.719   4.862  1.00  0.00     0.273 C 
HETATM   25  C   UNL     1      44.408 -19.545   2.546  1.00  0.00     0.012 A 
HETATM   26  N   UNL     1      44.163 -20.088   6.227  1.00  0.00    -0.067 N 
HETATM   27  H   UNL     1      45.072 -19.705   6.516  1.00  0.00     0.280 HD
HETATM   28  C   UNL     1      43.684 -21.018   7.279  1.00  0.00     0.270 C 
HETATM   29  C   UNL     1      44.045 -18.385   1.852  1.00  0.00     0.030 A 
ENDBRANCH   2  19
TORSDOF 4
ENDMDL
MODEL 7
REMARK VINA RESULT:      -7.5      2.889     10.104
REMARK  4 active torsions:
REMARK  status: ('A' for Active; 'I' for Inactive)
REMARK    1  A    between atoms: C_4  and  C_5 
REMARK       I    between atoms: C_5  and  N_6 
REMARK    2  A    between atoms: N_6  and  C_7 
REMARK    3  A    between atoms: C_20  and  C_21 
REMARK    4  A    between atoms: C_24  and  O_25 
ROOT
HETATM    1  C   UNL     1      40.857 -15.913   1.463  1.00  0.00     0.263 C 
HETATM    2  N   UNL     1      42.194 -16.253   1.600  1.00  0.00    -0.323 N 
HETATM    3  O   UNL     1      39.930 -16.629   1.838  1.00  0.00    -0.267 OA
HETATM    4  H   UNL     1      42.843 -15.639   1.119  1.00  0.00     0.169 HD
ENDROOT
BRANCH   1   5
HETATM    5  C   UNL     1      40.618 -14.629   0.811  1.00  0.00     0.074 A 
HETATM    6  S   UNL     1      39.388 -13.560   1.327  1.00  0.00    -0.089 SA
HETATM    7  C   UNL     1      39.673 -12.469   0.035  1.00  0.00    -0.009 A 
HETATM    8  C   UNL     1      38.767 -11.287  -0.116  1.00  0.00     0.057 C 
HETATM    9  C   UNL     1      40.759 -12.860  -0.733  1.00  0.00    -0.012 A 
HETATM   10  C   UNL     1      41.277 -14.123  -0.292  1.00  0.00     0.038 A 
BRANCH   9  11
HETATM   11  C   UNL     1      41.235 -12.100  -1.886  1.00  0.00    -0.025 A 
HETATM   12  C   UNL     1      42.326 -11.235  -1.751  1.00  0.00     0.015 A 
HETATM   13  C   UNL     1      42.793 -10.511  -2.852  1.00  0.00     0.037 A 
HETATM   14  C   UNL     1      42.185 -10.645  -4.102  1.00  0.00     0.068 A 
HETATM   15  C   UNL     1      41.081 -11.485  -4.237  1.00  0.00     0.037 A 
HETATM   16  C   UNL     1      40.604 -12.202  -3.133  1.00  0.00     0.015 A 
BRANCH  14  17
HETATM   17  O   UNL     1      42.752  -9.898  -5.097  1.00  0.00    -0.356 OA
HETATM   18  C   UNL     1      41.928  -9.598  -6.218  1.00  0.00     0.210 C 
ENDBRANCH  14  17
ENDBRANCH   9  11
ENDBRANCH   1   5
BRANCH   2  19
HETATM   19  C   UNL     1      42.744 -17.338   2.309  1.00  0.00     0.035 A 
HETATM   20  C   UNL     1      42.536 -17.546   3.676  1.00  0.00     0.039 A 
HETATM   21  C   UNL     1      43.171 -18.614   4.293  1.00  0.00    -0.022 A 
HETATM   22  C   UNL     1      43.989 -19.490   3.573  1.00  0.00    -0.025 A 
HETATM   23  C   UNL     1      43.104 -19.018   5.726  1.00  0.00     0.274 C 
HETATM   24  C   UNL     1      44.521 -20.554   4.474  1.00  0.00     0.273 C 
HETATM   25  C   UNL     1      44.193 -19.312   2.217  1.00  0.00     0.012 A 
HETATM   26  N   UNL     1      44.230 -20.035   5.875  1.00  0.00    -0.067 N 
HETATM   27  H   UNL     1      45.057 -19.490   6.147  1.00  0.00     0.280 HD
HETATM   28  C   UNL     1      43.994 -21.083   6.899  1.00  0.00     0.270 C 
HETATM   29  C   UNL     1      43.576 -18.222   1.592  1.00  0.00     0.030 A 
ENDBRANCH   2  19
TORSDOF 4
ENDMDL
MODEL 8
REMARK VINA RESULT:      -7.4      5.034     10.067
REMARK  4 active torsions:
REMARK  status: ('A' for Active; 'I' for Inactive)
REMARK    1  A    between atoms: C_4  and  C_5 
REMARK       I    between atoms: C_5  and  N_6 
REMARK    2  A    between atoms: N_6  and  C_7 
REMARK    3  A    between atoms: C_20  and  C_21 
REMARK    4  A    between atoms: C_24  and  O_25 
ROOT
HETATM    1  C   UNL     1      40.570 -15.764   2.859  1.00  0.00     0.263 C 
HETATM    2  N   UNL     1      41.820 -16.058   3.382  1.00  0.00    -0.323 N 
HETATM    3  O   UNL     1      39.955 -16.513   2.103  1.00  0.00    -0.267 OA
HETATM    4  H   UNL     1      42.270 -15.291   3.871  1.00  0.00     0.169 HD
ENDROOT
BRANCH   1   5
HETATM    5  C   UNL     1      40.031 -14.467   3.260  1.00  0.00     0.074 A 
HETATM    6  S   UNL     1      39.235 -13.432   2.156  1.00  0.00    -0.089 SA
HETATM    7  C   UNL     1      39.079 -12.175   3.313  1.00  0.00    -0.009 A 
HETATM    8  C   UNL     1      38.502 -10.866   2.874  1.00  0.00     0.057 C 
HETATM    9  C   UNL     1      39.541 -12.569   4.560  1.00  0.00    -0.012 A 
HETATM   10  C   UNL     1      40.114 -13.883   4.508  1.00  0.00     0.038 A 
BRANCH   9  11
HETATM   11  C   UNL     1      39.508 -11.700   5.733  1.00  0.00    -0.025 A 
HETATM   12  C   UNL     1      39.616 -10.314   5.579  1.00  0.00     0.015 A 
HETATM   13  C   UNL     1      39.575  -9.474   6.696  1.00  0.00     0.037 A 
HETATM   14  C   UNL     1      39.418 -10.003   7.979  1.00  0.00     0.068 A 
HETATM   15  C   UNL     1      39.336 -11.385   8.141  1.00  0.00     0.037 A 
HETATM   16  C   UNL     1      39.389 -12.229   7.025  1.00  0.00     0.015 A 
BRANCH  14  17
HETATM   17  O   UNL     1      39.373  -9.073   8.980  1.00  0.00    -0.356 OA
HETATM   18  C   UNL     1      38.836  -9.502  10.226  1.00  0.00     0.210 C 
ENDBRANCH  14  17
ENDBRANCH   9  11
ENDBRANCH   1   5
BRANCH   2  19
HETATM   19  C   UNL     1      42.528 -17.272   3.305  1.00  0.00     0.035 A 
HETATM   20  C   UNL     1      42.899 -18.017   4.428  1.00  0.00     0.039 A 
HETATM   21  C   UNL     1      43.646 -19.171   4.247  1.00  0.00    -0.022 A 
HETATM   22  C   UNL     1      44.011 -19.611   2.971  1.00  0.00    -0.025 A 
HETATM   23  C   UNL     1      44.157 -20.107   5.289  1.00  0.00     0.274 C 
HETATM   24  C   UNL     1      44.785 -20.882   3.067  1.00  0.00     0.273 C 
HETATM   25  C   UNL     1      43.639 -18.898   1.846  1.00  0.00     0.012 A 
HETATM   26  N   UNL     1      45.155 -20.983   4.540  1.00  0.00    -0.067 N 
HETATM   27  H   UNL     1      46.061 -20.508   4.633  1.00  0.00     0.280 HD
HETATM   28  C   UNL     1      45.288 -22.365   5.063  1.00  0.00     0.270 C 
HETATM   29  C   UNL     1      42.905 -17.718   2.023  1.00  0.00     0.030 A 
ENDBRANCH   2  19
TORSDOF 4
ENDMDL
MODEL 9
REMARK VINA RESULT:      -7.4      5.880      7.973
REMARK  4 active torsions:
REMARK  status: ('A' for Active; 'I' for Inactive)
REMARK    1  A    between atoms: C_4  and  C_5 
REMARK       I    between atoms: C_5  and  N_6 
REMARK    2  A    between atoms: N_6  and  C_7 
REMARK    3  A    between atoms: C_20  and  C_21 
REMARK    4  A    between atoms: C_24  and  O_25 
ROOT
HETATM    1  C   UNL     1      41.987 -13.150   5.740  1.00  0.00     0.263 C 
HETATM    2  N   UNL     1      40.966 -12.215   5.651  1.00  0.00    -0.323 N 
HETATM    3  O   UNL     1      42.924 -13.060   6.530  1.00  0.00    -0.267 OA
HETATM    4  H   UNL     1      40.340 -12.340   4.861  1.00  0.00     0.169 HD
ENDROOT
BRANCH   1   5
HETATM    5  C   UNL     1      41.881 -14.261   4.799  1.00  0.00     0.074 A 
HETATM    6  S   UNL     1      40.608 -14.375   3.664  1.00  0.00    -0.089 SA
HETATM    7  C   UNL     1      41.117 -15.918   3.118  1.00  0.00    -0.009 A 
HETATM    8  C   UNL     1      40.271 -16.636   2.112  1.00  0.00     0.057 C 
HETATM    9  C   UNL     1      42.302 -16.309   3.722  1.00  0.00    -0.012 A 
HETATM   10  C   UNL     1      42.717 -15.357   4.711  1.00  0.00     0.038 A 
BRANCH   9  11
HETATM   11  C   UNL     1      42.970 -17.573   3.424  1.00  0.00    -0.025 A 
HETATM   12  C   UNL     1      43.442 -18.377   4.467  1.00  0.00     0.015 A 
HETATM   13  C   UNL     1      44.073 -19.593   4.190  1.00  0.00     0.037 A 
HETATM   14  C   UNL     1      44.236 -20.028   2.873  1.00  0.00     0.068 A 
HETATM   15  C   UNL     1      43.792 -19.218   1.828  1.00  0.00     0.037 A 
HETATM   16  C   UNL     1      43.170 -17.994   2.103  1.00  0.00     0.015 A 
BRANCH  14  17
HETATM   17  O   UNL     1      44.850 -21.242   2.742  1.00  0.00    -0.356 OA
HETATM   18  C   UNL     1      44.347 -22.106   1.730  1.00  0.00     0.210 C 
ENDBRANCH  14  17
ENDBRANCH   9  11
ENDBRANCH   1   5
BRANCH   2  19
HETATM   19  C   UNL     1      40.708 -11.128   6.507  1.00  0.00     0.035 A 
HETATM   20  C   UNL     1      39.835 -11.200   7.597  1.00  0.00     0.039 A 
HETATM   21  C   UNL     1      39.605 -10.055   8.345  1.00  0.00    -0.022 A 
HETATM   22  C   UNL     1      40.243  -8.848   8.045  1.00  0.00    -0.025 A 
HETATM   23  C   UNL     1      38.716  -9.896   9.532  1.00  0.00     0.274 C 
HETATM   24  C   UNL     1      39.835  -7.794   9.018  1.00  0.00     0.273 C 
HETATM   25  C   UNL     1      41.124  -8.760   6.982  1.00  0.00     0.012 A 
HETATM   26  N   UNL     1      38.621  -8.387   9.721  1.00  0.00    -0.067 N 
HETATM   27  H   UNL     1      37.808  -8.092   9.168  1.00  0.00     0.280 HD
HETATM   28  C   UNL     1      38.428  -7.945  11.124  1.00  0.00     0.270 C 
HETATM   29  C   UNL     1      41.342  -9.906   6.207  1.00  0.00     0.030 A 
ENDBRANCH   2  19
TORSDOF 4
ENDMDL
MODEL 10
REMARK VINA RESULT:      -7.4      3.534     10.406
REMARK  4 active torsions:
REMARK  status: ('A' for Active; 'I' for Inactive)
REMARK    1  A    between atoms: C_4  and  C_5 
REMARK       I    between atoms: C_5  and  N_6 
REMARK    2  A    between atoms: N_6  and  C_7 
REMARK    3  A    between atoms: C_20  and  C_21 
REMARK    4  A    between atoms: C_24  and  O_25 
ROOT
HETATM    1  C   UNL     1      40.734 -14.911   0.371  1.00  0.00     0.263 C 
HETATM    2  N   UNL     1      41.388 -16.123   0.206  1.00  0.00    -0.323 N 
HETATM    3  O   UNL     1      40.552 -14.380   1.464  1.00  0.00    -0.267 OA
HETATM    4  H   UNL     1      41.339 -16.511  -0.731  1.00  0.00     0.169 HD
ENDROOT
BRANCH   1   5
HETATM    5  C   UNL     1      40.246 -14.307  -0.866  1.00  0.00     0.074 A 
HETATM    6  S   UNL     1      41.259 -13.388  -1.891  1.00  0.00    -0.089 SA
HETATM    7  C   UNL     1      39.965 -12.963  -2.933  1.00  0.00    -0.009 A 
HETATM    8  C   UNL     1      40.234 -12.011  -4.056  1.00  0.00     0.057 C 
HETATM    9  C   UNL     1      38.785 -13.591  -2.564  1.00  0.00    -0.012 A 
HETATM   10  C   UNL     1      38.955 -14.340  -1.353  1.00  0.00     0.038 A 
BRANCH   9  11
HETATM   11  C   UNL     1      37.530 -13.421  -3.292  1.00  0.00    -0.025 A 
HETATM   12  C   UNL     1      36.809 -12.228  -3.172  1.00  0.00     0.015 A 
HETATM   13  C   UNL     1      35.612 -12.054  -3.874  1.00  0.00     0.037 A 
HETATM   14  C   UNL     1      35.123 -13.061  -4.708  1.00  0.00     0.068 A 
HETATM   15  C   UNL     1      35.823 -14.262  -4.811  1.00  0.00     0.037 A 
HETATM   16  C   UNL     1      37.016 -14.444  -4.100  1.00  0.00     0.015 A 
BRANCH  14  17
HETATM   17  O   UNL     1      33.956 -12.755  -5.351  1.00  0.00    -0.356 OA
HETATM   18  C   UNL     1      34.065 -12.321  -6.701  1.00  0.00     0.210 C 
ENDBRANCH  14  17
ENDBRANCH   9  11
ENDBRANCH   1   5
BRANCH   2  19
HETATM   19  C   UNL     1      42.092 -16.867   1.172  1.00  0.00     0.035 A 
HETATM   20  C   UNL     1      41.622 -17.075   2.472  1.00  0.00     0.039 A 
HETATM   21  C   UNL     1      42.419 -17.774   3.366  1.00  0.00    -0.022 A 
HETATM   22  C   UNL     1      43.663 -18.287   2.987  1.00  0.00    -0.025 A 
HETATM   23  C   UNL     1      42.130 -18.103   4.791  1.00  0.00     0.274 C 
HETATM   24  C   UNL     1      44.292 -19.009   4.130  1.00  0.00     0.273 C 
HETATM   25  C   UNL     1      44.139 -18.107   1.701  1.00  0.00     0.012 A 
HETATM   26  N   UNL     1      43.470 -18.582   5.338  1.00  0.00    -0.067 N 
HETATM   27  H   UNL     1      43.932 -17.742   5.706  1.00  0.00     0.280 HD
HETATM   28  C   UNL     1      43.377 -19.589   6.424  1.00  0.00     0.270 C 
HETATM   29  C   UNL     1      43.350 -17.381   0.799  1.00  0.00     0.030 A 
ENDBRANCH   2  19
TORSDOF 4
ENDMDL
