MODEL 1
REMARK VINA RESULT:      -9.5      0.000      0.000
REMARK  3 active torsions:
REMARK  status: ('A' for Active; 'I' for Inactive)
REMARK    1  A    between atoms: C_7  and  C_8 
REMARK       I    between atoms: C_8  and  N_9 
REMARK    2  A    between atoms: N_9  and  C_10 
REMARK    3  A    between atoms: C_17  and  C_18 
REMARK       I    between atoms: C_18  and  N_19 
ROOT
HETATM    1  C   UNL     1      42.773 -15.793   4.421  1.00  0.00     0.258 C 
HETATM    2  N   UNL     1      41.438 -15.632   4.757  1.00  0.00    -0.323 N 
HETATM    3  O   UNL     1      43.570 -14.886   4.217  1.00  0.00    -0.267 OA
HETATM    4  H   UNL     1      40.910 -16.450   5.025  1.00  0.00     0.169 HD
ENDROOT
BRANCH   2   5
HETATM    5  C   UNL     1      40.699 -14.428   4.743  1.00  0.00     0.036 A 
HETATM    6  C   UNL     1      40.472 -13.650   5.887  1.00  0.00     0.046 A 
HETATM    7  C   UNL     1      39.800 -12.415   5.763  1.00  0.00     0.030 A 
HETATM    8  C   UNL     1      39.335 -12.026   4.513  1.00  0.00     0.063 A 
HETATM    9  C   UNL     1      39.454 -11.337   6.636  1.00  0.00     0.156 A 
HETATM   10  N   UNL     1      38.721 -10.822   4.711  1.00  0.00    -0.277 N 
HETATM   11  C   UNL     1      39.525 -12.786   3.358  1.00  0.00     0.034 A 
HETATM   12  H   UNL     1      38.254 -10.249   4.018  1.00  0.00     0.189 HD
HETATM   13  N   UNL     1      38.785 -10.366   5.973  1.00  0.00    -0.168 NA
HETATM   14  C   UNL     1      40.236 -13.984   3.497  1.00  0.00     0.032 A 
BRANCH   9  15
HETATM   15  C   UNL     1      39.776 -11.201   8.063  1.00  0.00     0.270 C 
HETATM   16  N   UNL     1      39.083 -12.061   8.873  1.00  0.00    -0.365 N 
HETATM   17  H   UNL     1      38.403 -12.681   8.450  1.00  0.00     0.159 HD
HETATM   18  H   UNL     1      39.198 -12.005   9.872  1.00  0.00     0.159 HD
HETATM   19  O   UNL     1      40.567 -10.390   8.529  1.00  0.00    -0.266 OA
ENDBRANCH   9  15
ENDBRANCH   2   5
BRANCH   1  20
HETATM   20  C   UNL     1      43.239 -17.209   4.317  1.00  0.00     0.057 A 
HETATM   21  C   UNL     1      44.008 -17.798   5.323  1.00  0.00     0.047 A 
HETATM   22  C   UNL     1      44.365 -17.090   6.600  1.00  0.00     0.071 C 
HETATM   23  N   UNL     1      44.501 -19.065   5.218  1.00  0.00    -0.252 NA
HETATM   24  C   UNL     1      44.242 -19.785   4.116  1.00  0.00     0.070 A 
HETATM   25  C   UNL     1      43.450 -19.283   3.064  1.00  0.00    -0.006 A 
HETATM   26  C   UNL     1      44.770 -21.060   3.999  1.00  0.00     0.074 A 
HETATM   27  C   UNL     1      42.937 -17.985   3.189  1.00  0.00     0.033 A 
HETATM   28  C   UNL     1      43.203 -20.070   1.923  1.00  0.00     0.017 A 
HETATM   29  C   UNL     1      43.751 -21.346   1.825  1.00  0.00     0.043 A 
HETATM   30  C   UNL     1      44.530 -21.830   2.866  1.00  0.00     0.118 A 
HETATM   31  F   UNL     1      45.062 -23.055   2.775  1.00  0.00    -0.206 F 
ENDBRANCH   1  20
TORSDOF 3
ENDMDL
MODEL 2
REMARK VINA RESULT:      -9.4      3.898      5.634
REMARK  3 active torsions:
REMARK  status: ('A' for Active; 'I' for Inactive)
REMARK    1  A    between atoms: C_7  and  C_8 
REMARK       I    between atoms: C_8  and  N_9 
REMARK    2  A    between atoms: N_9  and  C_10 
REMARK    3  A    between atoms: C_17  and  C_18 
REMARK       I    between atoms: C_18  and  N_19 
ROOT
HETATM    1  C   UNL     1      42.607 -16.340   2.579  1.00  0.00     0.258 C 
HETATM    2  N   UNL     1      41.274 -16.371   2.204  1.00  0.00    -0.323 N 
HETATM    3  O   UNL     1      43.380 -15.411   2.381  1.00  0.00    -0.267 OA
HETATM    4  H   UNL     1      40.702 -17.136   2.532  1.00  0.00     0.169 HD
ENDROOT
BRANCH   2   5
HETATM    5  C   UNL     1      40.604 -15.447   1.370  1.00  0.00     0.036 A 
HETATM    6  C   UNL     1      40.895 -15.286   0.008  1.00  0.00     0.046 A 
HETATM    7  C   UNL     1      40.113 -14.403  -0.767  1.00  0.00     0.030 A 
HETATM    8  C   UNL     1      39.104 -13.678  -0.146  1.00  0.00     0.063 A 
HETATM    9  C   UNL     1      40.040 -14.031  -2.146  1.00  0.00     0.156 A 
HETATM   10  N   UNL     1      38.548 -12.911  -1.131  1.00  0.00    -0.277 N 
HETATM   11  C   UNL     1      38.801 -13.799   1.210  1.00  0.00     0.034 A 
HETATM   12  H   UNL     1      37.790 -12.245  -1.037  1.00  0.00     0.189 HD
HETATM   13  N   UNL     1      39.074 -13.106  -2.352  1.00  0.00    -0.168 NA
HETATM   14  C   UNL     1      39.559 -14.716   1.949  1.00  0.00     0.032 A 
BRANCH   9  15
HETATM   15  C   UNL     1      40.839 -14.557  -3.259  1.00  0.00     0.270 C 
HETATM   16  N   UNL     1      42.097 -14.021  -3.343  1.00  0.00    -0.365 N 
HETATM   17  H   UNL     1      42.363 -13.306  -2.678  1.00  0.00     0.159 HD
HETATM   18  H   UNL     1      42.699 -14.283  -4.108  1.00  0.00     0.159 HD
HETATM   19  O   UNL     1      40.447 -15.383  -4.075  1.00  0.00    -0.266 OA
ENDBRANCH   9  15
ENDBRANCH   2   5
BRANCH   1  20
HETATM   20  C   UNL     1      43.100 -17.559   3.289  1.00  0.00     0.057 A 
HETATM   21  C   UNL     1      43.377 -17.541   4.658  1.00  0.00     0.047 A 
HETATM   22  C   UNL     1      43.141 -16.337   5.525  1.00  0.00     0.071 C 
HETATM   23  N   UNL     1      43.892 -18.622   5.312  1.00  0.00    -0.252 NA
HETATM   24  C   UNL     1      44.142 -19.750   4.630  1.00  0.00     0.070 A 
HETATM   25  C   UNL     1      43.865 -19.867   3.252  1.00  0.00    -0.006 A 
HETATM   26  C   UNL     1      44.694 -20.835   5.291  1.00  0.00     0.074 A 
HETATM   27  C   UNL     1      43.323 -18.755   2.594  1.00  0.00     0.033 A 
HETATM   28  C   UNL     1      44.145 -21.068   2.572  1.00  0.00     0.017 A 
HETATM   29  C   UNL     1      44.706 -22.142   3.257  1.00  0.00     0.043 A 
HETATM   30  C   UNL     1      44.975 -22.015   4.612  1.00  0.00     0.118 A 
HETATM   31  F   UNL     1      45.518 -23.044   5.274  1.00  0.00    -0.206 F 
ENDBRANCH   1  20
TORSDOF 3
ENDMDL
MODEL 3
REMARK VINA RESULT:      -9.3      1.174      1.967
REMARK  3 active torsions:
REMARK  status: ('A' for Active; 'I' for Inactive)
REMARK    1  A    between atoms: C_7  and  C_8 
REMARK       I    between atoms: C_8  and  N_9 
REMARK    2  A    between atoms: N_9  and  C_10 
REMARK    3  A    between atoms: C_17  and  C_18 
REMARK       I    between atoms: C_18  and  N_19 
ROOT
HETATM    1  C   UNL     1      42.671 -16.028   3.609  1.00  0.00     0.258 C 
HETATM    2  N   UNL     1      41.302 -15.936   3.804  1.00  0.00    -0.323 N 
HETATM    3  O   UNL     1      43.455 -15.088   3.616  1.00  0.00    -0.267 OA
HETATM    4  H   UNL     1      40.774 -16.791   3.903  1.00  0.00     0.169 HD
ENDROOT
BRANCH   2   5
HETATM    5  C   UNL     1      40.530 -14.754   3.857  1.00  0.00     0.036 A 
HETATM    6  C   UNL     1      40.328 -14.018   5.034  1.00  0.00     0.046 A 
HETATM    7  C   UNL     1      39.617 -12.799   4.975  1.00  0.00     0.030 A 
HETATM    8  C   UNL     1      39.092 -12.386   3.756  1.00  0.00     0.063 A 
HETATM    9  C   UNL     1      39.277 -11.758   5.894  1.00  0.00     0.156 A 
HETATM   10  N   UNL     1      38.454 -11.206   4.017  1.00  0.00    -0.277 N 
HETATM   11  C   UNL     1      39.256 -13.105   2.572  1.00  0.00     0.034 A 
HETATM   12  H   UNL     1      37.944 -10.626   3.361  1.00  0.00     0.189 HD
HETATM   13  N   UNL     1      38.556 -10.787   5.289  1.00  0.00    -0.168 NA
HETATM   14  C   UNL     1      40.005 -14.285   2.645  1.00  0.00     0.032 A 
BRANCH   9  15
HETATM   15  C   UNL     1      39.652 -11.657   7.311  1.00  0.00     0.270 C 
HETATM   16  N   UNL     1      39.105 -12.633   8.101  1.00  0.00    -0.365 N 
HETATM   17  H   UNL     1      38.482 -13.308   7.675  1.00  0.00     0.159 HD
HETATM   18  H   UNL     1      39.263 -12.614   9.096  1.00  0.00     0.159 HD
HETATM   19  O   UNL     1      40.365 -10.782   7.786  1.00  0.00    -0.266 OA
ENDBRANCH   9  15
ENDBRANCH   2   5
BRANCH   1  20
HETATM   20  C   UNL     1      43.191 -17.410   3.381  1.00  0.00     0.057 A 
HETATM   21  C   UNL     1      43.237 -17.968   2.101  1.00  0.00     0.047 A 
HETATM   22  C   UNL     1      42.839 -17.213   0.864  1.00  0.00     0.071 C 
HETATM   23  N   UNL     1      43.644 -19.250   1.879  1.00  0.00    -0.252 NA
HETATM   24  C   UNL     1      44.021 -20.013   2.916  1.00  0.00     0.070 A 
HETATM   25  C   UNL     1      44.036 -19.524   4.238  1.00  0.00    -0.006 A 
HETATM   26  C   UNL     1      44.405 -21.325   2.690  1.00  0.00     0.074 A 
HETATM   27  C   UNL     1      43.629 -18.200   4.452  1.00  0.00     0.033 A 
HETATM   28  C   UNL     1      44.436 -20.358   5.299  1.00  0.00     0.017 A 
HETATM   29  C   UNL     1      44.810 -21.675   5.048  1.00  0.00     0.043 A 
HETATM   30  C   UNL     1      44.791 -22.146   3.743  1.00  0.00     0.118 A 
HETATM   31  F   UNL     1      45.146 -23.413   3.497  1.00  0.00    -0.206 F 
ENDBRANCH   1  20
TORSDOF 3
ENDMDL
MODEL 4
REMARK VINA RESULT:      -9.1      4.797      6.456
REMARK  3 active torsions:
REMARK  status: ('A' for Active; 'I' for Inactive)
REMARK    1  A    between atoms: C_7  and  C_8 
REMARK       I    between atoms: C_8  and  N_9 
REMARK    2  A    between atoms: N_9  and  C_10 
REMARK    3  A    between atoms: C_17  and  C_18 
REMARK       I    between atoms: C_18  and  N_19 
ROOT
HETATM    1  C   UNL     1      41.468 -17.014   1.508  1.00  0.00     0.258 C 
HETATM    2  N   UNL     1      42.173 -16.306   0.548  1.00  0.00    -0.323 N 
HETATM    3  O   UNL     1      40.260 -16.948   1.696  1.00  0.00    -0.267 OA
HETATM    4  H   UNL     1      43.145 -16.537   0.402  1.00  0.00     0.169 HD
ENDROOT
BRANCH   2   5
HETATM    5  C   UNL     1      41.687 -15.251  -0.257  1.00  0.00     0.036 A 
HETATM    6  C   UNL     1      40.930 -15.455  -1.419  1.00  0.00     0.046 A 
HETATM    7  C   UNL     1      40.409 -14.340  -2.111  1.00  0.00     0.030 A 
HETATM    8  C   UNL     1      40.705 -13.064  -1.647  1.00  0.00     0.063 A 
HETATM    9  C   UNL     1      39.561 -14.132  -3.243  1.00  0.00     0.156 A 
HETATM   10  N   UNL     1      40.091 -12.209  -2.518  1.00  0.00    -0.277 N 
HETATM   11  C   UNL     1      41.473 -12.826  -0.507  1.00  0.00     0.034 A 
HETATM   12  H   UNL     1      40.103 -11.195  -2.496  1.00  0.00     0.189 HD
HETATM   13  N   UNL     1      39.379 -12.814  -3.483  1.00  0.00    -0.168 NA
HETATM   14  C   UNL     1      41.938 -13.947   0.190  1.00  0.00     0.032 A 
BRANCH   9  15
HETATM   15  C   UNL     1      38.902 -15.154  -4.067  1.00  0.00     0.270 C 
HETATM   16  N   UNL     1      37.595 -14.871  -4.364  1.00  0.00    -0.365 N 
HETATM   17  H   UNL     1      37.185 -14.027  -3.983  1.00  0.00     0.159 HD
HETATM   18  H   UNL     1      37.046 -15.540  -4.880  1.00  0.00     0.159 HD
HETATM   19  O   UNL     1      39.429 -16.190  -4.453  1.00  0.00    -0.266 OA
ENDBRANCH   9  15
ENDBRANCH   2   5
BRANCH   1  20
HETATM   20  C   UNL     1      42.288 -17.928   2.358  1.00  0.00     0.057 A 
HETATM   21  C   UNL     1      42.798 -17.513   3.591  1.00  0.00     0.047 A 
HETATM   22  C   UNL     1      42.512 -16.162   4.182  1.00  0.00     0.071 C 
HETATM   23  N   UNL     1      43.605 -18.307   4.351  1.00  0.00    -0.252 NA
HETATM   24  C   UNL     1      43.925 -19.535   3.915  1.00  0.00     0.070 A 
HETATM   25  C   UNL     1      43.431 -20.048   2.698  1.00  0.00    -0.006 A 
HETATM   26  C   UNL     1      44.770 -20.327   4.674  1.00  0.00     0.074 A 
HETATM   27  C   UNL     1      42.591 -19.229   1.932  1.00  0.00     0.033 A 
HETATM   28  C   UNL     1      43.792 -21.341   2.274  1.00  0.00     0.017 A 
HETATM   29  C   UNL     1      44.649 -22.115   3.052  1.00  0.00     0.043 A 
HETATM   30  C   UNL     1      45.130 -21.600   4.247  1.00  0.00     0.118 A 
HETATM   31  F   UNL     1      45.957 -22.339   4.996  1.00  0.00    -0.206 F 
ENDBRANCH   1  20
TORSDOF 3
ENDMDL
MODEL 5
REMARK VINA RESULT:      -8.9      1.811      3.144
REMARK  3 active torsions:
REMARK  status: ('A' for Active; 'I' for Inactive)
REMARK    1  A    between atoms: C_7  and  C_8 
REMARK       I    between atoms: C_8  and  N_9 
REMARK    2  A    between atoms: N_9  and  C_10 
REMARK    3  A    between atoms: C_17  and  C_18 
REMARK       I    between atoms: C_18  and  N_19 
ROOT
HETATM    1  C   UNL     1      42.694 -15.787   4.197  1.00  0.00     0.258 C 
HETATM    2  N   UNL     1      41.363 -15.620   4.546  1.00  0.00    -0.323 N 
HETATM    3  O   UNL     1      43.476 -14.885   3.925  1.00  0.00    -0.267 OA
HETATM    4  H   UNL     1      40.849 -16.426   4.872  1.00  0.00     0.169 HD
ENDROOT
BRANCH   2   5
HETATM    5  C   UNL     1      40.609 -14.427   4.473  1.00  0.00     0.036 A 
HETATM    6  C   UNL     1      40.153 -13.876   3.267  1.00  0.00     0.046 A 
HETATM    7  C   UNL     1      39.329 -12.730   3.297  1.00  0.00     0.030 A 
HETATM    8  C   UNL     1      39.033 -12.148   4.523  1.00  0.00     0.063 A 
HETATM    9  C   UNL     1      38.624 -11.942   2.335  1.00  0.00     0.156 A 
HETATM   10  N   UNL     1      38.250 -11.067   4.232  1.00  0.00    -0.277 N 
HETATM   11  C   UNL     1      39.488 -12.658   5.740  1.00  0.00     0.034 A 
HETATM   12  H   UNL     1      37.857 -10.399   4.886  1.00  0.00     0.189 HD
HETATM   13  N   UNL     1      37.969 -10.918   2.928  1.00  0.00    -0.168 NA
HETATM   14  C   UNL     1      40.263 -13.822   5.689  1.00  0.00     0.032 A 
BRANCH   9  15
HETATM   15  C   UNL     1      38.537 -12.165   0.886  1.00  0.00     0.270 C 
HETATM   16  N   UNL     1      39.329 -11.328   0.146  1.00  0.00    -0.365 N 
HETATM   17  H   UNL     1      39.872 -10.624   0.630  1.00  0.00     0.159 HD
HETATM   18  H   UNL     1      39.295 -11.371  -0.860  1.00  0.00     0.159 HD
HETATM   19  O   UNL     1      37.815 -12.996   0.347  1.00  0.00    -0.266 OA
ENDBRANCH   9  15
ENDBRANCH   2   5
BRANCH   1  20
HETATM   20  C   UNL     1      43.175 -17.201   4.170  1.00  0.00     0.057 A 
HETATM   21  C   UNL     1      43.910 -17.740   5.229  1.00  0.00     0.047 A 
HETATM   22  C   UNL     1      44.212 -16.976   6.487  1.00  0.00     0.071 C 
HETATM   23  N   UNL     1      44.416 -19.006   5.196  1.00  0.00    -0.252 NA
HETATM   24  C   UNL     1      44.205 -19.774   4.117  1.00  0.00     0.070 A 
HETATM   25  C   UNL     1      43.449 -19.324   3.015  1.00  0.00    -0.006 A 
HETATM   26  C   UNL     1      44.747 -21.048   4.073  1.00  0.00     0.074 A 
HETATM   27  C   UNL     1      42.921 -18.027   3.066  1.00  0.00     0.033 A 
HETATM   28  C   UNL     1      43.252 -20.161   1.900  1.00  0.00     0.017 A 
HETATM   29  C   UNL     1      43.814 -21.434   1.877  1.00  0.00     0.043 A 
HETATM   30  C   UNL     1      44.557 -21.866   2.966  1.00  0.00     0.118 A 
HETATM   31  F   UNL     1      45.101 -23.089   2.946  1.00  0.00    -0.206 F 
ENDBRANCH   1  20
TORSDOF 3
ENDMDL
MODEL 6
REMARK VINA RESULT:      -8.9      4.776      8.189
REMARK  3 active torsions:
REMARK  status: ('A' for Active; 'I' for Inactive)
REMARK    1  A    between atoms: C_7  and  C_8 
REMARK       I    between atoms: C_8  and  N_9 
REMARK    2  A    between atoms: N_9  and  C_10 
REMARK    3  A    between atoms: C_17  and  C_18 
REMARK       I    between atoms: C_18  and  N_19 
ROOT
HETATM    1  C   UNL     1      41.889 -16.423   1.937  1.00  0.00     0.258 C 
HETATM    2  N   UNL     1      43.177 -16.908   2.097  1.00  0.00    -0.323 N 
HETATM    3  O   UNL     1      40.924 -16.725   2.627  1.00  0.00    -0.267 OA
HETATM    4  H   UNL     1      43.917 -16.492   1.550  1.00  0.00     0.169 HD
ENDROOT
BRANCH   2   5
HETATM    5  C   UNL     1      43.588 -17.965   2.941  1.00  0.00     0.036 A 
HETATM    6  C   UNL     1      43.556 -17.890   4.341  1.00  0.00     0.046 A 
HETATM    7  C   UNL     1      43.899 -19.027   5.103  1.00  0.00     0.030 A 
HETATM    8  C   UNL     1      44.308 -20.180   4.443  1.00  0.00     0.063 A 
HETATM    9  C   UNL     1      43.920 -19.371   6.491  1.00  0.00     0.156 A 
HETATM   10  N   UNL     1      44.587 -21.084   5.429  1.00  0.00    -0.277 N 
HETATM   11  C   UNL     1      44.371 -20.281   3.053  1.00  0.00     0.034 A 
HETATM   12  H   UNL     1      44.926 -22.032   5.315  1.00  0.00     0.189 HD
HETATM   13  N   UNL     1      44.351 -20.639   6.675  1.00  0.00    -0.168 NA
HETATM   14  C   UNL     1      43.980 -19.156   2.317  1.00  0.00     0.032 A 
BRANCH   9  15
HETATM   15  C   UNL     1      43.508 -18.535   7.626  1.00  0.00     0.270 C 
HETATM   16  N   UNL     1      44.160 -18.825   8.795  1.00  0.00    -0.365 N 
HETATM   17  H   UNL     1      44.829 -19.585   8.800  1.00  0.00     0.159 HD
HETATM   18  H   UNL     1      43.906 -18.339   9.640  1.00  0.00     0.159 HD
HETATM   19  O   UNL     1      42.648 -17.663   7.579  1.00  0.00    -0.266 OA
ENDBRANCH   9  15
ENDBRANCH   2   5
BRANCH   1  20
HETATM   20  C   UNL     1      41.709 -15.446   0.821  1.00  0.00     0.057 A 
HETATM   21  C   UNL     1      41.917 -14.078   1.011  1.00  0.00     0.047 A 
HETATM   22  C   UNL     1      42.396 -13.496   2.311  1.00  0.00     0.071 C 
HETATM   23  N   UNL     1      41.692 -13.162   0.026  1.00  0.00    -0.252 NA
HETATM   24  C   UNL     1      41.261 -13.576  -1.176  1.00  0.00     0.070 A 
HETATM   25  C   UNL     1      41.053 -14.940  -1.466  1.00  0.00    -0.006 A 
HETATM   26  C   UNL     1      41.005 -12.640  -2.164  1.00  0.00     0.074 A 
HETATM   27  C   UNL     1      41.301 -15.873  -0.451  1.00  0.00     0.033 A 
HETATM   28  C   UNL     1      40.598 -15.333  -2.739  1.00  0.00     0.017 A 
HETATM   29  C   UNL     1      40.340 -14.373  -3.714  1.00  0.00     0.043 A 
HETATM   30  C   UNL     1      40.547 -13.034  -3.416  1.00  0.00     0.118 A 
HETATM   31  F   UNL     1      40.297 -12.107  -4.350  1.00  0.00    -0.206 F 
ENDBRANCH   1  20
TORSDOF 3
ENDMDL
MODEL 7
REMARK VINA RESULT:      -8.9      2.273      2.960
REMARK  3 active torsions:
REMARK  status: ('A' for Active; 'I' for Inactive)
REMARK    1  A    between atoms: C_7  and  C_8 
REMARK       I    between atoms: C_8  and  N_9 
REMARK    2  A    between atoms: N_9  and  C_10 
REMARK    3  A    between atoms: C_17  and  C_18 
REMARK       I    between atoms: C_18  and  N_19 
ROOT
HETATM    1  C   UNL     1      41.304 -15.417   4.704  1.00  0.00     0.258 C 
HETATM    2  N   UNL     1      41.831 -14.179   4.373  1.00  0.00    -0.323 N 
HETATM    3  O   UNL     1      40.411 -15.616   5.517  1.00  0.00    -0.267 OA
HETATM    4  H   UNL     1      42.475 -14.125   3.597  1.00  0.00     0.169 HD
ENDROOT
BRANCH   2   5
HETATM    5  C   UNL     1      41.588 -12.951   5.028  1.00  0.00     0.036 A 
HETATM    6  C   UNL     1      42.104 -12.636   6.293  1.00  0.00     0.046 A 
HETATM    7  C   UNL     1      41.883 -11.349   6.831  1.00  0.00     0.030 A 
HETATM    8  C   UNL     1      41.116 -10.443   6.110  1.00  0.00     0.063 A 
HETATM    9  C   UNL     1      42.288 -10.639   8.003  1.00  0.00     0.156 A 
HETATM   10  N   UNL     1      41.065  -9.316   6.881  1.00  0.00    -0.277 N 
HETATM   11  C   UNL     1      40.571 -10.730   4.858  1.00  0.00     0.034 A 
HETATM   12  H   UNL     1      40.578  -8.452   6.674  1.00  0.00     0.189 HD
HETATM   13  N   UNL     1      41.770  -9.389   8.021  1.00  0.00    -0.168 NA
HETATM   14  C   UNL     1      40.843 -11.996   4.324  1.00  0.00     0.032 A 
BRANCH   9  15
HETATM   15  C   UNL     1      43.174 -11.111   9.075  1.00  0.00     0.270 C 
HETATM   16  N   UNL     1      42.514 -11.517  10.204  1.00  0.00    -0.365 N 
HETATM   17  H   UNL     1      41.505 -11.437  10.229  1.00  0.00     0.159 HD
HETATM   18  H   UNL     1      43.042 -11.807  11.012  1.00  0.00     0.159 HD
HETATM   19  O   UNL     1      44.398 -11.133   9.014  1.00  0.00    -0.266 OA
ENDBRANCH   9  15
ENDBRANCH   2   5
BRANCH   1  20
HETATM   20  C   UNL     1      41.900 -16.579   3.977  1.00  0.00     0.057 A 
HETATM   21  C   UNL     1      41.441 -16.960   2.714  1.00  0.00     0.047 A 
HETATM   22  C   UNL     1      40.377 -16.205   1.968  1.00  0.00     0.071 C 
HETATM   23  N   UNL     1      41.923 -18.057   2.063  1.00  0.00    -0.252 NA
HETATM   24  C   UNL     1      42.875 -18.804   2.642  1.00  0.00     0.070 A 
HETATM   25  C   UNL     1      43.419 -18.478   3.901  1.00  0.00    -0.006 A 
HETATM   26  C   UNL     1      43.340 -19.935   1.992  1.00  0.00     0.074 A 
HETATM   27  C   UNL     1      42.926 -17.340   4.554  1.00  0.00     0.033 A 
HETATM   28  C   UNL     1      44.416 -19.289   4.476  1.00  0.00     0.017 A 
HETATM   29  C   UNL     1      44.861 -20.425   3.806  1.00  0.00     0.043 A 
HETATM   30  C   UNL     1      44.318 -20.737   2.568  1.00  0.00     0.118 A 
HETATM   31  F   UNL     1      44.742 -21.831   1.922  1.00  0.00    -0.206 F 
ENDBRANCH   1  20
TORSDOF 3
ENDMDL
MODEL 8
REMARK VINA RESULT:      -8.8      4.801      6.117
REMARK  3 active torsions:
REMARK  status: ('A' for Active; 'I' for Inactive)
REMARK    1  A    between atoms: C_7  and  C_8 
REMARK       I    between atoms: C_8  and  N_9 
REMARK    2  A    between atoms: N_9  and  C_10 
REMARK    3  A    between atoms: C_17  and  C_18 
REMARK       I    between atoms: C_18  and  N_19 
ROOT
HETATM    1  C   UNL     1      41.344 -16.284   1.015  1.00  0.00     0.258 C 
HETATM    2  N   UNL     1      41.979 -15.956  -0.173  1.00  0.00    -0.323 N 
HETATM    3  O   UNL     1      40.236 -15.894   1.361  1.00  0.00    -0.267 OA
HETATM    4  H   UNL     1      42.835 -16.438  -0.407  1.00  0.00     0.169 HD
ENDROOT
BRANCH   2   5
HETATM    5  C   UNL     1      41.573 -14.980  -1.111  1.00  0.00     0.036 A 
HETATM    6  C   UNL     1      41.972 -13.637  -1.047  1.00  0.00     0.046 A 
HETATM    7  C   UNL     1      41.591 -12.752  -2.079  1.00  0.00     0.030 A 
HETATM    8  C   UNL     1      40.787 -13.227  -3.108  1.00  0.00     0.063 A 
HETATM    9  C   UNL     1      41.846 -11.385  -2.412  1.00  0.00     0.156 A 
HETATM   10  N   UNL     1      40.574 -12.154  -3.928  1.00  0.00    -0.277 N 
HETATM   11  C   UNL     1      40.355 -14.551  -3.190  1.00  0.00     0.034 A 
HETATM   12  H   UNL     1      40.018 -12.129  -4.775  1.00  0.00     0.189 HD
HETATM   13  N   UNL     1      41.207 -11.032  -3.550  1.00  0.00    -0.168 NA
HETATM   14  C   UNL     1      40.784 -15.422  -2.182  1.00  0.00     0.032 A 
BRANCH   9  15
HETATM   15  C   UNL     1      42.703 -10.434  -1.693  1.00  0.00     0.270 C 
HETATM   16  N   UNL     1      42.372  -9.121  -1.899  1.00  0.00    -0.365 N 
HETATM   17  H   UNL     1      41.610  -8.909  -2.532  1.00  0.00     0.159 HD
HETATM   18  H   UNL     1      42.937  -8.395  -1.489  1.00  0.00     0.159 HD
HETATM   19  O   UNL     1      43.652 -10.744  -0.983  1.00  0.00    -0.266 OA
ENDBRANCH   9  15
ENDBRANCH   2   5
BRANCH   1  20
HETATM   20  C   UNL     1      42.108 -17.199   1.915  1.00  0.00     0.057 A 
HETATM   21  C   UNL     1      42.565 -16.774   3.166  1.00  0.00     0.047 A 
HETATM   22  C   UNL     1      42.271 -15.411   3.724  1.00  0.00     0.071 C 
HETATM   23  N   UNL     1      43.322 -17.570   3.974  1.00  0.00    -0.252 NA
HETATM   24  C   UNL     1      43.644 -18.808   3.570  1.00  0.00     0.070 A 
HETATM   25  C   UNL     1      43.202 -19.330   2.337  1.00  0.00    -0.006 A 
HETATM   26  C   UNL     1      44.439 -19.602   4.380  1.00  0.00     0.074 A 
HETATM   27  C   UNL     1      42.412 -18.509   1.521  1.00  0.00     0.033 A 
HETATM   28  C   UNL     1      43.563 -20.634   1.948  1.00  0.00     0.017 A 
HETATM   29  C   UNL     1      44.369 -21.410   2.776  1.00  0.00     0.043 A 
HETATM   30  C   UNL     1      44.800 -20.885   3.986  1.00  0.00     0.118 A 
HETATM   31  F   UNL     1      45.578 -21.627   4.784  1.00  0.00    -0.206 F 
ENDBRANCH   1  20
TORSDOF 3
ENDMDL
MODEL 9
REMARK VINA RESULT:      -8.8      3.959      5.779
REMARK  3 active torsions:
REMARK  status: ('A' for Active; 'I' for Inactive)
REMARK    1  A    between atoms: C_7  and  C_8 
REMARK       I    between atoms: C_8  and  N_9 
REMARK    2  A    between atoms: N_9  and  C_10 
REMARK    3  A    between atoms: C_17  and  C_18 
REMARK       I    between atoms: C_18  and  N_19 
ROOT
HETATM    1  C   UNL     1      42.061 -16.018   2.690  1.00  0.00     0.258 C 
HETATM    2  N   UNL     1      40.938 -16.253   1.912  1.00  0.00    -0.323 N 
HETATM    3  O   UNL     1      42.456 -14.918   3.055  1.00  0.00    -0.267 OA
HETATM    4  H   UNL     1      40.639 -17.209   1.781  1.00  0.00     0.169 HD
ENDROOT
BRANCH   2   5
HETATM    5  C   UNL     1      40.153 -15.289   1.241  1.00  0.00     0.036 A 
HETATM    6  C   UNL     1      40.374 -14.908  -0.090  1.00  0.00     0.046 A 
HETATM    7  C   UNL     1      39.483 -14.004  -0.708  1.00  0.00     0.030 A 
HETATM    8  C   UNL     1      38.437 -13.476   0.039  1.00  0.00     0.063 A 
HETATM    9  C   UNL     1      39.320 -13.447  -2.015  1.00  0.00     0.156 A 
HETATM   10  N   UNL     1      37.774 -12.633  -0.809  1.00  0.00    -0.277 N 
HETATM   11  C   UNL     1      38.202 -13.818   1.371  1.00  0.00     0.034 A 
HETATM   12  H   UNL     1      36.962 -12.065  -0.599  1.00  0.00     0.189 HD
HETATM   13  N   UNL     1      38.266 -12.601  -2.058  1.00  0.00    -0.168 NA
HETATM   14  C   UNL     1      39.069 -14.753   1.948  1.00  0.00     0.032 A 
BRANCH   9  15
HETATM   15  C   UNL     1      40.119 -13.729  -3.214  1.00  0.00     0.270 C 
HETATM   16  N   UNL     1      39.669 -14.797  -3.944  1.00  0.00    -0.365 N 
HETATM   17  H   UNL     1      38.868 -15.314  -3.601  1.00  0.00     0.159 HD
HETATM   18  H   UNL     1      40.185 -15.099  -4.755  1.00  0.00     0.159 HD
HETATM   19  O   UNL     1      41.118 -13.106  -3.553  1.00  0.00    -0.266 OA
ENDBRANCH   9  15
ENDBRANCH   2   5
BRANCH   1  20
HETATM   20  C   UNL     1      42.819 -17.238   3.101  1.00  0.00     0.057 A 
HETATM   21  C   UNL     1      43.562 -17.979   2.179  1.00  0.00     0.047 A 
HETATM   22  C   UNL     1      43.710 -17.579   0.738  1.00  0.00     0.071 C 
HETATM   23  N   UNL     1      44.205 -19.132   2.518  1.00  0.00    -0.252 NA
HETATM   24  C   UNL     1      44.136 -19.581   3.781  1.00  0.00     0.070 A 
HETATM   25  C   UNL     1      43.435 -18.882   4.785  1.00  0.00    -0.006 A 
HETATM   26  C   UNL     1      44.765 -20.769   4.115  1.00  0.00     0.074 A 
HETATM   27  C   UNL     1      42.790 -17.691   4.428  1.00  0.00     0.033 A 
HETATM   28  C   UNL     1      43.385 -19.388   6.098  1.00  0.00     0.017 A 
HETATM   29  C   UNL     1      44.019 -20.588   6.407  1.00  0.00     0.043 A 
HETATM   30  C   UNL     1      44.704 -21.268   5.411  1.00  0.00     0.118 A 
HETATM   31  F   UNL     1      45.312 -22.424   5.703  1.00  0.00    -0.206 F 
ENDBRANCH   1  20
TORSDOF 3
ENDMDL
MODEL 10
REMARK VINA RESULT:      -8.7      2.590      3.677
REMARK  3 active torsions:
REMARK  status: ('A' for Active; 'I' for Inactive)
REMARK    1  A    between atoms: C_7  and  C_8 
REMARK       I    between atoms: C_8  and  N_9 
REMARK    2  A    between atoms: N_9  and  C_10 
REMARK    3  A    between atoms: C_17  and  C_18 
REMARK       I    between atoms: C_18  and  N_19 
ROOT
HETATM    1  C   UNL     1      42.761 -16.117   5.631  1.00  0.00     0.258 C 
HETATM    2  N   UNL     1      43.596 -15.017   5.513  1.00  0.00    -0.323 N 
HETATM    3  O   UNL     1      41.909 -16.274   6.495  1.00  0.00    -0.267 OA
HETATM    4  H   UNL     1      44.172 -14.939   4.687  1.00  0.00     0.169 HD
ENDROOT
BRANCH   2   5
HETATM    5  C   UNL     1      43.762 -13.973   6.451  1.00  0.00     0.036 A 
HETATM    6  C   UNL     1      42.842 -12.928   6.611  1.00  0.00     0.046 A 
HETATM    7  C   UNL     1      43.044 -11.978   7.636  1.00  0.00     0.030 A 
HETATM    8  C   UNL     1      44.182 -12.077   8.428  1.00  0.00     0.063 A 
HETATM    9  C   UNL     1      42.330 -10.854   8.157  1.00  0.00     0.156 A 
HETATM   10  N   UNL     1      44.111 -11.026   9.299  1.00  0.00    -0.277 N 
HETATM   11  C   UNL     1      45.127 -13.092   8.282  1.00  0.00     0.034 A 
HETATM   12  H   UNL     1      44.781 -10.777  10.017  1.00  0.00     0.189 HD
HETATM   13  N   UNL     1      43.003 -10.276   9.177  1.00  0.00    -0.168 NA
HETATM   14  C   UNL     1      44.881 -14.050   7.291  1.00  0.00     0.032 A 
BRANCH   9  15
HETATM   15  C   UNL     1      41.019 -10.350   7.727  1.00  0.00     0.270 C 
HETATM   16  N   UNL     1      41.069  -9.132   7.104  1.00  0.00    -0.365 N 
HETATM   17  H   UNL     1      41.966  -8.670   7.016  1.00  0.00     0.159 HD
HETATM   18  H   UNL     1      40.213  -8.681   6.822  1.00  0.00     0.159 HD
HETATM   19  O   UNL     1      39.952 -10.924   7.912  1.00  0.00    -0.266 OA
ENDBRANCH   9  15
ENDBRANCH   2   5
BRANCH   1  20
HETATM   20  C   UNL     1      42.945 -17.172   4.589  1.00  0.00     0.057 A 
HETATM   21  C   UNL     1      42.261 -17.121   3.372  1.00  0.00     0.047 A 
HETATM   22  C   UNL     1      41.354 -15.985   2.991  1.00  0.00     0.071 C 
HETATM   23  N   UNL     1      42.361 -18.108   2.437  1.00  0.00    -0.252 NA
HETATM   24  C   UNL     1      43.145 -19.170   2.678  1.00  0.00     0.070 A 
HETATM   25  C   UNL     1      43.896 -19.291   3.865  1.00  0.00    -0.006 A 
HETATM   26  C   UNL     1      43.221 -20.185   1.739  1.00  0.00     0.074 A 
HETATM   27  C   UNL     1      43.796 -18.263   4.813  1.00  0.00     0.033 A 
HETATM   28  C   UNL     1      44.705 -20.422   4.081  1.00  0.00     0.017 A 
HETATM   29  C   UNL     1      44.759 -21.433   3.126  1.00  0.00     0.043 A 
HETATM   30  C   UNL     1      44.015 -21.304   1.962  1.00  0.00     0.118 A 
HETATM   31  F   UNL     1      44.061 -22.276   1.042  1.00  0.00    -0.206 F 
ENDBRANCH   1  20
TORSDOF 3
ENDMDL
