MODEL 1
REMARK VINA RESULT:      -7.8      0.000      0.000
REMARK  3 active torsions:
REMARK  status: ('A' for Active; 'I' for Inactive)
REMARK    1  A    between atoms: C_2  and  N_3 
REMARK       I    between atoms: N_3  and  C_4 
REMARK    2  A    between atoms: C_4  and  C_5 
REMARK    3  A    between atoms: C_5  and  C_6 
ROOT
HETATM    1  C   UNL     1      42.203 -15.038   5.179  1.00  0.00     0.286 C 
HETATM    2  N   UNL     1      43.216 -14.956   4.039  1.00  0.00    -0.056 N 
HETATM    3  H   UNL     1      43.333 -13.959   3.818  1.00  0.00     0.278 HD
HETATM    4  H   UNL     1      44.147 -15.231   4.421  1.00  0.00     0.278 HD
HETATM    5  C   UNL     1      42.906 -15.685   2.766  1.00  0.00     0.209 C 
HETATM    6  C   UNL     1      41.453 -15.376   2.334  1.00  0.00     0.115 C 
HETATM    7  N   UNL     1      40.495 -15.515   3.428  1.00  0.00    -0.353 N 
HETATM    8  C   UNL     1      40.744 -15.070   4.701  1.00  0.00     0.249 C 
HETATM    9  O   UNL     1      39.810 -14.816   5.455  1.00  0.00    -0.271 OA
HETATM   10  C   UNL     1      43.208 -17.177   2.906  1.00  0.00     0.035 C 
HETATM   11  C   UNL     1      42.807 -17.942   1.648  1.00  0.00     0.002 C 
HETATM   12  C   UNL     1      41.337 -17.710   1.312  1.00  0.00     0.002 C 
HETATM   13  C   UNL     1      41.035 -16.222   1.126  1.00  0.00     0.027 C 
HETATM   14  H   UNL     1      39.503 -15.468   3.196  1.00  0.00     0.163 HD
ENDROOT
BRANCH   1  15
HETATM   15  C   UNL     1      42.412 -16.235   6.121  1.00  0.00     0.146 C 
BRANCH  15  16
HETATM   16  C   UNL     1      43.710 -16.184   6.875  1.00  0.00     0.224 C 
HETATM   17  N   UNL     1      44.504 -17.274   7.039  1.00  0.00    -0.327 N 
HETATM   18  H   UNL     1      45.319 -17.049   7.604  1.00  0.00     0.169 HD
HETATM   19  O   UNL     1      44.095 -15.097   7.328  1.00  0.00    -0.273 OA
BRANCH  17  20
HETATM   20  C   UNL     1      44.454 -18.608   6.588  1.00  0.00     0.034 A 
HETATM   21  C   UNL     1      43.834 -19.678   7.237  1.00  0.00     0.031 A 
HETATM   22  C   UNL     1      43.836 -20.960   6.669  1.00  0.00     0.026 A 
HETATM   23  C   UNL     1      44.459 -21.185   5.446  1.00  0.00     0.034 A 
HETATM   24  C   UNL     1      45.083 -20.137   4.785  1.00  0.00     0.026 A 
HETATM   25 CL   UNL     1      44.451 -22.758   4.756  1.00  0.00    -0.084 Cl
HETATM   26  C   UNL     1      45.078 -18.857   5.353  1.00  0.00     0.031 A 
ENDBRANCH  17  20
ENDBRANCH  15  16
ENDBRANCH   1  15
TORSDOF 3
ENDMDL
MODEL 2
REMARK VINA RESULT:      -7.8      2.190      4.311
REMARK  3 active torsions:
REMARK  status: ('A' for Active; 'I' for Inactive)
REMARK    1  A    between atoms: C_2  and  N_3 
REMARK       I    between atoms: N_3  and  C_4 
REMARK    2  A    between atoms: C_4  and  C_5 
REMARK    3  A    between atoms: C_5  and  C_6 
ROOT
HETATM    1  C   UNL     1      41.094 -15.696   3.411  1.00  0.00     0.286 C 
HETATM    2  N   UNL     1      40.524 -15.458   4.808  1.00  0.00    -0.056 N 
HETATM    3  H   UNL     1      40.196 -14.484   4.831  1.00  0.00     0.278 HD
HETATM    4  H   UNL     1      39.645 -16.014   4.892  1.00  0.00     0.278 HD
HETATM    5  C   UNL     1      41.427 -15.677   5.985  1.00  0.00     0.209 C 
HETATM    6  C   UNL     1      42.782 -14.973   5.733  1.00  0.00     0.115 C 
HETATM    7  N   UNL     1      43.334 -15.261   4.413  1.00  0.00    -0.353 N 
HETATM    8  C   UNL     1      42.569 -15.294   3.274  1.00  0.00     0.249 C 
HETATM    9  O   UNL     1      43.092 -15.114   2.178  1.00  0.00    -0.271 OA
HETATM   10  C   UNL     1      41.551 -17.166   6.306  1.00  0.00     0.035 C 
HETATM   11  C   UNL     1      42.542 -17.406   7.441  1.00  0.00     0.002 C 
HETATM   12  C   UNL     1      43.904 -16.800   7.115  1.00  0.00     0.002 C 
HETATM   13  C   UNL     1      43.796 -15.301   6.836  1.00  0.00     0.027 C 
HETATM   14  H   UNL     1      44.287 -14.953   4.221  1.00  0.00     0.163 HD
ENDROOT
BRANCH   1  15
HETATM   15  C   UNL     1      40.956 -17.145   2.914  1.00  0.00     0.146 C 
BRANCH  15  16
HETATM   16  C   UNL     1      41.659 -17.401   1.612  1.00  0.00     0.224 C 
HETATM   17  N   UNL     1      42.718 -18.244   1.507  1.00  0.00    -0.327 N 
HETATM   18  H   UNL     1      43.078 -18.260   0.556  1.00  0.00     0.169 HD
HETATM   19  O   UNL     1      41.232 -16.855   0.586  1.00  0.00    -0.273 OA
BRANCH  17  20
HETATM   20  C   UNL     1      43.393 -19.099   2.402  1.00  0.00     0.034 A 
HETATM   21  C   UNL     1      43.856 -18.762   3.676  1.00  0.00     0.031 A 
HETATM   22  C   UNL     1      44.495 -19.716   4.481  1.00  0.00     0.026 A 
HETATM   23  C   UNL     1      44.678 -21.014   4.021  1.00  0.00     0.034 A 
HETATM   24  C   UNL     1      44.228 -21.370   2.757  1.00  0.00     0.026 A 
HETATM   25 CL   UNL     1      45.458 -22.176   5.018  1.00  0.00    -0.084 Cl
HETATM   26  C   UNL     1      43.588 -20.418   1.956  1.00  0.00     0.031 A 
ENDBRANCH  17  20
ENDBRANCH  15  16
ENDBRANCH   1  15
TORSDOF 3
ENDMDL
MODEL 3
REMARK VINA RESULT:      -7.5      1.986      4.712
REMARK  3 active torsions:
REMARK  status: ('A' for Active; 'I' for Inactive)
REMARK    1  A    between atoms: C_2  and  N_3 
REMARK       I    between atoms: N_3  and  C_4 
REMARK    2  A    between atoms: C_4  and  C_5 
REMARK    3  A    between atoms: C_5  and  C_6 
ROOT
HETATM    1  C   UNL     1      42.601 -14.619   5.224  1.00  0.00     0.286 C 
HETATM    2  N   UNL     1      41.841 -15.944   5.229  1.00  0.00    -0.056 N 
HETATM    3  H   UNL     1      40.915 -15.753   5.634  1.00  0.00     0.278 HD
HETATM    4  H   UNL     1      41.628 -16.192   4.239  1.00  0.00     0.278 HD
HETATM    5  C   UNL     1      42.445 -17.102   5.967  1.00  0.00     0.209 C 
HETATM    6  C   UNL     1      42.902 -16.637   7.371  1.00  0.00     0.115 C 
HETATM    7  N   UNL     1      43.673 -15.398   7.335  1.00  0.00    -0.353 N 
HETATM    8  C   UNL     1      43.339 -14.331   6.540  1.00  0.00     0.249 C 
HETATM    9  O   UNL     1      43.723 -13.204   6.833  1.00  0.00    -0.271 OA
HETATM   10  C   UNL     1      43.551 -17.756   5.139  1.00  0.00     0.035 C 
HETATM   11  C   UNL     1      44.237 -18.874   5.920  1.00  0.00     0.002 C 
HETATM   12  C   UNL     1      44.779 -18.359   7.251  1.00  0.00     0.002 C 
HETATM   13  C   UNL     1      43.670 -17.743   8.104  1.00  0.00     0.027 C 
HETATM   14  H   UNL     1      44.130 -15.101   8.197  1.00  0.00     0.163 HD
ENDROOT
BRANCH   1  15
HETATM   15  C   UNL     1      43.616 -14.481   4.078  1.00  0.00     0.146 C 
BRANCH  15  16
HETATM   16  C   UNL     1      42.983 -14.184   2.750  1.00  0.00     0.224 C 
HETATM   17  N   UNL     1      42.681 -15.156   1.850  1.00  0.00    -0.327 N 
HETATM   18  H   UNL     1      42.291 -14.758   1.000  1.00  0.00     0.169 HD
HETATM   19  O   UNL     1      42.685 -13.013   2.479  1.00  0.00    -0.273 OA
BRANCH  17  20
HETATM   20  C   UNL     1      42.767 -16.564   1.851  1.00  0.00     0.034 A 
HETATM   21  C   UNL     1      41.700 -17.456   1.966  1.00  0.00     0.031 A 
HETATM   22  C   UNL     1      41.917 -18.842   1.929  1.00  0.00     0.026 A 
HETATM   23  C   UNL     1      43.204 -19.346   1.777  1.00  0.00     0.034 A 
HETATM   24  C   UNL     1      44.279 -18.477   1.662  1.00  0.00     0.026 A 
HETATM   25 CL   UNL     1      43.458 -21.045   1.727  1.00  0.00    -0.084 Cl
HETATM   26  C   UNL     1      44.060 -17.095   1.697  1.00  0.00     0.031 A 
ENDBRANCH  17  20
ENDBRANCH  15  16
ENDBRANCH   1  15
TORSDOF 3
ENDMDL
MODEL 4
REMARK VINA RESULT:      -7.3      3.325      4.751
REMARK  3 active torsions:
REMARK  status: ('A' for Active; 'I' for Inactive)
REMARK    1  A    between atoms: C_2  and  N_3 
REMARK       I    between atoms: N_3  and  C_4 
REMARK    2  A    between atoms: C_4  and  C_5 
REMARK    3  A    between atoms: C_5  and  C_6 
ROOT
HETATM    1  C   UNL     1      40.415 -13.695   1.222  1.00  0.00     0.286 C 
HETATM    2  N   UNL     1      40.920 -12.629   0.253  1.00  0.00    -0.056 N 
HETATM    3  H   UNL     1      40.479 -11.743   0.531  1.00  0.00     0.278 HD
HETATM    4  H   UNL     1      41.931 -12.471   0.452  1.00  0.00     0.278 HD
HETATM    5  C   UNL     1      40.673 -12.834  -1.213  1.00  0.00     0.209 C 
HETATM    6  C   UNL     1      39.196 -13.234  -1.437  1.00  0.00     0.115 C 
HETATM    7  N   UNL     1      38.753 -14.294  -0.536  1.00  0.00    -0.353 N 
HETATM    8  C   UNL     1      39.083 -14.331   0.795  1.00  0.00     0.249 C 
HETATM    9  O   UNL     1      38.381 -14.954   1.585  1.00  0.00    -0.271 OA
HETATM   10  C   UNL     1      41.681 -13.823  -1.800  1.00  0.00     0.035 C 
HETATM   11  C   UNL     1      41.380 -14.111  -3.268  1.00  0.00     0.002 C 
HETATM   12  C   UNL     1      39.950 -14.615  -3.444  1.00  0.00     0.002 C 
HETATM   13  C   UNL     1      38.934 -13.611  -2.900  1.00  0.00     0.027 C 
HETATM   14  H   UNL     1      37.839 -14.712  -0.712  1.00  0.00     0.163 HD
ENDROOT
BRANCH   1  15
HETATM   15  C   UNL     1      41.415 -14.834   1.482  1.00  0.00     0.146 C 
BRANCH  15  16
HETATM   16  C   UNL     1      42.625 -14.402   2.260  1.00  0.00     0.224 C 
HETATM   17  N   UNL     1      43.496 -15.288   2.807  1.00  0.00    -0.327 N 
HETATM   18  H   UNL     1      44.230 -14.808   3.322  1.00  0.00     0.169 HD
HETATM   19  O   UNL     1      42.861 -13.192   2.373  1.00  0.00    -0.273 OA
BRANCH  17  20
HETATM   20  C   UNL     1      43.615 -16.693   2.795  1.00  0.00     0.034 A 
HETATM   21  C   UNL     1      43.497 -17.542   3.898  1.00  0.00     0.031 A 
HETATM   22  C   UNL     1      43.614 -18.931   3.748  1.00  0.00     0.026 A 
HETATM   23  C   UNL     1      43.850 -19.485   2.495  1.00  0.00     0.034 A 
HETATM   24  C   UNL     1      43.971 -18.660   1.386  1.00  0.00     0.026 A 
HETATM   25 CL   UNL     1      43.985 -21.190   2.322  1.00  0.00    -0.084 Cl
HETATM   26  C   UNL     1      43.853 -17.274   1.537  1.00  0.00     0.031 A 
ENDBRANCH  17  20
ENDBRANCH  15  16
ENDBRANCH   1  15
TORSDOF 3
ENDMDL
MODEL 5
REMARK VINA RESULT:      -7.2      2.296      3.986
REMARK  3 active torsions:
REMARK  status: ('A' for Active; 'I' for Inactive)
REMARK    1  A    between atoms: C_2  and  N_3 
REMARK       I    between atoms: N_3  and  C_4 
REMARK    2  A    between atoms: C_4  and  C_5 
REMARK    3  A    between atoms: C_5  and  C_6 
ROOT
HETATM    1  C   UNL     1      42.037 -15.605   5.191  1.00  0.00     0.286 C 
HETATM    2  N   UNL     1      42.590 -14.184   5.110  1.00  0.00    -0.056 N 
HETATM    3  H   UNL     1      43.219 -14.065   5.915  1.00  0.00     0.278 HD
HETATM    4  H   UNL     1      43.231 -14.138   4.290  1.00  0.00     0.278 HD
HETATM    5  C   UNL     1      41.613 -13.046   5.109  1.00  0.00     0.209 C 
HETATM    6  C   UNL     1      40.578 -13.251   6.241  1.00  0.00     0.115 C 
HETATM    7  N   UNL     1      40.023 -14.602   6.262  1.00  0.00    -0.353 N 
HETATM    8  C   UNL     1      40.784 -15.727   6.071  1.00  0.00     0.249 C 
HETATM    9  O   UNL     1      40.400 -16.809   6.504  1.00  0.00    -0.271 OA
HETATM   10  C   UNL     1      40.991 -12.866   3.724  1.00  0.00     0.035 C 
HETATM   11  C   UNL     1      39.926 -11.773   3.735  1.00  0.00     0.002 C 
HETATM   12  C   UNL     1      38.856 -12.062   4.784  1.00  0.00     0.002 C 
HETATM   13  C   UNL     1      39.465 -12.199   6.179  1.00  0.00     0.027 C 
HETATM   14  H   UNL     1      39.234 -14.778   6.885  1.00  0.00     0.163 HD
ENDROOT
BRANCH   1  15
HETATM   15  C   UNL     1      41.711 -16.232   3.825  1.00  0.00     0.146 C 
BRANCH  15  16
HETATM   16  C   UNL     1      42.802 -16.051   2.809  1.00  0.00     0.224 C 
HETATM   17  N   UNL     1      43.767 -16.984   2.599  1.00  0.00    -0.327 N 
HETATM   18  H   UNL     1      44.433 -16.668   1.898  1.00  0.00     0.169 HD
HETATM   19  O   UNL     1      42.799 -15.032   2.105  1.00  0.00    -0.273 OA
BRANCH  17  20
HETATM   20  C   UNL     1      44.024 -18.272   3.112  1.00  0.00     0.034 A 
HETATM   21  C   UNL     1      44.017 -19.466   2.387  1.00  0.00     0.031 A 
HETATM   22  C   UNL     1      44.314 -20.685   3.013  1.00  0.00     0.026 A 
HETATM   23  C   UNL     1      44.620 -20.722   4.369  1.00  0.00     0.034 A 
HETATM   24  C   UNL     1      44.631 -19.548   5.108  1.00  0.00     0.026 A 
HETATM   25 CL   UNL     1      44.988 -22.221   5.125  1.00  0.00    -0.084 Cl
HETATM   26  C   UNL     1      44.336 -18.332   4.481  1.00  0.00     0.031 A 
ENDBRANCH  17  20
ENDBRANCH  15  16
ENDBRANCH   1  15
TORSDOF 3
ENDMDL
MODEL 6
REMARK VINA RESULT:      -7.1      2.298      3.815
REMARK  3 active torsions:
REMARK  status: ('A' for Active; 'I' for Inactive)
REMARK    1  A    between atoms: C_2  and  N_3 
REMARK       I    between atoms: N_3  and  C_4 
REMARK    2  A    between atoms: C_4  and  C_5 
REMARK    3  A    between atoms: C_5  and  C_6 
ROOT
HETATM    1  C   UNL     1      41.189 -15.690   4.806  1.00  0.00     0.286 C 
HETATM    2  N   UNL     1      40.798 -14.920   6.065  1.00  0.00    -0.056 N 
HETATM    3  H   UNL     1      39.973 -15.392   6.457  1.00  0.00     0.278 HD
HETATM    4  H   UNL     1      41.537 -15.087   6.782  1.00  0.00     0.278 HD
HETATM    5  C   UNL     1      40.482 -13.460   5.930  1.00  0.00     0.209 C 
HETATM    6  C   UNL     1      39.514 -13.249   4.741  1.00  0.00     0.115 C 
HETATM    7  N   UNL     1      39.938 -13.950   3.533  1.00  0.00    -0.353 N 
HETATM    8  C   UNL     1      40.442 -15.226   3.546  1.00  0.00     0.249 C 
HETATM    9  O   UNL     1      40.385 -15.919   2.536  1.00  0.00    -0.271 OA
HETATM   10  C   UNL     1      41.765 -12.633   5.840  1.00  0.00     0.035 C 
HETATM   11  C   UNL     1      41.454 -11.157   5.606  1.00  0.00     0.002 C 
HETATM   12  C   UNL     1      40.592 -10.970   4.361  1.00  0.00     0.002 C 
HETATM   13  C   UNL     1      39.287 -11.759   4.462  1.00  0.00     0.027 C 
HETATM   14  H   UNL     1      39.435 -13.750   2.670  1.00  0.00     0.163 HD
ENDROOT
BRANCH   1  15
HETATM   15  C   UNL     1      42.695 -15.663   4.493  1.00  0.00     0.146 C 
BRANCH  15  16
HETATM   16  C   UNL     1      43.540 -16.290   5.564  1.00  0.00     0.224 C 
HETATM   17  N   UNL     1      44.035 -17.550   5.460  1.00  0.00    -0.327 N 
HETATM   18  H   UNL     1      44.552 -17.809   6.296  1.00  0.00     0.169 HD
HETATM   19  O   UNL     1      43.832 -15.619   6.563  1.00  0.00    -0.273 OA
BRANCH  17  20
HETATM   20  C   UNL     1      44.008 -18.543   4.458  1.00  0.00     0.034 A 
HETATM   21  C   UNL     1      43.365 -18.451   3.222  1.00  0.00     0.031 A 
HETATM   22  C   UNL     1      43.433 -19.505   2.299  1.00  0.00     0.026 A 
HETATM   23  C   UNL     1      44.146 -20.660   2.604  1.00  0.00     0.034 A 
HETATM   24  C   UNL     1      44.791 -20.772   3.827  1.00  0.00     0.026 A 
HETATM   25 CL   UNL     1      44.228 -21.943   1.464  1.00  0.00    -0.084 Cl
HETATM   26  C   UNL     1      44.723 -19.718   4.746  1.00  0.00     0.031 A 
ENDBRANCH  17  20
ENDBRANCH  15  16
ENDBRANCH   1  15
TORSDOF 3
ENDMDL
MODEL 7
REMARK VINA RESULT:      -7.1      1.594      2.215
REMARK  3 active torsions:
REMARK  status: ('A' for Active; 'I' for Inactive)
REMARK    1  A    between atoms: C_2  and  N_3 
REMARK       I    between atoms: N_3  and  C_4 
REMARK    2  A    between atoms: C_4  and  C_5 
REMARK    3  A    between atoms: C_5  and  C_6 
ROOT
HETATM    1  C   UNL     1      41.854 -13.954   3.323  1.00  0.00     0.286 C 
HETATM    2  N   UNL     1      42.207 -14.127   1.847  1.00  0.00    -0.056 N 
HETATM    3  H   UNL     1      41.525 -13.573   1.312  1.00  0.00     0.278 HD
HETATM    4  H   UNL     1      43.110 -13.635   1.676  1.00  0.00     0.278 HD
HETATM    5  C   UNL     1      42.223 -15.517   1.284  1.00  0.00     0.209 C 
HETATM    6  C   UNL     1      40.937 -16.263   1.711  1.00  0.00     0.115 C 
HETATM    7  N   UNL     1      40.651 -16.129   3.136  1.00  0.00    -0.353 N 
HETATM    8  C   UNL     1      40.794 -14.948   3.820  1.00  0.00     0.249 C 
HETATM    9  O   UNL     1      40.167 -14.760   4.858  1.00  0.00    -0.271 OA
HETATM   10  C   UNL     1      43.516 -16.241   1.662  1.00  0.00     0.035 C 
HETATM   11  C   UNL     1      43.501 -17.687   1.174  1.00  0.00     0.002 C 
HETATM   12  C   UNL     1      42.279 -18.431   1.707  1.00  0.00     0.002 C 
HETATM   13  C   UNL     1      40.980 -17.738   1.295  1.00  0.00     0.027 C 
HETATM   14  H   UNL     1      39.904 -16.704   3.524  1.00  0.00     0.163 HD
ENDROOT
BRANCH   1  15
HETATM   15  C   UNL     1      43.060 -14.042   4.272  1.00  0.00     0.146 C 
BRANCH  15  16
HETATM   16  C   UNL     1      42.681 -14.025   5.725  1.00  0.00     0.224 C 
HETATM   17  N   UNL     1      42.803 -15.116   6.525  1.00  0.00    -0.327 N 
HETATM   18  H   UNL     1      42.465 -14.919   7.463  1.00  0.00     0.169 HD
HETATM   19  O   UNL     1      42.281 -12.965   6.225  1.00  0.00    -0.273 OA
BRANCH  17  20
HETATM   20  C   UNL     1      43.306 -16.421   6.346  1.00  0.00     0.034 A 
HETATM   21  C   UNL     1      44.583 -16.868   6.690  1.00  0.00     0.031 A 
HETATM   22  C   UNL     1      44.955 -18.204   6.480  1.00  0.00     0.026 A 
HETATM   23  C   UNL     1      44.053 -19.105   5.925  1.00  0.00     0.034 A 
HETATM   24  C   UNL     1      42.780 -18.681   5.574  1.00  0.00     0.026 A 
HETATM   25 CL   UNL     1      44.517 -20.741   5.677  1.00  0.00    -0.084 Cl
HETATM   26  C   UNL     1      42.410 -17.348   5.786  1.00  0.00     0.031 A 
ENDBRANCH  17  20
ENDBRANCH  15  16
ENDBRANCH   1  15
TORSDOF 3
ENDMDL
MODEL 8
REMARK VINA RESULT:      -7.0      2.521      3.730
REMARK  3 active torsions:
REMARK  status: ('A' for Active; 'I' for Inactive)
REMARK    1  A    between atoms: C_2  and  N_3 
REMARK       I    between atoms: N_3  and  C_4 
REMARK    2  A    between atoms: C_4  and  C_5 
REMARK    3  A    between atoms: C_5  and  C_6 
ROOT
HETATM    1  C   UNL     1      41.234 -16.368   2.592  1.00  0.00     0.286 C 
HETATM    2  N   UNL     1      40.237 -15.748   3.569  1.00  0.00    -0.056 N 
HETATM    3  H   UNL     1      39.530 -16.468   3.766  1.00  0.00     0.278 HD
HETATM    4  H   UNL     1      40.723 -15.625   4.484  1.00  0.00     0.278 HD
HETATM    5  C   UNL     1      39.526 -14.495   3.151  1.00  0.00     0.209 C 
HETATM    6  C   UNL     1      38.972 -14.670   1.717  1.00  0.00     0.115 C 
HETATM    7  N   UNL     1      39.960 -15.212   0.789  1.00  0.00    -0.353 N 
HETATM    8  C   UNL     1      40.818 -16.230   1.121  1.00  0.00     0.249 C 
HETATM    9  O   UNL     1      41.313 -16.927   0.240  1.00  0.00    -0.271 OA
HETATM   10  C   UNL     1      40.430 -13.274   3.323  1.00  0.00     0.035 C 
HETATM   11  C   UNL     1      39.750 -12.008   2.811  1.00  0.00     0.002 C 
HETATM   12  C   UNL     1      39.316 -12.169   1.357  1.00  0.00     0.002 C 
HETATM   13  C   UNL     1      38.376 -13.362   1.184  1.00  0.00     0.027 C 
HETATM   14  H   UNL     1      39.721 -15.225  -0.202  1.00  0.00     0.163 HD
ENDROOT
BRANCH   1  15
HETATM   15  C   UNL     1      42.667 -15.824   2.726  1.00  0.00     0.146 C 
BRANCH  15  16
HETATM   16  C   UNL     1      43.232 -15.960   4.111  1.00  0.00     0.224 C 
HETATM   17  N   UNL     1      43.732 -17.131   4.584  1.00  0.00    -0.327 N 
HETATM   18  H   UNL     1      44.035 -17.033   5.550  1.00  0.00     0.169 HD
HETATM   19  O   UNL     1      43.283 -14.957   4.836  1.00  0.00    -0.273 OA
BRANCH  17  20
HETATM   20  C   UNL     1      43.938 -18.412   4.032  1.00  0.00     0.034 A 
HETATM   21  C   UNL     1      43.647 -18.804   2.724  1.00  0.00     0.031 A 
HETATM   22  C   UNL     1      43.922 -20.109   2.290  1.00  0.00     0.026 A 
HETATM   23  C   UNL     1      44.491 -21.033   3.159  1.00  0.00     0.034 A 
HETATM   24  C   UNL     1      44.787 -20.664   4.464  1.00  0.00     0.026 A 
HETATM   25 CL   UNL     1      44.830 -22.628   2.615  1.00  0.00    -0.084 Cl
HETATM   26  C   UNL     1      44.513 -19.361   4.895  1.00  0.00     0.031 A 
ENDBRANCH  17  20
ENDBRANCH  15  16
ENDBRANCH   1  15
TORSDOF 3
ENDMDL
MODEL 9
REMARK VINA RESULT:      -6.8      4.063      5.826
REMARK  3 active torsions:
REMARK  status: ('A' for Active; 'I' for Inactive)
REMARK    1  A    between atoms: C_2  and  N_3 
REMARK       I    between atoms: N_3  and  C_4 
REMARK    2  A    between atoms: C_4  and  C_5 
REMARK    3  A    between atoms: C_5  and  C_6 
ROOT
HETATM    1  C   UNL     1      41.027 -12.824   0.015  1.00  0.00     0.286 C 
HETATM    2  N   UNL     1      39.647 -13.005   0.645  1.00  0.00    -0.056 N 
HETATM    3  H   UNL     1      39.024 -12.323   0.193  1.00  0.00     0.278 HD
HETATM    4  H   UNL     1      39.272 -13.925   0.329  1.00  0.00     0.278 HD
HETATM    5  C   UNL     1      39.523 -12.840   2.130  1.00  0.00     0.209 C 
HETATM    6  C   UNL     1      40.246 -11.544   2.568  1.00  0.00     0.115 C 
HETATM    7  N   UNL     1      41.584 -11.421   1.997  1.00  0.00    -0.353 N 
HETATM    8  C   UNL     1      41.874 -11.738   0.695  1.00  0.00     0.249 C 
HETATM    9  O   UNL     1      42.852 -11.241   0.144  1.00  0.00    -0.271 OA
HETATM   10  C   UNL     1      40.004 -14.095   2.858  1.00  0.00     0.035 C 
HETATM   11  C   UNL     1      39.971 -13.902   4.372  1.00  0.00     0.002 C 
HETATM   12  C   UNL     1      40.788 -12.682   4.785  1.00  0.00     0.002 C 
HETATM   13  C   UNL     1      40.285 -11.413   4.095  1.00  0.00     0.027 C 
HETATM   14  H   UNL     1      42.179 -10.670   2.346  1.00  0.00     0.163 HD
ENDROOT
BRANCH   1  15
HETATM   15  C   UNL     1      41.868 -14.110  -0.037  1.00  0.00     0.146 C 
BRANCH  15  16
HETATM   16  C   UNL     1      41.124 -15.290  -0.592  1.00  0.00     0.224 C 
HETATM   17  N   UNL     1      41.227 -16.535  -0.059  1.00  0.00    -0.327 N 
HETATM   18  H   UNL     1      40.677 -17.206  -0.590  1.00  0.00     0.169 HD
HETATM   19  O   UNL     1      40.355 -15.116  -1.546  1.00  0.00    -0.273 OA
BRANCH  17  20
HETATM   20  C   UNL     1      41.893 -17.080   1.058  1.00  0.00     0.034 A 
HETATM   21  C   UNL     1      41.337 -17.318   2.317  1.00  0.00     0.031 A 
HETATM   22  C   UNL     1      42.105 -17.889   3.342  1.00  0.00     0.026 A 
HETATM   23  C   UNL     1      43.435 -18.227   3.119  1.00  0.00     0.034 A 
HETATM   24  C   UNL     1      44.008 -17.997   1.876  1.00  0.00     0.026 A 
HETATM   25 CL   UNL     1      44.365 -18.931   4.381  1.00  0.00    -0.084 Cl
HETATM   26  C   UNL     1      43.240 -17.429   0.853  1.00  0.00     0.031 A 
ENDBRANCH  17  20
ENDBRANCH  15  16
ENDBRANCH   1  15
TORSDOF 3
ENDMDL
MODEL 10
REMARK VINA RESULT:      -6.8      3.499      5.947
REMARK  3 active torsions:
REMARK  status: ('A' for Active; 'I' for Inactive)
REMARK    1  A    between atoms: C_2  and  N_3 
REMARK       I    between atoms: N_3  and  C_4 
REMARK    2  A    between atoms: C_4  and  C_5 
REMARK    3  A    between atoms: C_5  and  C_6 
ROOT
HETATM    1  C   UNL     1      42.957 -17.502   4.071  1.00  0.00     0.286 C 
HETATM    2  N   UNL     1      44.352 -17.846   4.589  1.00  0.00    -0.056 N 
HETATM    3  H   UNL     1      45.012 -17.239   4.087  1.00  0.00     0.278 HD
HETATM    4  H   UNL     1      44.416 -17.512   5.575  1.00  0.00     0.278 HD
HETATM    5  C   UNL     1      44.825 -19.263   4.456  1.00  0.00     0.209 C 
HETATM    6  C   UNL     1      44.550 -19.767   3.020  1.00  0.00     0.115 C 
HETATM    7  N   UNL     1      43.192 -19.476   2.568  1.00  0.00    -0.353 N 
HETATM    8  C   UNL     1      42.565 -18.280   2.806  1.00  0.00     0.249 C 
HETATM    9  O   UNL     1      41.644 -17.915   2.082  1.00  0.00    -0.271 OA
HETATM   10  C   UNL     1      44.219 -20.142   5.550  1.00  0.00     0.035 C 
HETATM   11  C   UNL     1      44.618 -21.604   5.367  1.00  0.00     0.002 C 
HETATM   12  C   UNL     1      44.230 -22.108   3.980  1.00  0.00     0.002 C 
HETATM   13  C   UNL     1      44.869 -21.260   2.879  1.00  0.00     0.027 C 
HETATM   14  H   UNL     1      42.887 -19.897   1.691  1.00  0.00     0.163 HD
ENDROOT
BRANCH   1  15
HETATM   15  C   UNL     1      41.836 -17.696   5.106  1.00  0.00     0.146 C 
BRANCH  15  16
HETATM   16  C   UNL     1      42.096 -16.995   6.408  1.00  0.00     0.224 C 
HETATM   17  N   UNL     1      41.936 -15.656   6.562  1.00  0.00    -0.327 N 
HETATM   18  H   UNL     1      42.192 -15.363   7.501  1.00  0.00     0.169 HD
HETATM   19  O   UNL     1      42.430 -17.669   7.392  1.00  0.00    -0.273 OA
BRANCH  17  20
HETATM   20  C   UNL     1      41.479 -14.613   5.729  1.00  0.00     0.034 A 
HETATM   21  C   UNL     1      40.153 -14.363   5.371  1.00  0.00     0.031 A 
HETATM   22  C   UNL     1      39.826 -13.274   4.550  1.00  0.00     0.026 A 
HETATM   23  C   UNL     1      40.821 -12.426   4.080  1.00  0.00     0.034 A 
HETATM   24  C   UNL     1      42.146 -12.657   4.422  1.00  0.00     0.026 A 
HETATM   25 CL   UNL     1      40.409 -11.091   3.079  1.00  0.00    -0.084 Cl
HETATM   26  C   UNL     1      42.470 -13.743   5.243  1.00  0.00     0.031 A 
ENDBRANCH  17  20
ENDBRANCH  15  16
ENDBRANCH   1  15
TORSDOF 3
ENDMDL
