MODEL 1
REMARK VINA RESULT:      -7.4      0.000      0.000
REMARK  6 active torsions:
REMARK  status: ('A' for Active; 'I' for Inactive)
REMARK    1  A    between atoms: C_2  and  C_3 
REMARK    2  A    between atoms: C_5  and  C_6 
REMARK       I    between atoms: C_6  and  N_7 
REMARK    3  A    between atoms: N_7  and  C_8 
REMARK    4  A    between atoms: C_8  and  C_9 
REMARK    5  A    between atoms: C_9  and  C_10 
REMARK    6  A    between atoms: C_19  and  O_20 
ROOT
HETATM    1  C   UNL     1      43.231 -17.796   6.346  1.00  0.00     0.254 C 
HETATM    2  N   UNL     1      43.652 -16.709   5.614  1.00  0.00    -0.356 N 
HETATM    3  O   UNL     1      42.491 -17.686   7.319  1.00  0.00    -0.268 OA
HETATM    4  H   UNL     1      44.212 -16.900   4.788  1.00  0.00     0.162 HD
ENDROOT
BRANCH   1   5
HETATM    5  C   UNL     1      43.711 -19.145   5.903  1.00  0.00     0.065 A 
HETATM    6  C   UNL     1      44.016 -19.292   4.538  1.00  0.00     0.027 A 
HETATM    7  C   UNL     1      44.474 -20.511   4.018  1.00  0.00    -0.057 A 
HETATM    8  C   UNL     1      44.637 -21.597   4.884  1.00  0.00     0.010 A 
HETATM    9  C   UNL     1      44.338 -21.470   6.242  1.00  0.00     0.038 A 
HETATM   10  C   UNL     1      43.878 -20.251   6.749  1.00  0.00     0.081 A 
BRANCH   7  11
HETATM   11  C   UNL     1      44.817 -20.635   2.556  1.00  0.00     0.034 C 
HETATM   12  C   UNL     1      44.047 -21.766   1.888  1.00  0.00     0.010 C 
ENDBRANCH   7  11
BRANCH  10  13
HETATM   13  O   UNL     1      43.603 -20.165   8.092  1.00  0.00    -0.360 OA
HETATM   14  H   UNL     1      42.642 -20.260   8.218  1.00  0.00     0.217 HD
ENDBRANCH  10  13
ENDBRANCH   1   5
BRANCH   2  15
HETATM   15  C   UNL     1      43.176 -15.369   5.900  1.00  0.00     0.136 C 
BRANCH  15  16
HETATM   16  C   UNL     1      42.316 -14.722   4.776  1.00  0.00    -0.004 C 
HETATM   17  C   UNL     1      40.871 -14.478   5.272  1.00  0.00     0.021 C 
HETATM   18  C   UNL     1      42.909 -13.338   4.415  1.00  0.00     0.021 C 
BRANCH  16  19
HETATM   19  C   UNL     1      42.289 -15.689   3.572  1.00  0.00    -0.046 A 
HETATM   20  C   UNL     1      43.384 -15.762   2.693  1.00  0.00     0.027 A 
HETATM   21  C   UNL     1      43.340 -16.628   1.608  1.00  0.00     0.116 A 
HETATM   22  N   UNL     1      42.292 -17.427   1.329  1.00  0.00    -0.273 NA
HETATM   23  C   UNL     1      41.241 -17.346   2.168  1.00  0.00     0.116 A 
HETATM   24  C   UNL     1      41.192 -16.510   3.277  1.00  0.00     0.027 A 
ENDBRANCH  16  19
ENDBRANCH  15  16
ENDBRANCH   2  15
TORSDOF 6
ENDMDL
MODEL 2
REMARK VINA RESULT:      -7.3      4.443      7.890
REMARK  6 active torsions:
REMARK  status: ('A' for Active; 'I' for Inactive)
REMARK    1  A    between atoms: C_2  and  C_3 
REMARK    2  A    between atoms: C_5  and  C_6 
REMARK       I    between atoms: C_6  and  N_7 
REMARK    3  A    between atoms: N_7  and  C_8 
REMARK    4  A    between atoms: C_8  and  C_9 
REMARK    5  A    between atoms: C_9  and  C_10 
REMARK    6  A    between atoms: C_19  and  O_20 
ROOT
HETATM    1  C   UNL     1      41.108 -15.867   0.338  1.00  0.00     0.254 C 
HETATM    2  N   UNL     1      41.907 -16.985   0.396  1.00  0.00    -0.356 N 
HETATM    3  O   UNL     1      40.301 -15.589   1.221  1.00  0.00    -0.268 OA
HETATM    4  H   UNL     1      42.590 -17.101  -0.348  1.00  0.00     0.162 HD
ENDROOT
BRANCH   1   5
HETATM    5  C   UNL     1      41.262 -14.978  -0.858  1.00  0.00     0.065 A 
HETATM    6  C   UNL     1      41.878 -13.731  -0.646  1.00  0.00     0.027 A 
HETATM    7  C   UNL     1      42.072 -12.823  -1.697  1.00  0.00    -0.057 A 
HETATM    8  C   UNL     1      41.652 -13.176  -2.983  1.00  0.00     0.010 A 
HETATM    9  C   UNL     1      41.038 -14.409  -3.213  1.00  0.00     0.038 A 
HETATM   10  C   UNL     1      40.844 -15.305  -2.157  1.00  0.00     0.081 A 
BRANCH   7  11
HETATM   11  C   UNL     1      42.757 -11.504  -1.447  1.00  0.00     0.034 C 
HETATM   12  C   UNL     1      42.761 -10.624  -2.689  1.00  0.00     0.010 C 
ENDBRANCH   7  11
BRANCH  10  13
HETATM   13  O   UNL     1      40.243 -16.511  -2.426  1.00  0.00    -0.360 OA
HETATM   14  H   UNL     1      39.425 -16.573  -1.902  1.00  0.00     0.217 HD
ENDBRANCH  10  13
ENDBRANCH   1   5
BRANCH   2  15
HETATM   15  C   UNL     1      41.904 -17.864   1.549  1.00  0.00     0.136 C 
BRANCH  15  16
HETATM   16  C   UNL     1      43.206 -17.836   2.402  1.00  0.00    -0.004 C 
HETATM   17  C   UNL     1      44.322 -17.064   1.659  1.00  0.00     0.021 C 
HETATM   18  C   UNL     1      42.933 -17.076   3.723  1.00  0.00     0.021 C 
BRANCH  16  19
HETATM   19  C   UNL     1      43.660 -19.293   2.637  1.00  0.00    -0.046 A 
HETATM   20  C   UNL     1      43.343 -20.297   1.706  1.00  0.00     0.027 A 
HETATM   21  C   UNL     1      43.748 -21.605   1.937  1.00  0.00     0.116 A 
HETATM   22  N   UNL     1      44.443 -21.993   3.023  1.00  0.00    -0.273 NA
HETATM   23  C   UNL     1      44.736 -21.030   3.918  1.00  0.00     0.116 A 
HETATM   24  C   UNL     1      44.373 -19.696   3.774  1.00  0.00     0.027 A 
ENDBRANCH  16  19
ENDBRANCH  15  16
ENDBRANCH   2  15
TORSDOF 6
ENDMDL
MODEL 3
REMARK VINA RESULT:      -7.2      3.798      7.423
REMARK  6 active torsions:
REMARK  status: ('A' for Active; 'I' for Inactive)
REMARK    1  A    between atoms: C_2  and  C_3 
REMARK    2  A    between atoms: C_5  and  C_6 
REMARK       I    between atoms: C_6  and  N_7 
REMARK    3  A    between atoms: N_7  and  C_8 
REMARK    4  A    between atoms: C_8  and  C_9 
REMARK    5  A    between atoms: C_9  and  C_10 
REMARK    6  A    between atoms: C_19  and  O_20 
ROOT
HETATM    1  C   UNL     1      40.726 -16.160   2.304  1.00  0.00     0.254 C 
HETATM    2  N   UNL     1      41.317 -17.359   1.978  1.00  0.00    -0.356 N 
HETATM    3  O   UNL     1      40.610 -15.779   3.465  1.00  0.00    -0.268 OA
HETATM    4  H   UNL     1      41.427 -17.564   0.989  1.00  0.00     0.162 HD
ENDROOT
BRANCH   1   5
HETATM    5  C   UNL     1      40.224 -15.316   1.172  1.00  0.00     0.065 A 
HETATM    6  C   UNL     1      39.007 -14.640   1.376  1.00  0.00     0.027 A 
HETATM    7  C   UNL     1      38.450 -13.823   0.383  1.00  0.00    -0.057 A 
HETATM    8  C   UNL     1      39.128 -13.673  -0.830  1.00  0.00     0.010 A 
HETATM    9  C   UNL     1      40.337 -14.336  -1.052  1.00  0.00     0.038 A 
HETATM   10  C   UNL     1      40.882 -15.153  -0.056  1.00  0.00     0.081 A 
BRANCH   7  11
HETATM   11  C   UNL     1      37.156 -13.091   0.637  1.00  0.00     0.034 C 
HETATM   12  C   UNL     1      37.163 -11.700   0.018  1.00  0.00     0.010 C 
ENDBRANCH   7  11
BRANCH  10  13
HETATM   13  O   UNL     1      42.076 -15.782  -0.311  1.00  0.00    -0.360 OA
HETATM   14  H   UNL     1      42.544 -15.912   0.534  1.00  0.00     0.217 HD
ENDBRANCH  10  13
ENDBRANCH   1   5
BRANCH   2  15
HETATM   15  C   UNL     1      41.917 -18.210   2.987  1.00  0.00     0.136 C 
BRANCH  15  16
HETATM   16  C   UNL     1      43.471 -18.290   2.942  1.00  0.00    -0.004 C 
HETATM   17  C   UNL     1      44.012 -17.591   1.673  1.00  0.00     0.021 C 
HETATM   18  C   UNL     1      44.054 -17.530   4.159  1.00  0.00     0.021 C 
BRANCH  16  19
HETATM   19  C   UNL     1      43.878 -19.780   2.922  1.00  0.00    -0.046 A 
HETATM   20  C   UNL     1      43.598 -20.578   1.799  1.00  0.00     0.027 A 
HETATM   21  C   UNL     1      43.960 -21.919   1.799  1.00  0.00     0.116 A 
HETATM   22  N   UNL     1      44.576 -22.528   2.830  1.00  0.00    -0.273 NA
HETATM   23  C   UNL     1      44.833 -21.762   3.907  1.00  0.00     0.116 A 
HETATM   24  C   UNL     1      44.509 -20.413   4.000  1.00  0.00     0.027 A 
ENDBRANCH  16  19
ENDBRANCH  15  16
ENDBRANCH   2  15
TORSDOF 6
ENDMDL
MODEL 4
REMARK VINA RESULT:      -7.2      2.861      3.748
REMARK  6 active torsions:
REMARK  status: ('A' for Active; 'I' for Inactive)
REMARK    1  A    between atoms: C_2  and  C_3 
REMARK    2  A    between atoms: C_5  and  C_6 
REMARK       I    between atoms: C_6  and  N_7 
REMARK    3  A    between atoms: N_7  and  C_8 
REMARK    4  A    between atoms: C_8  and  C_9 
REMARK    5  A    between atoms: C_9  and  C_10 
REMARK    6  A    between atoms: C_19  and  O_20 
ROOT
HETATM    1  C   UNL     1      43.078 -16.674   3.567  1.00  0.00     0.254 C 
HETATM    2  N   UNL     1      43.084 -16.430   2.213  1.00  0.00    -0.356 N 
HETATM    3  O   UNL     1      42.540 -15.916   4.369  1.00  0.00    -0.268 OA
HETATM    4  H   UNL     1      43.498 -17.145   1.620  1.00  0.00     0.162 HD
ENDROOT
BRANCH   1   5
HETATM    5  C   UNL     1      43.756 -17.924   4.040  1.00  0.00     0.065 A 
HETATM    6  C   UNL     1      43.890 -18.965   3.103  1.00  0.00     0.027 A 
HETATM    7  C   UNL     1      44.510 -20.177   3.442  1.00  0.00    -0.057 A 
HETATM    8  C   UNL     1      45.011 -20.343   4.736  1.00  0.00     0.010 A 
HETATM    9  C   UNL     1      44.887 -19.321   5.679  1.00  0.00     0.038 A 
HETATM   10  C   UNL     1      44.262 -18.118   5.334  1.00  0.00     0.081 A 
BRANCH   7  11
HETATM   11  C   UNL     1      44.663 -21.267   2.412  1.00  0.00     0.034 C 
HETATM   12  C   UNL     1      43.355 -21.546   1.685  1.00  0.00     0.010 C 
ENDBRANCH   7  11
BRANCH  10  13
HETATM   13  O   UNL     1      44.167 -17.135   6.288  1.00  0.00    -0.360 OA
HETATM   14  H   UNL     1      44.870 -17.274   6.947  1.00  0.00     0.217 HD
ENDBRANCH  10  13
ENDBRANCH   1   5
BRANCH   2  15
HETATM   15  C   UNL     1      42.381 -15.299   1.640  1.00  0.00     0.136 C 
BRANCH  15  16
HETATM   16  C   UNL     1      41.117 -15.663   0.806  1.00  0.00    -0.004 C 
HETATM   17  C   UNL     1      40.957 -17.199   0.710  1.00  0.00     0.021 C 
HETATM   18  C   UNL     1      39.859 -15.123   1.528  1.00  0.00     0.021 C 
BRANCH  16  19
HETATM   19  C   UNL     1      41.289 -15.075  -0.611  1.00  0.00    -0.046 A 
HETATM   20  C   UNL     1      41.787 -13.772  -0.785  1.00  0.00     0.027 A 
HETATM   21  C   UNL     1      41.924 -13.252  -2.066  1.00  0.00     0.116 A 
HETATM   22  N   UNL     1      41.605 -13.926  -3.187  1.00  0.00    -0.273 NA
HETATM   23  C   UNL     1      41.120 -15.171  -3.015  1.00  0.00     0.116 A 
HETATM   24  C   UNL     1      40.945 -15.775  -1.775  1.00  0.00     0.027 A 
ENDBRANCH  16  19
ENDBRANCH  15  16
ENDBRANCH   2  15
TORSDOF 6
ENDMDL
MODEL 5
REMARK VINA RESULT:      -7.1      1.593      1.746
REMARK  6 active torsions:
REMARK  status: ('A' for Active; 'I' for Inactive)
REMARK    1  A    between atoms: C_2  and  C_3 
REMARK    2  A    between atoms: C_5  and  C_6 
REMARK       I    between atoms: C_6  and  N_7 
REMARK    3  A    between atoms: N_7  and  C_8 
REMARK    4  A    between atoms: C_8  and  C_9 
REMARK    5  A    between atoms: C_9  and  C_10 
REMARK    6  A    between atoms: C_19  and  O_20 
ROOT
HETATM    1  C   UNL     1      43.198 -16.557   5.307  1.00  0.00     0.254 C 
HETATM    2  N   UNL     1      43.249 -15.540   4.382  1.00  0.00    -0.356 N 
HETATM    3  O   UNL     1      42.682 -16.414   6.412  1.00  0.00    -0.268 OA
HETATM    4  H   UNL     1      43.639 -15.768   3.471  1.00  0.00     0.162 HD
ENDROOT
BRANCH   1   5
HETATM    5  C   UNL     1      43.797 -17.872   4.913  1.00  0.00     0.065 A 
HETATM    6  C   UNL     1      43.390 -18.410   3.678  1.00  0.00     0.027 A 
HETATM    7  C   UNL     1      43.891 -19.634   3.214  1.00  0.00    -0.057 A 
HETATM    8  C   UNL     1      44.822 -20.325   3.995  1.00  0.00     0.010 A 
HETATM    9  C   UNL     1      45.237 -19.808   5.224  1.00  0.00     0.038 A 
HETATM   10  C   UNL     1      44.728 -18.588   5.681  1.00  0.00     0.081 A 
BRANCH   7  11
HETATM   11  C   UNL     1      43.457 -20.176   1.875  1.00  0.00     0.034 C 
HETATM   12  C   UNL     1      43.840 -21.639   1.706  1.00  0.00     0.010 C 
ENDBRANCH   7  11
BRANCH  10  13
HETATM   13  O   UNL     1      45.168 -18.110   6.891  1.00  0.00    -0.360 OA
HETATM   14  H   UNL     1      45.373 -18.868   7.467  1.00  0.00     0.217 HD
ENDBRANCH  10  13
ENDBRANCH   1   5
BRANCH   2  15
HETATM   15  C   UNL     1      42.620 -14.257   4.625  1.00  0.00     0.136 C 
BRANCH  15  16
HETATM   16  C   UNL     1      41.260 -14.042   3.898  1.00  0.00    -0.004 C 
HETATM   17  C   UNL     1      40.085 -14.442   4.822  1.00  0.00     0.021 C 
HETATM   18  C   UNL     1      41.089 -12.538   3.575  1.00  0.00     0.021 C 
BRANCH  16  19
HETATM   19  C   UNL     1      41.243 -14.928   2.633  1.00  0.00    -0.046 A 
HETATM   20  C   UNL     1      41.823 -14.471   1.437  1.00  0.00     0.027 A 
HETATM   21  C   UNL     1      41.790 -15.275   0.305  1.00  0.00     0.116 A 
HETATM   22  N   UNL     1      41.225 -16.496   0.269  1.00  0.00    -0.273 NA
HETATM   23  C   UNL     1      40.662 -16.926   1.415  1.00  0.00     0.116 A 
HETATM   24  C   UNL     1      40.644 -16.194   2.597  1.00  0.00     0.027 A 
ENDBRANCH  16  19
ENDBRANCH  15  16
ENDBRANCH   2  15
TORSDOF 6
ENDMDL
MODEL 6
REMARK VINA RESULT:      -7.1      3.251      6.662
REMARK  6 active torsions:
REMARK  status: ('A' for Active; 'I' for Inactive)
REMARK    1  A    between atoms: C_2  and  C_3 
REMARK    2  A    between atoms: C_5  and  C_6 
REMARK       I    between atoms: C_6  and  N_7 
REMARK    3  A    between atoms: N_7  and  C_8 
REMARK    4  A    between atoms: C_8  and  C_9 
REMARK    5  A    between atoms: C_9  and  C_10 
REMARK    6  A    between atoms: C_19  and  O_20 
ROOT
HETATM    1  C   UNL     1      42.608 -16.830   1.523  1.00  0.00     0.254 C 
HETATM    2  N   UNL     1      43.045 -16.929   2.824  1.00  0.00    -0.356 N 
HETATM    3  O   UNL     1      43.182 -17.391   0.594  1.00  0.00    -0.268 OA
HETATM    4  H   UNL     1      42.472 -16.484   3.536  1.00  0.00     0.162 HD
ENDROOT
BRANCH   1   5
HETATM    5  C   UNL     1      41.383 -16.005   1.274  1.00  0.00     0.065 A 
HETATM    6  C   UNL     1      41.351 -15.262   0.080  1.00  0.00     0.027 A 
HETATM    7  C   UNL     1      40.251 -14.458  -0.251  1.00  0.00    -0.057 A 
HETATM    8  C   UNL     1      39.162 -14.406   0.624  1.00  0.00     0.010 A 
HETATM    9  C   UNL     1      39.176 -15.136   1.814  1.00  0.00     0.038 A 
HETATM   10  C   UNL     1      40.280 -15.931   2.138  1.00  0.00     0.081 A 
BRANCH   7  11
HETATM   11  C   UNL     1      40.232 -13.690  -1.549  1.00  0.00     0.034 C 
HETATM   12  C   UNL     1      40.606 -14.571  -2.732  1.00  0.00     0.010 C 
ENDBRANCH   7  11
BRANCH  10  13
HETATM   13  O   UNL     1      40.251 -16.639   3.314  1.00  0.00    -0.360 OA
HETATM   14  H   UNL     1      39.324 -16.849   3.527  1.00  0.00     0.217 HD
ENDBRANCH  10  13
ENDBRANCH   1   5
BRANCH   2  15
HETATM   15  C   UNL     1      44.165 -17.774   3.189  1.00  0.00     0.136 C 
BRANCH  15  16
HETATM   16  C   UNL     1      43.910 -18.720   4.399  1.00  0.00    -0.004 C 
HETATM   17  C   UNL     1      44.854 -18.363   5.572  1.00  0.00     0.021 C 
HETATM   18  C   UNL     1      42.462 -18.516   4.908  1.00  0.00     0.021 C 
BRANCH  16  19
HETATM   19  C   UNL     1      44.182 -20.170   3.944  1.00  0.00    -0.046 A 
HETATM   20  C   UNL     1      44.580 -21.145   4.875  1.00  0.00     0.027 A 
HETATM   21  C   UNL     1      44.832 -22.443   4.449  1.00  0.00     0.116 A 
HETATM   22  N   UNL     1      44.719 -22.846   3.169  1.00  0.00    -0.273 NA
HETATM   23  C   UNL     1      44.346 -21.906   2.279  1.00  0.00     0.116 A 
HETATM   24  C   UNL     1      44.075 -20.584   2.610  1.00  0.00     0.027 A 
ENDBRANCH  16  19
ENDBRANCH  15  16
ENDBRANCH   2  15
TORSDOF 6
ENDMDL
MODEL 7
REMARK VINA RESULT:      -7.1      2.358      4.175
REMARK  6 active torsions:
REMARK  status: ('A' for Active; 'I' for Inactive)
REMARK    1  A    between atoms: C_2  and  C_3 
REMARK    2  A    between atoms: C_5  and  C_6 
REMARK       I    between atoms: C_6  and  N_7 
REMARK    3  A    between atoms: N_7  and  C_8 
REMARK    4  A    between atoms: C_8  and  C_9 
REMARK    5  A    between atoms: C_9  and  C_10 
REMARK    6  A    between atoms: C_19  and  O_20 
ROOT
HETATM    1  C   UNL     1      42.987 -16.269   2.997  1.00  0.00     0.254 C 
HETATM    2  N   UNL     1      41.746 -16.113   3.570  1.00  0.00    -0.356 N 
HETATM    3  O   UNL     1      43.639 -15.320   2.571  1.00  0.00    -0.268 OA
HETATM    4  H   UNL     1      41.309 -16.947   3.952  1.00  0.00     0.162 HD
ENDROOT
BRANCH   1   5
HETATM    5  C   UNL     1      43.532 -17.663   2.915  1.00  0.00     0.065 A 
HETATM    6  C   UNL     1      43.741 -18.335   4.133  1.00  0.00     0.027 A 
HETATM    7  C   UNL     1      44.246 -19.642   4.170  1.00  0.00    -0.057 A 
HETATM    8  C   UNL     1      44.536 -20.290   2.965  1.00  0.00     0.010 A 
HETATM    9  C   UNL     1      44.336 -19.639   1.746  1.00  0.00     0.038 A 
HETATM   10  C   UNL     1      43.836 -18.333   1.720  1.00  0.00     0.081 A 
BRANCH   7  11
HETATM   11  C   UNL     1      44.437 -20.348   5.488  1.00  0.00     0.034 C 
HETATM   12  C   UNL     1      44.776 -21.819   5.298  1.00  0.00     0.010 C 
ENDBRANCH   7  11
BRANCH  10  13
HETATM   13  O   UNL     1      43.647 -17.731   0.501  1.00  0.00    -0.360 OA
HETATM   14  H   UNL     1      44.323 -17.039   0.388  1.00  0.00     0.217 HD
ENDBRANCH  10  13
ENDBRANCH   1   5
BRANCH   2  15
HETATM   15  C   UNL     1      41.166 -14.801   3.782  1.00  0.00     0.136 C 
BRANCH  15  16
HETATM   16  C   UNL     1      41.397 -14.199   5.198  1.00  0.00    -0.004 C 
HETATM   17  C   UNL     1      42.190 -12.875   5.100  1.00  0.00     0.021 C 
HETATM   18  C   UNL     1      40.028 -13.860   5.836  1.00  0.00     0.021 C 
BRANCH  16  19
HETATM   19  C   UNL     1      42.204 -15.220   6.030  1.00  0.00    -0.046 A 
HETATM   20  C   UNL     1      41.582 -16.372   6.541  1.00  0.00     0.027 A 
HETATM   21  C   UNL     1      42.318 -17.275   7.298  1.00  0.00     0.116 A 
HETATM   22  N   UNL     1      43.624 -17.122   7.586  1.00  0.00    -0.273 NA
HETATM   23  C   UNL     1      44.214 -16.011   7.102  1.00  0.00     0.116 A 
HETATM   24  C   UNL     1      43.561 -15.051   6.338  1.00  0.00     0.027 A 
ENDBRANCH  16  19
ENDBRANCH  15  16
ENDBRANCH   2  15
TORSDOF 6
ENDMDL
MODEL 8
REMARK VINA RESULT:      -7.1      2.756      6.539
REMARK  6 active torsions:
REMARK  status: ('A' for Active; 'I' for Inactive)
REMARK    1  A    between atoms: C_2  and  C_3 
REMARK    2  A    between atoms: C_5  and  C_6 
REMARK       I    between atoms: C_6  and  N_7 
REMARK    3  A    between atoms: N_7  and  C_8 
REMARK    4  A    between atoms: C_8  and  C_9 
REMARK    5  A    between atoms: C_9  and  C_10 
REMARK    6  A    between atoms: C_19  and  O_20 
ROOT
HETATM    1  C   UNL     1      40.698 -15.634   5.142  1.00  0.00     0.254 C 
HETATM    2  N   UNL     1      40.999 -16.541   4.152  1.00  0.00    -0.356 N 
HETATM    3  O   UNL     1      40.944 -15.847   6.325  1.00  0.00    -0.268 OA
HETATM    4  H   UNL     1      40.818 -16.253   3.194  1.00  0.00     0.162 HD
ENDROOT
BRANCH   1   5
HETATM    5  C   UNL     1      40.054 -14.349   4.718  1.00  0.00     0.065 A 
HETATM    6  C   UNL     1      39.835 -14.174   3.339  1.00  0.00     0.027 A 
HETATM    7  C   UNL     1      39.238 -13.009   2.836  1.00  0.00    -0.057 A 
HETATM    8  C   UNL     1      38.846 -12.009   3.730  1.00  0.00     0.010 A 
HETATM    9  C   UNL     1      39.056 -12.164   5.102  1.00  0.00     0.038 A 
HETATM   10  C   UNL     1      39.657 -13.327   5.594  1.00  0.00     0.081 A 
BRANCH   7  11
HETATM   11  C   UNL     1      38.993 -12.858   1.356  1.00  0.00     0.034 C 
HETATM   12  C   UNL     1      38.035 -13.917   0.831  1.00  0.00     0.010 C 
ENDBRANCH   7  11
BRANCH  10  13
HETATM   13  O   UNL     1      39.838 -13.444   6.950  1.00  0.00    -0.360 OA
HETATM   14  H   UNL     1      39.984 -12.556   7.320  1.00  0.00     0.217 HD
ENDBRANCH  10  13
ENDBRANCH   1   5
BRANCH   2  15
HETATM   15  C   UNL     1      41.704 -17.775   4.440  1.00  0.00     0.136 C 
BRANCH  15  16
HETATM   16  C   UNL     1      43.233 -17.744   4.147  1.00  0.00    -0.004 C 
HETATM   17  C   UNL     1      43.560 -16.656   3.098  1.00  0.00     0.021 C 
HETATM   18  C   UNL     1      43.991 -17.365   5.443  1.00  0.00     0.021 C 
BRANCH  16  19
HETATM   19  C   UNL     1      43.647 -19.127   3.599  1.00  0.00    -0.046 A 
HETATM   20  C   UNL     1      43.219 -19.546   2.327  1.00  0.00     0.027 A 
HETATM   21  C   UNL     1      43.590 -20.797   1.852  1.00  0.00     0.116 A 
HETATM   22  N   UNL     1      44.353 -21.665   2.544  1.00  0.00    -0.273 NA
HETATM   23  C   UNL     1      44.753 -21.263   3.766  1.00  0.00     0.116 A 
HETATM   24  C   UNL     1      44.432 -20.032   4.326  1.00  0.00     0.027 A 
ENDBRANCH  16  19
ENDBRANCH  15  16
ENDBRANCH   2  15
TORSDOF 6
ENDMDL
MODEL 9
REMARK VINA RESULT:      -7.0      3.699      4.663
REMARK  6 active torsions:
REMARK  status: ('A' for Active; 'I' for Inactive)
REMARK    1  A    between atoms: C_2  and  C_3 
REMARK    2  A    between atoms: C_5  and  C_6 
REMARK       I    between atoms: C_6  and  N_7 
REMARK    3  A    between atoms: N_7  and  C_8 
REMARK    4  A    between atoms: C_8  and  C_9 
REMARK    5  A    between atoms: C_9  and  C_10 
REMARK    6  A    between atoms: C_19  and  O_20 
ROOT
HETATM    1  C   UNL     1      41.108 -17.192   1.908  1.00  0.00     0.254 C 
HETATM    2  N   UNL     1      40.703 -15.905   2.178  1.00  0.00    -0.356 N 
HETATM    3  O   UNL     1      40.653 -17.842   0.971  1.00  0.00    -0.268 OA
HETATM    4  H   UNL     1      41.180 -15.423   2.935  1.00  0.00     0.162 HD
ENDROOT
BRANCH   1   5
HETATM    5  C   UNL     1      42.149 -17.785   2.809  1.00  0.00     0.065 A 
HETATM    6  C   UNL     1      42.894 -18.861   2.295  1.00  0.00     0.027 A 
HETATM    7  C   UNL     1      43.892 -19.488   3.054  1.00  0.00    -0.057 A 
HETATM    8  C   UNL     1      44.154 -19.020   4.346  1.00  0.00     0.010 A 
HETATM    9  C   UNL     1      43.425 -17.953   4.873  1.00  0.00     0.038 A 
HETATM   10  C   UNL     1      42.427 -17.338   4.110  1.00  0.00     0.081 A 
BRANCH   7  11
HETATM   11  C   UNL     1      44.693 -20.624   2.470  1.00  0.00     0.034 C 
HETATM   12  C   UNL     1      43.804 -21.639   1.767  1.00  0.00     0.010 C 
ENDBRANCH   7  11
BRANCH  10  13
HETATM   13  O   UNL     1      41.737 -16.287   4.663  1.00  0.00    -0.360 OA
HETATM   14  H   UNL     1      40.879 -16.208   4.210  1.00  0.00     0.217 HD
ENDBRANCH  10  13
ENDBRANCH   1   5
BRANCH   2  15
HETATM   15  C   UNL     1      39.770 -15.205   1.317  1.00  0.00     0.136 C 
BRANCH  15  16
HETATM   16  C   UNL     1      40.390 -14.052   0.474  1.00  0.00    -0.004 C 
HETATM   17  C   UNL     1      39.609 -12.736   0.700  1.00  0.00     0.021 C 
HETATM   18  C   UNL     1      41.843 -13.801   0.946  1.00  0.00     0.021 C 
BRANCH  16  19
HETATM   19  C   UNL     1      40.310 -14.448  -1.017  1.00  0.00    -0.046 A 
HETATM   20  C   UNL     1      39.375 -13.832  -1.867  1.00  0.00     0.027 A 
HETATM   21  C   UNL     1      39.307 -14.206  -3.203  1.00  0.00     0.116 A 
HETATM   22  N   UNL     1      40.095 -15.146  -3.759  1.00  0.00    -0.273 NA
HETATM   23  C   UNL     1      40.983 -15.740  -2.938  1.00  0.00     0.116 A 
HETATM   24  C   UNL     1      41.124 -15.434  -1.589  1.00  0.00     0.027 A 
ENDBRANCH  16  19
ENDBRANCH  15  16
ENDBRANCH   2  15
TORSDOF 6
ENDMDL
MODEL 10
REMARK VINA RESULT:      -7.0      2.570      4.263
REMARK  6 active torsions:
REMARK  status: ('A' for Active; 'I' for Inactive)
REMARK    1  A    between atoms: C_2  and  C_3 
REMARK    2  A    between atoms: C_5  and  C_6 
REMARK       I    between atoms: C_6  and  N_7 
REMARK    3  A    between atoms: N_7  and  C_8 
REMARK    4  A    between atoms: C_8  and  C_9 
REMARK    5  A    between atoms: C_9  and  C_10 
REMARK    6  A    between atoms: C_19  and  O_20 
ROOT
HETATM    1  C   UNL     1      43.054 -17.963   1.767  1.00  0.00     0.254 C 
HETATM    2  N   UNL     1      41.801 -17.453   2.016  1.00  0.00    -0.356 N 
HETATM    3  O   UNL     1      43.630 -17.797   0.696  1.00  0.00    -0.268 OA
HETATM    4  H   UNL     1      41.428 -17.586   2.952  1.00  0.00     0.162 HD
ENDROOT
BRANCH   1   5
HETATM    5  C   UNL     1      43.708 -18.738   2.871  1.00  0.00     0.065 A 
HETATM    6  C   UNL     1      43.965 -18.043   4.067  1.00  0.00     0.027 A 
HETATM    7  C   UNL     1      44.572 -18.673   5.162  1.00  0.00    -0.057 A 
HETATM    8  C   UNL     1      44.918 -20.024   5.060  1.00  0.00     0.010 A 
HETATM    9  C   UNL     1      44.672 -20.730   3.880  1.00  0.00     0.038 A 
HETATM   10  C   UNL     1      44.070 -20.091   2.791  1.00  0.00     0.081 A 
BRANCH   7  11
HETATM   11  C   UNL     1      44.814 -17.912   6.441  1.00  0.00     0.034 C 
HETATM   12  C   UNL     1      44.006 -18.479   7.598  1.00  0.00     0.010 C 
ENDBRANCH   7  11
BRANCH  10  13
HETATM   13  O   UNL     1      43.838 -20.822   1.653  1.00  0.00    -0.360 OA
HETATM   14  H   UNL     1      42.913 -21.126   1.663  1.00  0.00     0.217 HD
ENDBRANCH  10  13
ENDBRANCH   1   5
BRANCH   2  15
HETATM   15  C   UNL     1      41.116 -16.613   1.052  1.00  0.00     0.136 C 
BRANCH  15  16
HETATM   16  C   UNL     1      40.702 -15.208   1.580  1.00  0.00    -0.004 C 
HETATM   17  C   UNL     1      40.858 -14.145   0.467  1.00  0.00     0.021 C 
HETATM   18  C   UNL     1      39.205 -15.234   1.973  1.00  0.00     0.021 C 
BRANCH  16  19
HETATM   19  C   UNL     1      41.622 -14.848   2.767  1.00  0.00    -0.046 A 
HETATM   20  C   UNL     1      41.198 -15.068   4.088  1.00  0.00     0.027 A 
HETATM   21  C   UNL     1      42.032 -14.728   5.146  1.00  0.00     0.116 A 
HETATM   22  N   UNL     1      43.255 -14.186   4.992  1.00  0.00    -0.273 NA
HETATM   23  C   UNL     1      43.653 -13.968   3.723  1.00  0.00     0.116 A 
HETATM   24  C   UNL     1      42.890 -14.273   2.602  1.00  0.00     0.027 A 
ENDBRANCH  16  19
ENDBRANCH  15  16
ENDBRANCH   2  15
TORSDOF 6
ENDMDL
