MODEL 1
REMARK VINA RESULT:      -9.0      0.000      0.000
REMARK  4 active torsions:
REMARK  status: ('A' for Active; 'I' for Inactive)
REMARK    1  A    between atoms: O_2  and  C_3 
REMARK    2  A    between atoms: C_6  and  C_7 
REMARK    3  A    between atoms: C_12  and  N_13 
REMARK    4  A    between atoms: C_15  and  C_16 
ROOT
HETATM    1  C   UNL     1      41.450 -16.851   2.990  1.00  0.00     0.135 C 
HETATM    2  N   UNL     1      41.107 -16.537   4.374  1.00  0.00    -0.214 N 
HETATM    3  C   UNL     1      41.956 -16.856   5.370  1.00  0.00     0.736 A 
HETATM    4  N   UNL     1      43.241 -17.247   5.113  1.00  0.00    -0.074 N 
HETATM    5  N   UNL     1      43.925 -17.480   6.246  1.00  0.00     0.037 NA
HETATM    6  C   UNL     1      42.988 -17.216   7.154  1.00  0.00     0.753 A 
HETATM    7  N   UNL     1      41.766 -16.860   6.664  1.00  0.00     0.131 NA
HETATM    8  C   UNL     1      43.800 -17.412   3.779  1.00  0.00     0.164 C 
HETATM    9  C   UNL     1      42.958 -16.630   2.757  1.00  0.00     0.063 C 
HETATM   10  H   UNL     1      40.116 -16.491   4.597  1.00  0.00     0.178 HD
ENDROOT
BRANCH   1  11
HETATM   11  C   UNL     1      40.646 -15.993   2.028  1.00  0.00    -0.035 A 
HETATM   12  C   UNL     1      39.403 -15.445   2.379  1.00  0.00     0.012 A 
HETATM   13  C   UNL     1      38.712 -14.618   1.490  1.00  0.00     0.037 A 
HETATM   14  C   UNL     1      39.254 -14.301   0.245  1.00  0.00     0.068 A 
HETATM   15  C   UNL     1      40.486 -14.842  -0.118  1.00  0.00     0.037 A 
HETATM   16  C   UNL     1      41.176 -15.680   0.767  1.00  0.00     0.012 A 
BRANCH  14  17
HETATM   17  O   UNL     1      38.487 -13.466  -0.519  1.00  0.00    -0.356 OA
HETATM   18  C   UNL     1      38.196 -13.899  -1.842  1.00  0.00     0.210 C 
ENDBRANCH  14  17
ENDBRANCH   1  11
BRANCH   8  19
HETATM   19  C   UNL     1      43.966 -18.875   3.377  1.00  0.00    -0.031 A 
HETATM   20  C   UNL     1      44.431 -19.866   4.260  1.00  0.00     0.028 A 
HETATM   21  C   UNL     1      44.540 -21.193   3.840  1.00  0.00     0.011 A 
HETATM   22 BR   UNL     1      45.173 -22.506   5.045  1.00  0.00    -0.051 Br
HETATM   23  C   UNL     1      44.186 -21.560   2.545  1.00  0.00     0.019 A 
HETATM   24  C   UNL     1      43.717 -20.593   1.661  1.00  0.00     0.002 A 
HETATM   25  C   UNL     1      43.606 -19.262   2.073  1.00  0.00     0.009 A 
ENDBRANCH   8  19
BRANCH   6  26
HETATM   26  N   UNL     1      43.144 -17.307   8.472  1.00  0.00    -0.229 N 
HETATM   27  H   UNL     1      42.524 -17.936   8.963  1.00  0.00     0.174 HD
HETATM   28  H   UNL     1      43.366 -16.453   8.964  1.00  0.00     0.174 HD
ENDBRANCH   6  26
TORSDOF 4
ENDMDL
MODEL 2
REMARK VINA RESULT:      -8.4      3.692      6.822
REMARK  4 active torsions:
REMARK  status: ('A' for Active; 'I' for Inactive)
REMARK    1  A    between atoms: O_2  and  C_3 
REMARK    2  A    between atoms: C_6  and  C_7 
REMARK    3  A    between atoms: C_12  and  N_13 
REMARK    4  A    between atoms: C_15  and  C_16 
ROOT
HETATM    1  C   UNL     1      43.033 -17.137   2.901  1.00  0.00     0.135 C 
HETATM    2  N   UNL     1      43.315 -16.506   4.187  1.00  0.00    -0.214 N 
HETATM    3  C   UNL     1      42.637 -15.405   4.564  1.00  0.00     0.736 A 
HETATM    4  N   UNL     1      41.519 -14.992   3.893  1.00  0.00    -0.074 N 
HETATM    5  N   UNL     1      40.978 -13.899   4.456  1.00  0.00     0.037 NA
HETATM    6  C   UNL     1      41.825 -13.699   5.463  1.00  0.00     0.753 A 
HETATM    7  N   UNL     1      42.867 -14.576   5.549  1.00  0.00     0.131 NA
HETATM    8  C   UNL     1      40.988 -15.641   2.703  1.00  0.00     0.164 C 
HETATM    9  C   UNL     1      41.520 -17.081   2.607  1.00  0.00     0.063 C 
HETATM   10  H   UNL     1      44.255 -16.629   4.556  1.00  0.00     0.178 HD
ENDROOT
BRANCH   1  11
HETATM   11  C   UNL     1      43.508 -18.580   2.893  1.00  0.00    -0.035 A 
HETATM   12  C   UNL     1      44.242 -19.128   3.955  1.00  0.00     0.012 A 
HETATM   13  C   UNL     1      44.621 -20.473   3.941  1.00  0.00     0.037 A 
HETATM   14  C   UNL     1      44.257 -21.304   2.882  1.00  0.00     0.068 A 
HETATM   15  C   UNL     1      43.531 -20.771   1.818  1.00  0.00     0.037 A 
HETATM   16  C   UNL     1      43.159 -19.420   1.824  1.00  0.00     0.012 A 
BRANCH  14  17
HETATM   17  O   UNL     1      44.671 -22.601   3.001  1.00  0.00    -0.356 OA
HETATM   18  C   UNL     1      44.839 -23.098   4.323  1.00  0.00     0.210 C 
ENDBRANCH  14  17
ENDBRANCH   1  11
BRANCH   8  19
HETATM   19  C   UNL     1      41.252 -14.852   1.423  1.00  0.00    -0.031 A 
HETATM   20  C   UNL     1      41.008 -15.370   0.138  1.00  0.00     0.028 A 
HETATM   21  C   UNL     1      41.248 -14.592  -0.996  1.00  0.00     0.011 A 
HETATM   22 BR   UNL     1      40.917 -15.313  -2.712  1.00  0.00    -0.051 Br
HETATM   23  C   UNL     1      41.727 -13.290  -0.876  1.00  0.00     0.019 A 
HETATM   24  C   UNL     1      41.967 -12.760   0.389  1.00  0.00     0.002 A 
HETATM   25  C   UNL     1      41.731 -13.533   1.529  1.00  0.00     0.009 A 
ENDBRANCH   8  19
BRANCH   6  26
HETATM   26  N   UNL     1      41.752 -12.708   6.347  1.00  0.00    -0.229 N 
HETATM   27  H   UNL     1      41.289 -11.862   6.047  1.00  0.00     0.174 HD
HETATM   28  H   UNL     1      42.556 -12.570   6.943  1.00  0.00     0.174 HD
ENDBRANCH   6  26
TORSDOF 4
ENDMDL
MODEL 3
REMARK VINA RESULT:      -8.2      3.769      6.836
REMARK  4 active torsions:
REMARK  status: ('A' for Active; 'I' for Inactive)
REMARK    1  A    between atoms: O_2  and  C_3 
REMARK    2  A    between atoms: C_6  and  C_7 
REMARK    3  A    between atoms: C_12  and  N_13 
REMARK    4  A    between atoms: C_15  and  C_16 
ROOT
HETATM    1  C   UNL     1      42.601 -16.672   3.237  1.00  0.00     0.135 C 
HETATM    2  N   UNL     1      43.245 -15.925   4.312  1.00  0.00    -0.214 N 
HETATM    3  C   UNL     1      42.626 -14.864   4.866  1.00  0.00     0.736 A 
HETATM    4  N   UNL     1      41.305 -14.604   4.622  1.00  0.00    -0.074 N 
HETATM    5  N   UNL     1      40.879 -13.526   5.300  1.00  0.00     0.037 NA
HETATM    6  C   UNL     1      41.998 -13.177   5.932  1.00  0.00     0.753 A 
HETATM    7  N   UNL     1      43.093 -13.949   5.673  1.00  0.00     0.131 NA
HETATM    8  C   UNL     1      40.465 -15.384   3.725  1.00  0.00     0.164 C 
HETATM    9  C   UNL     1      41.085 -16.773   3.499  1.00  0.00     0.063 C 
HETATM   10  H   UNL     1      44.262 -15.935   4.327  1.00  0.00     0.178 HD
ENDROOT
BRANCH   1  11
HETATM   11  C   UNL     1      43.199 -18.063   3.112  1.00  0.00    -0.035 A 
HETATM   12  C   UNL     1      43.961 -18.640   4.139  1.00  0.00     0.012 A 
HETATM   13  C   UNL     1      44.455 -19.941   4.016  1.00  0.00     0.037 A 
HETATM   14  C   UNL     1      44.179 -20.702   2.880  1.00  0.00     0.068 A 
HETATM   15  C   UNL     1      43.426 -20.140   1.850  1.00  0.00     0.037 A 
HETATM   16  C   UNL     1      42.940 -18.831   1.967  1.00  0.00     0.012 A 
BRANCH  14  17
HETATM   17  O   UNL     1      44.702 -21.965   2.895  1.00  0.00    -0.356 OA
HETATM   18  C   UNL     1      44.711 -22.637   4.148  1.00  0.00     0.210 C 
ENDBRANCH  14  17
ENDBRANCH   1  11
BRANCH   8  19
HETATM   19  C   UNL     1      40.175 -14.671   2.407  1.00  0.00    -0.031 A 
HETATM   20  C   UNL     1      41.126 -13.881   1.735  1.00  0.00     0.028 A 
HETATM   21  C   UNL     1      40.809 -13.272   0.520  1.00  0.00     0.011 A 
HETATM   22 BR   UNL     1      42.104 -12.212  -0.360  1.00  0.00    -0.051 Br
HETATM   23  C   UNL     1      39.551 -13.439  -0.052  1.00  0.00     0.019 A 
HETATM   24  C   UNL     1      38.601 -14.223   0.596  1.00  0.00     0.002 A 
HETATM   25  C   UNL     1      38.910 -14.835   1.814  1.00  0.00     0.009 A 
ENDBRANCH   8  19
BRANCH   6  26
HETATM   26  N   UNL     1      42.130 -12.135   6.747  1.00  0.00    -0.229 N 
HETATM   27  H   UNL     1      43.023 -12.025   7.207  1.00  0.00     0.174 HD
HETATM   28  H   UNL     1      41.325 -11.891   7.307  1.00  0.00     0.174 HD
ENDBRANCH   6  26
TORSDOF 4
ENDMDL
MODEL 4
REMARK VINA RESULT:      -8.2      2.042      2.680
REMARK  4 active torsions:
REMARK  status: ('A' for Active; 'I' for Inactive)
REMARK    1  A    between atoms: O_2  and  C_3 
REMARK    2  A    between atoms: C_6  and  C_7 
REMARK    3  A    between atoms: C_12  and  N_13 
REMARK    4  A    between atoms: C_15  and  C_16 
ROOT
HETATM    1  C   UNL     1      41.744 -16.048   4.917  1.00  0.00     0.135 C 
HETATM    2  N   UNL     1      41.711 -16.327   6.349  1.00  0.00    -0.214 N 
HETATM    3  C   UNL     1      42.676 -17.078   6.915  1.00  0.00     0.736 A 
HETATM    4  N   UNL     1      43.823 -17.390   6.239  1.00  0.00    -0.074 N 
HETATM    5  N   UNL     1      44.665 -18.112   6.997  1.00  0.00     0.037 NA
HETATM    6  C   UNL     1      43.959 -18.206   8.123  1.00  0.00     0.753 A 
HETATM    7  N   UNL     1      42.729 -17.615   8.105  1.00  0.00     0.131 NA
HETATM    8  C   UNL     1      44.096 -17.008   4.862  1.00  0.00     0.164 C 
HETATM    9  C   UNL     1      43.198 -15.826   4.456  1.00  0.00     0.063 C 
HETATM   10  H   UNL     1      40.794 -16.329   6.791  1.00  0.00     0.178 HD
ENDROOT
BRANCH   1  11
HETATM   11  C   UNL     1      40.905 -14.825   4.587  1.00  0.00    -0.035 A 
HETATM   12  C   UNL     1      40.555 -14.497   3.268  1.00  0.00     0.012 A 
HETATM   13  C   UNL     1      39.740 -13.395   3.000  1.00  0.00     0.037 A 
HETATM   14  C   UNL     1      39.236 -12.612   4.039  1.00  0.00     0.068 A 
HETATM   15  C   UNL     1      39.579 -12.925   5.353  1.00  0.00     0.037 A 
HETATM   16  C   UNL     1      40.406 -14.023   5.624  1.00  0.00     0.012 A 
BRANCH  14  17
HETATM   17  O   UNL     1      38.435 -11.579   3.642  1.00  0.00    -0.356 OA
HETATM   18  C   UNL     1      38.179 -11.468   2.248  1.00  0.00     0.210 C 
ENDBRANCH  14  17
ENDBRANCH   1  11
BRANCH   8  19
HETATM   19  C   UNL     1      43.978 -18.173   3.882  1.00  0.00    -0.031 A 
HETATM   20  C   UNL     1      44.308 -19.498   4.221  1.00  0.00     0.028 A 
HETATM   21  C   UNL     1      44.156 -20.525   3.289  1.00  0.00     0.011 A 
HETATM   22 BR   UNL     1      44.612 -22.297   3.768  1.00  0.00    -0.051 Br
HETATM   23  C   UNL     1      43.671 -20.260   2.011  1.00  0.00     0.019 A 
HETATM   24  C   UNL     1      43.334 -18.955   1.662  1.00  0.00     0.002 A 
HETATM   25  C   UNL     1      43.483 -17.921   2.589  1.00  0.00     0.009 A 
ENDBRANCH   8  19
BRANCH   6  26
HETATM   26  N   UNL     1      44.341 -18.851   9.221  1.00  0.00    -0.229 N 
HETATM   27  H   UNL     1      45.319 -18.794   9.467  1.00  0.00     0.174 HD
HETATM   28  H   UNL     1      43.906 -19.746   9.397  1.00  0.00     0.174 HD
ENDBRANCH   6  26
TORSDOF 4
ENDMDL
MODEL 5
REMARK VINA RESULT:      -8.1      4.154      7.165
REMARK  4 active torsions:
REMARK  status: ('A' for Active; 'I' for Inactive)
REMARK    1  A    between atoms: O_2  and  C_3 
REMARK    2  A    between atoms: C_6  and  C_7 
REMARK    3  A    between atoms: C_12  and  N_13 
REMARK    4  A    between atoms: C_15  and  C_16 
ROOT
HETATM    1  C   UNL     1      43.013 -16.474   2.193  1.00  0.00     0.135 C 
HETATM    2  N   UNL     1      43.303 -15.508   3.247  1.00  0.00    -0.214 N 
HETATM    3  C   UNL     1      42.620 -14.348   3.308  1.00  0.00     0.736 A 
HETATM    4  N   UNL     1      41.493 -14.145   2.560  1.00  0.00    -0.074 N 
HETATM    5  N   UNL     1      40.949 -12.940   2.800  1.00  0.00     0.037 NA
HETATM    6  C   UNL     1      41.804 -12.462   3.702  1.00  0.00     0.753 A 
HETATM    7  N   UNL     1      42.853 -13.276   4.018  1.00  0.00     0.131 NA
HETATM    8  C   UNL     1      40.956 -15.103   1.606  1.00  0.00     0.164 C 
HETATM    9  C   UNL     1      41.498 -16.510   1.911  1.00  0.00     0.063 C 
HETATM   10  H   UNL     1      44.247 -15.517   3.625  1.00  0.00     0.178 HD
ENDROOT
BRANCH   1  11
HETATM   11  C   UNL     1      43.499 -17.860   2.583  1.00  0.00    -0.035 A 
HETATM   12  C   UNL     1      43.896 -18.168   3.893  1.00  0.00     0.012 A 
HETATM   13  C   UNL     1      44.290 -19.464   4.233  1.00  0.00     0.037 A 
HETATM   14  C   UNL     1      44.273 -20.485   3.283  1.00  0.00     0.068 A 
HETATM   15  C   UNL     1      43.884 -20.193   1.976  1.00  0.00     0.037 A 
HETATM   16  C   UNL     1      43.500 -18.891   1.631  1.00  0.00     0.012 A 
BRANCH  14  17
HETATM   17  O   UNL     1      44.660 -21.710   3.750  1.00  0.00    -0.356 OA
HETATM   18  C   UNL     1      44.994 -21.791   5.130  1.00  0.00     0.210 C 
ENDBRANCH  14  17
ENDBRANCH   1  11
BRANCH   8  19
HETATM   19  C   UNL     1      41.202 -14.703   0.153  1.00  0.00    -0.031 A 
HETATM   20  C   UNL     1      41.750 -13.462  -0.220  1.00  0.00     0.028 A 
HETATM   21  C   UNL     1      41.973 -13.163  -1.565  1.00  0.00     0.011 A 
HETATM   22 BR   UNL     1      42.706 -11.486  -2.040  1.00  0.00    -0.051 Br
HETATM   23  C   UNL     1      41.665 -14.086  -2.559  1.00  0.00     0.019 A 
HETATM   24  C   UNL     1      41.128 -15.322  -2.207  1.00  0.00     0.002 A 
HETATM   25  C   UNL     1      40.901 -15.629  -0.863  1.00  0.00     0.009 A 
ENDBRANCH   8  19
BRANCH   6  26
HETATM   26  N   UNL     1      41.731 -11.264   4.274  1.00  0.00    -0.229 N 
HETATM   27  H   UNL     1      42.605 -10.818   4.514  1.00  0.00     0.174 HD
HETATM   28  H   UNL     1      40.981 -11.121   4.936  1.00  0.00     0.174 HD
ENDBRANCH   6  26
TORSDOF 4
ENDMDL
MODEL 6
REMARK VINA RESULT:      -8.1      3.873      7.075
REMARK  4 active torsions:
REMARK  status: ('A' for Active; 'I' for Inactive)
REMARK    1  A    between atoms: O_2  and  C_3 
REMARK    2  A    between atoms: C_6  and  C_7 
REMARK    3  A    between atoms: C_12  and  N_13 
REMARK    4  A    between atoms: C_15  and  C_16 
ROOT
HETATM    1  C   UNL     1      42.069 -16.099   2.502  1.00  0.00     0.135 C 
HETATM    2  N   UNL     1      42.745 -15.069   3.284  1.00  0.00    -0.214 N 
HETATM    3  C   UNL     1      42.114 -13.914   3.573  1.00  0.00     0.736 A 
HETATM    4  N   UNL     1      40.770 -13.766   3.366  1.00  0.00    -0.074 N 
HETATM    5  N   UNL     1      40.338 -12.555   3.755  1.00  0.00     0.037 NA
HETATM    6  C   UNL     1      41.479 -12.017   4.184  1.00  0.00     0.753 A 
HETATM    7  N   UNL     1      42.589 -12.800   4.064  1.00  0.00     0.131 NA
HETATM    8  C   UNL     1      39.911 -14.784   2.779  1.00  0.00     0.164 C 
HETATM    9  C   UNL     1      40.579 -16.165   2.893  1.00  0.00     0.063 C 
HETATM   10  H   UNL     1      43.761 -15.047   3.226  1.00  0.00     0.178 HD
ENDROOT
BRANCH   1  11
HETATM   11  C   UNL     1      42.721 -17.454   2.716  1.00  0.00    -0.035 A 
HETATM   12  C   UNL     1      42.653 -18.473   1.754  1.00  0.00     0.012 A 
HETATM   13  C   UNL     1      43.305 -19.691   1.958  1.00  0.00     0.037 A 
HETATM   14  C   UNL     1      44.059 -19.910   3.111  1.00  0.00     0.068 A 
HETATM   15  C   UNL     1      44.132 -18.908   4.077  1.00  0.00     0.037 A 
HETATM   16  C   UNL     1      43.469 -17.690   3.880  1.00  0.00     0.012 A 
BRANCH  14  17
HETATM   17  O   UNL     1      44.664 -21.134   3.177  1.00  0.00    -0.356 OA
HETATM   18  C   UNL     1      44.453 -22.011   2.077  1.00  0.00     0.210 C 
ENDBRANCH  14  17
ENDBRANCH   1  11
BRANCH   8  19
HETATM   19  C   UNL     1      39.506 -14.468   1.342  1.00  0.00    -0.031 A 
HETATM   20  C   UNL     1      40.416 -14.466   0.269  1.00  0.00     0.028 A 
HETATM   21  C   UNL     1      39.981 -14.191  -1.028  1.00  0.00     0.011 A 
HETATM   22 BR   UNL     1      41.226 -14.191  -2.452  1.00  0.00    -0.051 Br
HETATM   23  C   UNL     1      38.640 -13.920  -1.286  1.00  0.00     0.019 A 
HETATM   24  C   UNL     1      37.725 -13.925  -0.237  1.00  0.00     0.002 A 
HETATM   25  C   UNL     1      38.152 -14.198   1.065  1.00  0.00     0.009 A 
ENDBRANCH   8  19
BRANCH   6  26
HETATM   26  N   UNL     1      41.614 -10.788   4.673  1.00  0.00    -0.229 N 
HETATM   27  H   UNL     1      42.162 -10.137   4.128  1.00  0.00     0.174 HD
HETATM   28  H   UNL     1      41.723 -10.707   5.674  1.00  0.00     0.174 HD
ENDBRANCH   6  26
TORSDOF 4
ENDMDL
MODEL 7
REMARK VINA RESULT:      -8.1      4.532      7.690
REMARK  4 active torsions:
REMARK  status: ('A' for Active; 'I' for Inactive)
REMARK    1  A    between atoms: O_2  and  C_3 
REMARK    2  A    between atoms: C_6  and  C_7 
REMARK    3  A    between atoms: C_12  and  N_13 
REMARK    4  A    between atoms: C_15  and  C_16 
ROOT
HETATM    1  C   UNL     1      42.422 -17.216   2.492  1.00  0.00     0.135 C 
HETATM    2  N   UNL     1      42.065 -17.135   1.079  1.00  0.00    -0.214 N 
HETATM    3  C   UNL     1      41.790 -15.942   0.517  1.00  0.00     0.736 A 
HETATM    4  N   UNL     1      42.069 -14.769   1.164  1.00  0.00    -0.074 N 
HETATM    5  N   UNL     1      41.753 -13.701   0.413  1.00  0.00     0.037 NA
HETATM    6  C   UNL     1      41.280 -14.302  -0.677  1.00  0.00     0.753 A 
HETATM    7  N   UNL     1      41.258 -15.666  -0.644  1.00  0.00     0.131 NA
HETATM    8  C   UNL     1      42.622 -14.682   2.507  1.00  0.00     0.164 C 
HETATM    9  C   UNL     1      43.300 -16.011   2.884  1.00  0.00     0.063 C 
HETATM   10  H   UNL     1      41.624 -17.958   0.674  1.00  0.00     0.178 HD
ENDROOT
BRANCH   1  11
HETATM   11  C   UNL     1      43.158 -18.511   2.789  1.00  0.00    -0.035 A 
HETATM   12  C   UNL     1      43.785 -18.744   4.023  1.00  0.00     0.012 A 
HETATM   13  C   UNL     1      44.411 -19.965   4.285  1.00  0.00     0.037 A 
HETATM   14  C   UNL     1      44.404 -20.987   3.335  1.00  0.00     0.068 A 
HETATM   15  C   UNL     1      43.789 -20.767   2.104  1.00  0.00     0.037 A 
HETATM   16  C   UNL     1      43.170 -19.539   1.834  1.00  0.00     0.012 A 
BRANCH  14  17
HETATM   17  O   UNL     1      45.032 -22.136   3.725  1.00  0.00    -0.356 OA
HETATM   18  C   UNL     1      45.134 -22.365   5.125  1.00  0.00     0.210 C 
ENDBRANCH  14  17
ENDBRANCH   1  11
BRANCH   8  19
HETATM   19  C   UNL     1      41.593 -14.255   3.551  1.00  0.00    -0.031 A 
HETATM   20  C   UNL     1      40.760 -13.132   3.393  1.00  0.00     0.028 A 
HETATM   21  C   UNL     1      39.822 -12.804   4.373  1.00  0.00     0.011 A 
HETATM   22 BR   UNL     1      38.717 -11.288   4.140  1.00  0.00    -0.051 Br
HETATM   23  C   UNL     1      39.688 -13.583   5.519  1.00  0.00     0.019 A 
HETATM   24  C   UNL     1      40.501 -14.701   5.688  1.00  0.00     0.002 A 
HETATM   25  C   UNL     1      41.443 -15.036   4.712  1.00  0.00     0.009 A 
ENDBRANCH   8  19
BRANCH   6  26
HETATM   26  N   UNL     1      40.804 -13.682  -1.754  1.00  0.00    -0.229 N 
HETATM   27  H   UNL     1      39.828 -13.823  -1.968  1.00  0.00     0.174 HD
HETATM   28  H   UNL     1      41.417 -13.632  -2.556  1.00  0.00     0.174 HD
ENDBRANCH   6  26
TORSDOF 4
ENDMDL
MODEL 8
REMARK VINA RESULT:      -7.8      2.135      2.712
REMARK  4 active torsions:
REMARK  status: ('A' for Active; 'I' for Inactive)
REMARK    1  A    between atoms: O_2  and  C_3 
REMARK    2  A    between atoms: C_6  and  C_7 
REMARK    3  A    between atoms: C_12  and  N_13 
REMARK    4  A    between atoms: C_15  and  C_16 
ROOT
HETATM    1  C   UNL     1      40.945 -14.924   2.238  1.00  0.00     0.135 C 
HETATM    2  N   UNL     1      40.782 -14.098   3.430  1.00  0.00    -0.214 N 
HETATM    3  C   UNL     1      41.769 -14.025   4.344  1.00  0.00     0.736 A 
HETATM    4  N   UNL     1      43.021 -14.506   4.079  1.00  0.00    -0.074 N 
HETATM    5  N   UNL     1      43.860 -14.299   5.108  1.00  0.00     0.037 NA
HETATM    6  C   UNL     1      43.045 -13.690   5.968  1.00  0.00     0.753 A 
HETATM    7  N   UNL     1      41.756 -13.529   5.553  1.00  0.00     0.131 NA
HETATM    8  C   UNL     1      43.400 -15.180   2.846  1.00  0.00     0.164 C 
HETATM    9  C   UNL     1      42.398 -14.836   1.730  1.00  0.00     0.063 C 
HETATM   10  H   UNL     1      39.829 -13.953   3.755  1.00  0.00     0.178 HD
ENDROOT
BRANCH   1  11
HETATM   11  C   UNL     1      39.987 -14.488   1.143  1.00  0.00    -0.035 A 
HETATM   12  C   UNL     1      40.417 -14.254  -0.172  1.00  0.00     0.012 A 
HETATM   13  C   UNL     1      39.503 -13.903  -1.169  1.00  0.00     0.037 A 
HETATM   14  C   UNL     1      38.142 -13.802  -0.883  1.00  0.00     0.068 A 
HETATM   15  C   UNL     1      37.702 -14.027   0.421  1.00  0.00     0.037 A 
HETATM   16  C   UNL     1      38.617 -14.368   1.425  1.00  0.00     0.012 A 
BRANCH  14  17
HETATM   17  O   UNL     1      37.354 -13.473  -1.950  1.00  0.00    -0.356 OA
HETATM   18  C   UNL     1      37.871 -13.772  -3.241  1.00  0.00     0.210 C 
ENDBRANCH  14  17
ENDBRANCH   1  11
BRANCH   8  19
HETATM   19  C   UNL     1      43.565 -16.688   3.014  1.00  0.00    -0.031 A 
HETATM   20  C   UNL     1      43.585 -17.323   4.269  1.00  0.00     0.028 A 
HETATM   21  C   UNL     1      43.717 -18.710   4.358  1.00  0.00     0.011 A 
HETATM   22 BR   UNL     1      43.745 -19.539   6.058  1.00  0.00    -0.051 Br
HETATM   23  C   UNL     1      43.824 -19.489   3.210  1.00  0.00     0.019 A 
HETATM   24  C   UNL     1      43.800 -18.877   1.960  1.00  0.00     0.002 A 
HETATM   25  C   UNL     1      43.670 -17.489   1.862  1.00  0.00     0.009 A 
ENDBRANCH   8  19
BRANCH   6  26
HETATM   26  N   UNL     1      43.382 -13.273   7.184  1.00  0.00    -0.229 N 
HETATM   27  H   UNL     1      43.191 -13.901   7.952  1.00  0.00     0.174 HD
HETATM   28  H   UNL     1      43.236 -12.293   7.385  1.00  0.00     0.174 HD
ENDBRANCH   6  26
TORSDOF 4
ENDMDL
MODEL 9
REMARK VINA RESULT:      -7.7      4.334      7.612
REMARK  4 active torsions:
REMARK  status: ('A' for Active; 'I' for Inactive)
REMARK    1  A    between atoms: O_2  and  C_3 
REMARK    2  A    between atoms: C_6  and  C_7 
REMARK    3  A    between atoms: C_12  and  N_13 
REMARK    4  A    between atoms: C_15  and  C_16 
ROOT
HETATM    1  C   UNL     1      42.100 -15.566   1.655  1.00  0.00     0.135 C 
HETATM    2  N   UNL     1      41.455 -14.869   2.763  1.00  0.00    -0.214 N 
HETATM    3  C   UNL     1      40.497 -13.953   2.521  1.00  0.00     0.736 A 
HETATM    4  N   UNL     1      39.932 -13.824   1.282  1.00  0.00    -0.074 N 
HETATM    5  N   UNL     1      38.975 -12.881   1.269  1.00  0.00     0.037 NA
HETATM    6  C   UNL     1      39.017 -12.474   2.536  1.00  0.00     0.753 A 
HETATM    7  N   UNL     1      39.949 -13.081   3.326  1.00  0.00     0.131 NA
HETATM    8  C   UNL     1      40.329 -14.595   0.113  1.00  0.00     0.164 C 
HETATM    9  C   UNL     1      41.068 -15.870   0.550  1.00  0.00     0.063 C 
HETATM   10  H   UNL     1      42.002 -14.763   3.614  1.00  0.00     0.178 HD
ENDROOT
BRANCH   1  11
HETATM   11  C   UNL     1      42.745 -16.856   2.131  1.00  0.00    -0.035 A 
HETATM   12  C   UNL     1      43.316 -17.776   1.239  1.00  0.00     0.012 A 
HETATM   13  C   UNL     1      43.947 -18.930   1.711  1.00  0.00     0.037 A 
HETATM   14  C   UNL     1      44.043 -19.180   3.079  1.00  0.00     0.068 A 
HETATM   15  C   UNL     1      43.475 -18.276   3.977  1.00  0.00     0.037 A 
HETATM   16  C   UNL     1      42.833 -17.124   3.506  1.00  0.00     0.012 A 
BRANCH  14  17
HETATM   17  O   UNL     1      44.702 -20.331   3.408  1.00  0.00    -0.356 OA
HETATM   18  C   UNL     1      44.937 -20.559   4.792  1.00  0.00     0.210 C 
ENDBRANCH  14  17
ENDBRANCH   1  11
BRANCH   8  19
HETATM   19  C   UNL     1      41.143 -13.783  -0.891  1.00  0.00    -0.031 A 
HETATM   20  C   UNL     1      41.802 -12.586  -0.556  1.00  0.00     0.028 A 
HETATM   21  C   UNL     1      42.552 -11.899  -1.513  1.00  0.00     0.011 A 
HETATM   22 BR   UNL     1      43.424 -10.290  -1.039  1.00  0.00    -0.051 Br
HETATM   23  C   UNL     1      42.666 -12.388  -2.811  1.00  0.00     0.019 A 
HETATM   24  C   UNL     1      42.025 -13.574  -3.157  1.00  0.00     0.002 A 
HETATM   25  C   UNL     1      41.272 -14.267  -2.206  1.00  0.00     0.009 A 
ENDBRANCH   8  19
BRANCH   6  26
HETATM   26  N   UNL     1      38.259 -11.517   3.064  1.00  0.00    -0.229 N 
HETATM   27  H   UNL     1      38.415 -11.296   4.037  1.00  0.00     0.174 HD
HETATM   28  H   UNL     1      37.295 -11.485   2.765  1.00  0.00     0.174 HD
ENDBRANCH   6  26
TORSDOF 4
ENDMDL
MODEL 10
REMARK VINA RESULT:      -7.6      3.948      5.586
REMARK  4 active torsions:
REMARK  status: ('A' for Active; 'I' for Inactive)
REMARK    1  A    between atoms: O_2  and  C_3 
REMARK    2  A    between atoms: C_6  and  C_7 
REMARK    3  A    between atoms: C_12  and  N_13 
REMARK    4  A    between atoms: C_15  and  C_16 
ROOT
HETATM    1  C   UNL     1      41.549 -14.563   3.737  1.00  0.00     0.135 C 
HETATM    2  N   UNL     1      41.503 -13.981   2.400  1.00  0.00    -0.214 N 
HETATM    3  C   UNL     1      41.458 -14.780   1.316  1.00  0.00     0.736 A 
HETATM    4  N   UNL     1      41.207 -16.120   1.428  1.00  0.00    -0.074 N 
HETATM    5  N   UNL     1      41.167 -16.720   0.227  1.00  0.00     0.037 NA
HETATM    6  C   UNL     1      41.410 -15.682  -0.572  1.00  0.00     0.753 A 
HETATM    7  N   UNL     1      41.621 -14.487   0.052  1.00  0.00     0.131 NA
HETATM    8  C   UNL     1      41.024 -16.819   2.691  1.00  0.00     0.164 C 
HETATM    9  C   UNL     1      40.654 -15.817   3.798  1.00  0.00     0.063 C 
HETATM   10  H   UNL     1      41.926 -13.063   2.289  1.00  0.00     0.178 HD
ENDROOT
BRANCH   1  11
HETATM   11  C   UNL     1      41.097 -13.555   4.780  1.00  0.00    -0.035 A 
HETATM   12  C   UNL     1      39.848 -13.648   5.414  1.00  0.00     0.012 A 
HETATM   13  C   UNL     1      39.482 -12.735   6.405  1.00  0.00     0.037 A 
HETATM   14  C   UNL     1      40.360 -11.726   6.803  1.00  0.00     0.068 A 
HETATM   15  C   UNL     1      41.601 -11.619   6.179  1.00  0.00     0.037 A 
HETATM   16  C   UNL     1      41.967 -12.527   5.177  1.00  0.00     0.012 A 
BRANCH  14  17
HETATM   17  O   UNL     1      39.888 -10.914   7.796  1.00  0.00    -0.356 OA
HETATM   18  C   UNL     1      39.168 -11.545   8.848  1.00  0.00     0.210 C 
ENDBRANCH  14  17
ENDBRANCH   1  11
BRANCH   8  19
HETATM   19  C   UNL     1      42.227 -17.675   3.080  1.00  0.00    -0.031 A 
HETATM   20  C   UNL     1      42.902 -17.538   4.307  1.00  0.00     0.028 A 
HETATM   21  C   UNL     1      43.983 -18.366   4.616  1.00  0.00     0.011 A 
HETATM   22 BR   UNL     1      44.877 -18.158   6.269  1.00  0.00    -0.051 Br
HETATM   23  C   UNL     1      44.407 -19.345   3.721  1.00  0.00     0.019 A 
HETATM   24  C   UNL     1      43.745 -19.498   2.506  1.00  0.00     0.002 A 
HETATM   25  C   UNL     1      42.663 -18.673   2.189  1.00  0.00     0.009 A 
ENDBRANCH   8  19
BRANCH   6  26
HETATM   26  N   UNL     1      41.495 -15.733  -1.898  1.00  0.00    -0.229 N 
HETATM   27  H   UNL     1      41.614 -16.645  -2.313  1.00  0.00     0.174 HD
HETATM   28  H   UNL     1      42.004 -14.985  -2.349  1.00  0.00     0.174 HD
ENDBRANCH   6  26
TORSDOF 4
ENDMDL
