MODEL 1
REMARK VINA RESULT:      -8.8      0.000      0.000
REMARK  5 active torsions:
REMARK  status: ('A' for Active; 'I' for Inactive)
REMARK    1  A    between atoms: C_2  and  O_3 
REMARK    2  A    between atoms: O_3  and  C_4 
REMARK    3  A    between atoms: C_5  and  N_6 
REMARK       I    between atoms: N_6  and  C_7 
REMARK    4  A    between atoms: C_7  and  C_8 
REMARK    5  A    between atoms: C_9  and  C_10 
ROOT
HETATM    1  N   UNL     1      43.969 -14.675   7.596  1.00  0.00    -0.321 N 
HETATM    2  C   UNL     1      44.895 -13.662   7.680  1.00  0.00     0.245 C 
HETATM    3  O   UNL     1      45.796 -13.413   6.891  1.00  0.00    -0.268 OA
HETATM    4  H   UNL     1      43.194 -14.678   8.249  1.00  0.00     0.169 HD
ENDROOT
BRANCH   1   5
HETATM    5  C   UNL     1      43.926 -15.723   6.649  1.00  0.00     0.071 A 
HETATM    6  C   UNL     1      43.018 -15.579   5.570  1.00  0.00     0.096 A 
HETATM    7  C   UNL     1      42.816 -16.599   4.636  1.00  0.00     0.049 A 
HETATM    8  C   UNL     1      43.583 -17.739   4.760  1.00  0.00    -0.020 A 
HETATM    9  C   UNL     1      44.503 -17.869   5.790  1.00  0.00     0.078 A 
HETATM   10  C   UNL     1      43.551 -18.990   3.969  1.00  0.00     0.073 C 
HETATM   11  C   UNL     1      44.690 -16.886   6.747  1.00  0.00     0.069 A 
HETATM   12  O   UNL     1      45.163 -19.071   5.783  1.00  0.00    -0.345 OA
HETATM   13  C   UNL     1      44.847 -19.636   4.484  1.00  0.00     0.129 C 
HETATM   14  C   UNL     1      44.731 -21.146   4.616  1.00  0.00     0.040 C 
BRANCH   6  15
HETATM   15  O   UNL     1      42.277 -14.427   5.437  1.00  0.00    -0.349 OA
BRANCH  15  16
HETATM   16  C   UNL     1      40.870 -14.715   5.508  1.00  0.00     0.171 C 
HETATM   17  C   UNL     1      40.109 -13.480   5.954  1.00  0.00     0.034 C 
ENDBRANCH  15  16
ENDBRANCH   6  15
ENDBRANCH   1   5
BRANCH   2  18
HETATM   18  C   UNL     1      44.651 -12.802   8.866  1.00  0.00     0.077 C 
HETATM   19  C   UNL     1      43.716 -11.845   8.807  1.00  0.00     0.043 C 
BRANCH  19  20
HETATM   20  C   UNL     1      43.474 -10.999   9.922  1.00  0.00     0.077 A 
HETATM   21  O   UNL     1      42.639  -9.902   9.889  1.00  0.00    -0.310 OA
HETATM   22  C   UNL     1      42.623  -9.337  11.124  1.00  0.00     0.086 A 
HETATM   23  C   UNL     1      43.457 -10.033  11.983  1.00  0.00     0.000 A 
HETATM   24  C   UNL     1      41.878  -8.219  11.492  1.00  0.00     0.038 A 
HETATM   25  C   UNL     1      43.993 -11.094  11.209  1.00  0.00     0.051 A 
HETATM   26  C   UNL     1      43.581  -9.588  13.310  1.00  0.00     0.014 A 
HETATM   27  C   UNL     1      42.846  -8.463  13.713  1.00  0.00     0.001 A 
HETATM   28  C   UNL     1      42.006  -7.794  12.818  1.00  0.00     0.003 A 
ENDBRANCH  19  20
ENDBRANCH   2  18
TORSDOF 5
ENDMDL
MODEL 2
REMARK VINA RESULT:      -8.6      8.249     11.711
REMARK  5 active torsions:
REMARK  status: ('A' for Active; 'I' for Inactive)
REMARK    1  A    between atoms: C_2  and  O_3 
REMARK    2  A    between atoms: O_3  and  C_4 
REMARK    3  A    between atoms: C_5  and  N_6 
REMARK       I    between atoms: N_6  and  C_7 
REMARK    4  A    between atoms: C_7  and  C_8 
REMARK    5  A    between atoms: C_9  and  C_10 
ROOT
HETATM    1  N   UNL     1      42.030 -14.698  -0.972  1.00  0.00    -0.321 N 
HETATM    2  C   UNL     1      41.138 -15.202  -0.055  1.00  0.00     0.245 C 
HETATM    3  O   UNL     1      40.055 -14.731   0.264  1.00  0.00    -0.268 OA
HETATM    4  H   UNL     1      42.826 -15.266  -1.235  1.00  0.00     0.169 HD
ENDROOT
BRANCH   1   5
HETATM    5  C   UNL     1      41.952 -13.466  -1.658  1.00  0.00     0.071 A 
HETATM    6  C   UNL     1      41.545 -13.509  -3.016  1.00  0.00     0.096 A 
HETATM    7  C   UNL     1      41.535 -12.366  -3.819  1.00  0.00     0.049 A 
HETATM    8  C   UNL     1      41.876 -11.167  -3.227  1.00  0.00    -0.020 A 
HETATM    9  C   UNL     1      42.235 -11.111  -1.889  1.00  0.00     0.078 A 
HETATM   10  C   UNL     1      42.010  -9.821  -3.829  1.00  0.00     0.073 C 
HETATM   11  C   UNL     1      42.288 -12.237  -1.086  1.00  0.00     0.069 A 
HETATM   12  O   UNL     1      42.567  -9.849  -1.465  1.00  0.00    -0.345 OA
HETATM   13  C   UNL     1      42.111  -8.988  -2.542  1.00  0.00     0.129 C 
HETATM   14  C   UNL     1      43.069  -7.818  -2.679  1.00  0.00     0.040 C 
BRANCH   6  15
HETATM   15  O   UNL     1      41.180 -14.705  -3.590  1.00  0.00    -0.349 OA
BRANCH  15  16
HETATM   16  C   UNL     1      39.749 -14.817  -3.667  1.00  0.00     0.171 C 
HETATM   17  C   UNL     1      39.353 -16.254  -3.952  1.00  0.00     0.034 C 
ENDBRANCH  15  16
ENDBRANCH   6  15
ENDBRANCH   1   5
BRANCH   2  18
HETATM   18  C   UNL     1      41.613 -16.490   0.512  1.00  0.00     0.077 C 
HETATM   19  C   UNL     1      42.621 -16.490   1.396  1.00  0.00     0.043 C 
BRANCH  19  20
HETATM   20  C   UNL     1      43.104 -17.710   1.941  1.00  0.00     0.077 A 
HETATM   21  O   UNL     1      43.017 -18.927   1.299  1.00  0.00    -0.310 OA
HETATM   22  C   UNL     1      43.592 -19.871   2.088  1.00  0.00     0.086 A 
HETATM   23  C   UNL     1      44.046 -19.302   3.266  1.00  0.00     0.000 A 
HETATM   24  C   UNL     1      43.717 -21.222   1.772  1.00  0.00     0.038 A 
HETATM   25  C   UNL     1      43.735 -17.922   3.162  1.00  0.00     0.051 A 
HETATM   26  C   UNL     1      44.663 -20.129   4.220  1.00  0.00     0.014 A 
HETATM   27  C   UNL     1      44.803 -21.496   3.934  1.00  0.00     0.001 A 
HETATM   28  C   UNL     1      44.340 -22.030   2.729  1.00  0.00     0.003 A 
ENDBRANCH  19  20
ENDBRANCH   2  18
TORSDOF 5
ENDMDL
MODEL 3
REMARK VINA RESULT:      -8.4      1.792      2.482
REMARK  5 active torsions:
REMARK  status: ('A' for Active; 'I' for Inactive)
REMARK    1  A    between atoms: C_2  and  O_3 
REMARK    2  A    between atoms: O_3  and  C_4 
REMARK    3  A    between atoms: C_5  and  N_6 
REMARK       I    between atoms: N_6  and  C_7 
REMARK    4  A    between atoms: C_7  and  C_8 
REMARK    5  A    between atoms: C_9  and  C_10 
ROOT
HETATM    1  N   UNL     1      43.103 -15.474   5.296  1.00  0.00    -0.321 N 
HETATM    2  C   UNL     1      43.699 -14.242   5.161  1.00  0.00     0.245 C 
HETATM    3  O   UNL     1      44.352 -13.833   4.211  1.00  0.00    -0.268 OA
HETATM    4  H   UNL     1      42.478 -15.625   6.078  1.00  0.00     0.169 HD
ENDROOT
BRANCH   1   5
HETATM    5  C   UNL     1      43.212 -16.580   4.424  1.00  0.00     0.071 A 
HETATM    6  C   UNL     1      42.452 -16.537   3.229  1.00  0.00     0.096 A 
HETATM    7  C   UNL     1      42.401 -17.619   2.347  1.00  0.00     0.049 A 
HETATM    8  C   UNL     1      43.174 -18.723   2.647  1.00  0.00    -0.020 A 
HETATM    9  C   UNL     1      43.952 -18.756   3.795  1.00  0.00     0.078 A 
HETATM   10  C   UNL     1      43.279 -20.023   1.945  1.00  0.00     0.073 C 
HETATM   11  C   UNL     1      43.986 -17.709   4.700  1.00  0.00     0.069 A 
HETATM   12  O   UNL     1      44.637 -19.933   3.956  1.00  0.00    -0.345 OA
HETATM   13  C   UNL     1      44.510 -20.591   2.668  1.00  0.00     0.129 C 
HETATM   14  C   UNL     1      44.416 -22.091   2.884  1.00  0.00     0.040 C 
BRANCH   6  15
HETATM   15  O   UNL     1      41.707 -15.421   2.923  1.00  0.00    -0.349 OA
BRANCH  15  16
HETATM   16  C   UNL     1      40.310 -15.660   3.163  1.00  0.00     0.171 C 
HETATM   17  C   UNL     1      39.506 -15.346   1.914  1.00  0.00     0.034 C 
ENDBRANCH  15  16
ENDBRANCH   6  15
ENDBRANCH   1   5
BRANCH   2  18
HETATM   18  C   UNL     1      43.412 -13.370   6.329  1.00  0.00     0.077 C 
HETATM   19  C   UNL     1      44.376 -13.134   7.229  1.00  0.00     0.043 C 
BRANCH  19  20
HETATM   20  C   UNL     1      44.122 -12.317   8.363  1.00  0.00     0.077 A 
HETATM   21  O   UNL     1      43.176 -11.314   8.392  1.00  0.00    -0.310 OA
HETATM   22  C   UNL     1      43.183 -10.752   9.628  1.00  0.00     0.086 A 
HETATM   23  C   UNL     1      44.141 -11.355  10.426  1.00  0.00     0.000 A 
HETATM   24  C   UNL     1      42.350  -9.718  10.051  1.00  0.00     0.038 A 
HETATM   25  C   UNL     1      44.733 -12.355   9.612  1.00  0.00     0.051 A 
HETATM   26  C   UNL     1      44.306 -10.897  11.744  1.00  0.00     0.014 A 
HETATM   27  C   UNL     1      43.485  -9.855  12.201  1.00  0.00     0.001 A 
HETATM   28  C   UNL     1      42.522  -9.280  11.368  1.00  0.00     0.003 A 
ENDBRANCH  19  20
ENDBRANCH   2  18
TORSDOF 5
ENDMDL
MODEL 4
REMARK VINA RESULT:      -8.3      8.163     11.311
REMARK  5 active torsions:
REMARK  status: ('A' for Active; 'I' for Inactive)
REMARK    1  A    between atoms: C_2  and  O_3 
REMARK    2  A    between atoms: O_3  and  C_4 
REMARK    3  A    between atoms: C_5  and  N_6 
REMARK       I    between atoms: N_6  and  C_7 
REMARK    4  A    between atoms: C_7  and  C_8 
REMARK    5  A    between atoms: C_9  and  C_10 
ROOT
HETATM    1  N   UNL     1      41.597 -15.163  -0.547  1.00  0.00    -0.321 N 
HETATM    2  C   UNL     1      41.889 -15.173   0.797  1.00  0.00     0.245 C 
HETATM    3  O   UNL     1      41.877 -14.221   1.566  1.00  0.00    -0.268 OA
HETATM    4  H   UNL     1      41.514 -16.050  -1.030  1.00  0.00     0.169 HD
ENDROOT
BRANCH   1   5
HETATM    5  C   UNL     1      41.336 -14.039  -1.361  1.00  0.00     0.071 A 
HETATM    6  C   UNL     1      39.977 -13.745  -1.638  1.00  0.00     0.096 A 
HETATM    7  C   UNL     1      39.608 -12.723  -2.516  1.00  0.00     0.049 A 
HETATM    8  C   UNL     1      40.617 -11.956  -3.064  1.00  0.00    -0.020 A 
HETATM    9  C   UNL     1      41.947 -12.213  -2.765  1.00  0.00     0.078 A 
HETATM   10  C   UNL     1      40.539 -10.860  -4.056  1.00  0.00     0.073 C 
HETATM   11  C   UNL     1      42.335 -13.245  -1.927  1.00  0.00     0.069 A 
HETATM   12  O   UNL     1      42.822 -11.377  -3.410  1.00  0.00    -0.345 OA
HETATM   13  C   UNL     1      41.974 -10.324  -3.939  1.00  0.00     0.129 C 
HETATM   14  C   UNL     1      42.533  -9.861  -5.273  1.00  0.00     0.040 C 
BRANCH   6  15
HETATM   15  O   UNL     1      38.977 -14.496  -1.065  1.00  0.00    -0.349 OA
BRANCH  15  16
HETATM   16  C   UNL     1      38.232 -13.713  -0.117  1.00  0.00     0.171 C 
HETATM   17  C   UNL     1      38.198 -14.417   1.227  1.00  0.00     0.034 C 
ENDBRANCH  15  16
ENDBRANCH   6  15
ENDBRANCH   1   5
BRANCH   2  18
HETATM   18  C   UNL     1      42.187 -16.546   1.277  1.00  0.00     0.077 C 
HETATM   19  C   UNL     1      43.388 -16.815   1.807  1.00  0.00     0.043 C 
BRANCH  19  20
HETATM   20  C   UNL     1      43.703 -18.124   2.259  1.00  0.00     0.077 A 
HETATM   21  O   UNL     1      44.166 -18.409   3.526  1.00  0.00    -0.310 OA
HETATM   22  C   UNL     1      44.343 -19.752   3.627  1.00  0.00     0.086 A 
HETATM   23  C   UNL     1      44.023 -20.370   2.431  1.00  0.00     0.000 A 
HETATM   24  C   UNL     1      44.781 -20.427   4.765  1.00  0.00     0.038 A 
HETATM   25  C   UNL     1      43.611 -19.325   1.565  1.00  0.00     0.051 A 
HETATM   26  C   UNL     1      44.155 -21.767   2.336  1.00  0.00     0.014 A 
HETATM   27  C   UNL     1      44.597 -22.477   3.463  1.00  0.00     0.001 A 
HETATM   28  C   UNL     1      44.900 -21.816   4.657  1.00  0.00     0.003 A 
ENDBRANCH  19  20
ENDBRANCH   2  18
TORSDOF 5
ENDMDL
MODEL 5
REMARK VINA RESULT:      -8.2      2.881      9.715
REMARK  5 active torsions:
REMARK  status: ('A' for Active; 'I' for Inactive)
REMARK    1  A    between atoms: C_2  and  O_3 
REMARK    2  A    between atoms: O_3  and  C_4 
REMARK    3  A    between atoms: C_5  and  N_6 
REMARK       I    between atoms: N_6  and  C_7 
REMARK    4  A    between atoms: C_7  and  C_8 
REMARK    5  A    between atoms: C_9  and  C_10 
ROOT
HETATM    1  N   UNL     1      41.915 -11.165   8.626  1.00  0.00    -0.321 N 
HETATM    2  C   UNL     1      41.751 -10.440   7.468  1.00  0.00     0.245 C 
HETATM    3  O   UNL     1      41.986  -9.252   7.297  1.00  0.00    -0.268 OA
HETATM    4  H   UNL     1      41.810 -12.172   8.585  1.00  0.00     0.169 HD
ENDROOT
BRANCH   1   5
HETATM    5  C   UNL     1      42.275 -10.676   9.901  1.00  0.00     0.071 A 
HETATM    6  C   UNL     1      43.658 -10.506  10.160  1.00  0.00     0.096 A 
HETATM    7  C   UNL     1      44.132 -10.131  11.419  1.00  0.00     0.049 A 
HETATM    8  C   UNL     1      43.198  -9.865  12.400  1.00  0.00    -0.020 A 
HETATM    9  C   UNL     1      41.841  -9.989  12.141  1.00  0.00     0.078 A 
HETATM   10  C   UNL     1      43.396  -9.509  13.823  1.00  0.00     0.073 C 
HETATM   11  C   UNL     1      41.353 -10.397  10.912  1.00  0.00     0.069 A 
HETATM   12  O   UNL     1      41.051  -9.712  13.228  1.00  0.00    -0.345 OA
HETATM   13  C   UNL     1      41.961  -9.087  14.171  1.00  0.00     0.129 C 
HETATM   14  C   UNL     1      41.563  -9.486  15.582  1.00  0.00     0.040 C 
BRANCH   6  15
HETATM   15  O   UNL     1      44.581 -10.746   9.168  1.00  0.00    -0.349 OA
BRANCH  15  16
HETATM   16  C   UNL     1      45.290 -11.972   9.418  1.00  0.00     0.171 C 
HETATM   17  C   UNL     1      45.002 -12.973   8.314  1.00  0.00     0.034 C 
ENDBRANCH  15  16
ENDBRANCH   6  15
ENDBRANCH   1   5
BRANCH   2  18
HETATM   18  C   UNL     1      41.284 -11.301   6.352  1.00  0.00     0.077 C 
HETATM   19  C   UNL     1      41.630 -12.596   6.327  1.00  0.00     0.043 C 
BRANCH  19  20
HETATM   20  C   UNL     1      41.209 -13.436   5.262  1.00  0.00     0.077 A 
HETATM   21  O   UNL     1      41.741 -14.683   5.011  1.00  0.00    -0.310 OA
HETATM   22  C   UNL     1      41.099 -15.217   3.939  1.00  0.00     0.086 A 
HETATM   23  C   UNL     1      40.153 -14.329   3.455  1.00  0.00     0.000 A 
HETATM   24  C   UNL     1      41.343 -16.476   3.395  1.00  0.00     0.038 A 
HETATM   25  C   UNL     1      40.227 -13.198   4.307  1.00  0.00     0.051 A 
HETATM   26  C   UNL     1      39.391 -14.701   2.334  1.00  0.00     0.014 A 
HETATM   27  C   UNL     1      39.613 -15.962   1.759  1.00  0.00     0.001 A 
HETATM   28  C   UNL     1      40.571 -16.834   2.285  1.00  0.00     0.003 A 
ENDBRANCH  19  20
ENDBRANCH   2  18
TORSDOF 5
ENDMDL
MODEL 6
REMARK VINA RESULT:      -8.1      1.471      9.365
REMARK  5 active torsions:
REMARK  status: ('A' for Active; 'I' for Inactive)
REMARK    1  A    between atoms: C_2  and  O_3 
REMARK    2  A    between atoms: O_3  and  C_4 
REMARK    3  A    between atoms: C_5  and  N_6 
REMARK       I    between atoms: N_6  and  C_7 
REMARK    4  A    between atoms: C_7  and  C_8 
REMARK    5  A    between atoms: C_9  and  C_10 
ROOT
HETATM    1  N   UNL     1      43.774 -12.795   8.660  1.00  0.00    -0.321 N 
HETATM    2  C   UNL     1      45.019 -12.945   8.095  1.00  0.00     0.245 C 
HETATM    3  O   UNL     1      46.024 -12.289   8.328  1.00  0.00    -0.268 OA
HETATM    4  H   UNL     1      43.070 -13.498   8.473  1.00  0.00     0.169 HD
ENDROOT
BRANCH   1   5
HETATM    5  C   UNL     1      43.349 -11.776   9.542  1.00  0.00     0.071 A 
HETATM    6  C   UNL     1      42.713 -10.648   8.964  1.00  0.00     0.096 A 
HETATM    7  C   UNL     1      42.348  -9.536   9.728  1.00  0.00     0.049 A 
HETATM    8  C   UNL     1      42.570  -9.597  11.089  1.00  0.00    -0.020 A 
HETATM    9  C   UNL     1      43.154 -10.714  11.666  1.00  0.00     0.078 A 
HETATM   10  C   UNL     1      42.346  -8.567  12.130  1.00  0.00     0.073 C 
HETATM   11  C   UNL     1      43.558 -11.809  10.921  1.00  0.00     0.069 A 
HETATM   12  O   UNL     1      43.325 -10.602  13.022  1.00  0.00    -0.345 OA
HETATM   13  C   UNL     1      42.530  -9.441  13.379  1.00  0.00     0.129 C 
HETATM   14  C   UNL     1      43.219  -8.698  14.512  1.00  0.00     0.040 C 
BRANCH   6  15
HETATM   15  O   UNL     1      42.470 -10.609   7.611  1.00  0.00    -0.349 OA
BRANCH  15  16
HETATM   16  C   UNL     1      41.110 -10.977   7.326  1.00  0.00     0.171 C 
HETATM   17  C   UNL     1      41.067 -11.955   6.167  1.00  0.00     0.034 C 
ENDBRANCH  15  16
ENDBRANCH   6  15
ENDBRANCH   1   5
BRANCH   2  18
HETATM   18  C   UNL     1      45.051 -14.093   7.153  1.00  0.00     0.077 C 
HETATM   19  C   UNL     1      44.151 -15.077   7.280  1.00  0.00     0.043 C 
BRANCH  19  20
HETATM   20  C   UNL     1      44.170 -16.193   6.401  1.00  0.00     0.077 A 
HETATM   21  O   UNL     1      43.619 -16.186   5.137  1.00  0.00    -0.310 OA
HETATM   22  C   UNL     1      43.833 -17.401   4.568  1.00  0.00     0.086 A 
HETATM   23  C   UNL     1      44.505 -18.232   5.448  1.00  0.00     0.000 A 
HETATM   24  C   UNL     1      43.441 -17.773   3.284  1.00  0.00     0.038 A 
HETATM   25  C   UNL     1      44.720 -17.453   6.613  1.00  0.00     0.051 A 
HETATM   26  C   UNL     1      44.807 -19.543   5.040  1.00  0.00     0.014 A 
HETATM   27  C   UNL     1      44.424 -19.951   3.753  1.00  0.00     0.001 A 
HETATM   28  C   UNL     1      43.755 -19.077   2.891  1.00  0.00     0.003 A 
ENDBRANCH  19  20
ENDBRANCH   2  18
TORSDOF 5
ENDMDL
MODEL 7
REMARK VINA RESULT:      -8.0      1.559      2.873
REMARK  5 active torsions:
REMARK  status: ('A' for Active; 'I' for Inactive)
REMARK    1  A    between atoms: C_2  and  O_3 
REMARK    2  A    between atoms: O_3  and  C_4 
REMARK    3  A    between atoms: C_5  and  N_6 
REMARK       I    between atoms: N_6  and  C_7 
REMARK    4  A    between atoms: C_7  and  C_8 
REMARK    5  A    between atoms: C_9  and  C_10 
ROOT
HETATM    1  N   UNL     1      43.517 -14.179   7.042  1.00  0.00    -0.321 N 
HETATM    2  C   UNL     1      44.694 -13.589   7.439  1.00  0.00     0.245 C 
HETATM    3  O   UNL     1      45.779 -13.644   6.877  1.00  0.00    -0.268 OA
HETATM    4  H   UNL     1      42.664 -13.934   7.531  1.00  0.00     0.169 HD
ENDROOT
BRANCH   1   5
HETATM    5  C   UNL     1      43.326 -15.078   5.969  1.00  0.00     0.071 A 
HETATM    6  C   UNL     1      43.796 -16.403   6.147  1.00  0.00     0.096 A 
HETATM    7  C   UNL     1      43.756 -17.344   5.115  1.00  0.00     0.049 A 
HETATM    8  C   UNL     1      43.180 -16.959   3.921  1.00  0.00    -0.020 A 
HETATM    9  C   UNL     1      42.682 -15.675   3.754  1.00  0.00     0.078 A 
HETATM   10  C   UNL     1      43.049 -17.706   2.650  1.00  0.00     0.073 C 
HETATM   11  C   UNL     1      42.746 -14.717   4.751  1.00  0.00     0.069 A 
HETATM   12  O   UNL     1      42.166 -15.449   2.503  1.00  0.00    -0.345 OA
HETATM   13  C   UNL     1      42.069 -16.774   1.920  1.00  0.00     0.129 C 
HETATM   14  C   UNL     1      42.354 -16.682   0.431  1.00  0.00     0.040 C 
BRANCH   6  15
HETATM   15  O   UNL     1      44.342 -16.788   7.350  1.00  0.00    -0.349 OA
BRANCH  15  16
HETATM   16  C   UNL     1      43.476 -17.711   8.031  1.00  0.00     0.171 C 
HETATM   17  C   UNL     1      44.300 -18.748   8.772  1.00  0.00     0.034 C 
ENDBRANCH  15  16
ENDBRANCH   6  15
ENDBRANCH   1   5
BRANCH   2  18
HETATM   18  C   UNL     1      44.504 -12.773   8.665  1.00  0.00     0.077 C 
HETATM   19  C   UNL     1      43.591 -11.791   8.671  1.00  0.00     0.043 C 
BRANCH  19  20
HETATM   20  C   UNL     1      43.402 -10.987   9.826  1.00  0.00     0.077 A 
HETATM   21  O   UNL     1      42.566  -9.890   9.871  1.00  0.00    -0.310 OA
HETATM   22  C   UNL     1      42.606  -9.370  11.125  1.00  0.00     0.086 A 
HETATM   23  C   UNL     1      43.479 -10.095  11.919  1.00  0.00     0.000 A 
HETATM   24  C   UNL     1      41.879  -8.267  11.566  1.00  0.00     0.038 A 
HETATM   25  C   UNL     1      43.979 -11.127  11.084  1.00  0.00     0.051 A 
HETATM   26  C   UNL     1      43.664  -9.698  13.254  1.00  0.00     0.014 A 
HETATM   27  C   UNL     1      42.948  -8.589  13.730  1.00  0.00     0.001 A 
HETATM   28  C   UNL     1      42.068  -7.890  12.900  1.00  0.00     0.003 A 
ENDBRANCH  19  20
ENDBRANCH   2  18
TORSDOF 5
ENDMDL
MODEL 8
REMARK VINA RESULT:      -7.9      6.203     11.047
REMARK  5 active torsions:
REMARK  status: ('A' for Active; 'I' for Inactive)
REMARK    1  A    between atoms: C_2  and  O_3 
REMARK    2  A    between atoms: O_3  and  C_4 
REMARK    3  A    between atoms: C_5  and  N_6 
REMARK       I    between atoms: N_6  and  C_7 
REMARK    4  A    between atoms: C_7  and  C_8 
REMARK    5  A    between atoms: C_9  and  C_10 
ROOT
HETATM    1  N   UNL     1      41.897 -15.356   0.203  1.00  0.00    -0.321 N 
HETATM    2  C   UNL     1      40.984 -15.873   1.092  1.00  0.00     0.245 C 
HETATM    3  O   UNL     1      39.861 -15.453   1.331  1.00  0.00    -0.268 OA
HETATM    4  H   UNL     1      42.737 -15.888   0.007  1.00  0.00     0.169 HD
ENDROOT
BRANCH   1   5
HETATM    5  C   UNL     1      41.789 -14.159  -0.540  1.00  0.00     0.071 A 
HETATM    6  C   UNL     1      42.080 -12.950   0.140  1.00  0.00     0.096 A 
HETATM    7  C   UNL     1      41.904 -11.703  -0.465  1.00  0.00     0.049 A 
HETATM    8  C   UNL     1      41.494 -11.686  -1.783  1.00  0.00    -0.020 A 
HETATM    9  C   UNL     1      41.247 -12.866  -2.467  1.00  0.00     0.078 A 
HETATM   10  C   UNL     1      41.171 -10.535  -2.657  1.00  0.00     0.073 C 
HETATM   11  C   UNL     1      41.379 -14.110  -1.874  1.00  0.00     0.069 A 
HETATM   12  O   UNL     1      40.825 -12.672  -3.758  1.00  0.00    -0.345 OA
HETATM   13  C   UNL     1      41.096 -11.267  -4.006  1.00  0.00     0.129 C 
HETATM   14  C   UNL     1      40.014 -10.707  -4.913  1.00  0.00     0.040 C 
BRANCH   6  15
HETATM   15  O   UNL     1      42.515 -12.978   1.445  1.00  0.00    -0.349 OA
BRANCH  15  16
HETATM   16  C   UNL     1      41.533 -12.400   2.322  1.00  0.00     0.171 C 
HETATM   17  C   UNL     1      41.943 -12.606   3.769  1.00  0.00     0.034 C 
ENDBRANCH  15  16
ENDBRANCH   6  15
ENDBRANCH   1   5
BRANCH   2  18
HETATM   18  C   UNL     1      41.497 -17.107   1.739  1.00  0.00     0.077 C 
HETATM   19  C   UNL     1      42.787 -17.441   1.595  1.00  0.00     0.043 C 
BRANCH  19  20
HETATM   20  C   UNL     1      43.299 -18.624   2.191  1.00  0.00     0.077 A 
HETATM   21  O   UNL     1      43.771 -18.692   3.485  1.00  0.00    -0.310 OA
HETATM   22  C   UNL     1      44.161 -19.968   3.735  1.00  0.00     0.086 A 
HETATM   23  C   UNL     1      43.975 -20.756   2.611  1.00  0.00     0.000 A 
HETATM   24  C   UNL     1      44.675 -20.436   4.943  1.00  0.00     0.038 A 
HETATM   25  C   UNL     1      43.421 -19.892   1.633  1.00  0.00     0.051 A 
HETATM   26  C   UNL     1      44.335 -22.114   2.672  1.00  0.00     0.014 A 
HETATM   27  C   UNL     1      44.858 -22.616   3.874  1.00  0.00     0.001 A 
HETATM   28  C   UNL     1      45.020 -21.790   4.990  1.00  0.00     0.003 A 
ENDBRANCH  19  20
ENDBRANCH   2  18
TORSDOF 5
ENDMDL
MODEL 9
REMARK VINA RESULT:      -7.8      7.932     11.565
REMARK  5 active torsions:
REMARK  status: ('A' for Active; 'I' for Inactive)
REMARK    1  A    between atoms: C_2  and  O_3 
REMARK    2  A    between atoms: O_3  and  C_4 
REMARK    3  A    between atoms: C_5  and  N_6 
REMARK       I    between atoms: N_6  and  C_7 
REMARK    4  A    between atoms: C_7  and  C_8 
REMARK    5  A    between atoms: C_9  and  C_10 
ROOT
HETATM    1  N   UNL     1      39.928 -15.195   0.271  1.00  0.00    -0.321 N 
HETATM    2  C   UNL     1      41.241 -15.021   0.641  1.00  0.00     0.245 C 
HETATM    3  O   UNL     1      41.844 -13.964   0.763  1.00  0.00    -0.268 OA
HETATM    4  H   UNL     1      39.523 -16.121   0.345  1.00  0.00     0.169 HD
ENDROOT
BRANCH   1   5
HETATM    5  C   UNL     1      39.021 -14.205  -0.167  1.00  0.00     0.071 A 
HETATM    6  C   UNL     1      39.031 -13.887  -1.548  1.00  0.00     0.096 A 
HETATM    7  C   UNL     1      38.253 -12.851  -2.072  1.00  0.00     0.049 A 
HETATM    8  C   UNL     1      37.416 -12.180  -1.204  1.00  0.00    -0.020 A 
HETATM    9  C   UNL     1      37.371 -12.514   0.141  1.00  0.00     0.078 A 
HETATM   10  C   UNL     1      36.531 -11.019  -1.452  1.00  0.00     0.073 C 
HETATM   11  C   UNL     1      38.161 -13.510   0.686  1.00  0.00     0.069 A 
HETATM   12  O   UNL     1      36.506 -11.735   0.868  1.00  0.00    -0.345 OA
HETATM   13  C   UNL     1      35.729 -11.040  -0.142  1.00  0.00     0.129 C 
HETATM   14  C   UNL     1      35.398  -9.645   0.360  1.00  0.00     0.040 C 
BRANCH   6  15
HETATM   15  O   UNL     1      39.848 -14.580  -2.411  1.00  0.00    -0.349 OA
BRANCH  15  16
HETATM   16  C   UNL     1      39.276 -14.623  -3.730  1.00  0.00     0.171 C 
HETATM   17  C   UNL     1      39.048 -16.063  -4.152  1.00  0.00     0.034 C 
ENDBRANCH  15  16
ENDBRANCH   6  15
ENDBRANCH   1   5
BRANCH   2  18
HETATM   18  C   UNL     1      41.892 -16.318   0.957  1.00  0.00     0.077 C 
HETATM   19  C   UNL     1      42.117 -16.649   2.236  1.00  0.00     0.043 C 
BRANCH  19  20
HETATM   20  C   UNL     1      42.751 -17.877   2.564  1.00  0.00     0.077 A 
HETATM   21  O   UNL     1      42.766 -18.980   1.737  1.00  0.00    -0.310 OA
HETATM   22  C   UNL     1      43.473 -19.966   2.348  1.00  0.00     0.086 A 
HETATM   23  C   UNL     1      43.915 -19.542   3.590  1.00  0.00     0.000 A 
HETATM   24  C   UNL     1      43.727 -21.228   1.815  1.00  0.00     0.038 A 
HETATM   25  C   UNL     1      43.454 -18.207   3.718  1.00  0.00     0.051 A 
HETATM   26  C   UNL     1      44.659 -20.434   4.382  1.00  0.00     0.014 A 
HETATM   27  C   UNL     1      44.931 -21.715   3.875  1.00  0.00     0.001 A 
HETATM   28  C   UNL     1      44.475 -22.101   2.612  1.00  0.00     0.003 A 
ENDBRANCH  19  20
ENDBRANCH   2  18
TORSDOF 5
ENDMDL
MODEL 10
REMARK VINA RESULT:      -7.8      2.530      9.926
REMARK  5 active torsions:
REMARK  status: ('A' for Active; 'I' for Inactive)
REMARK    1  A    between atoms: C_2  and  O_3 
REMARK    2  A    between atoms: O_3  and  C_4 
REMARK    3  A    between atoms: C_5  and  N_6 
REMARK       I    between atoms: N_6  and  C_7 
REMARK    4  A    between atoms: C_7  and  C_8 
REMARK    5  A    between atoms: C_9  and  C_10 
ROOT
HETATM    1  N   UNL     1      41.639 -11.934   6.904  1.00  0.00    -0.321 N 
HETATM    2  C   UNL     1      41.601 -11.609   5.568  1.00  0.00     0.245 C 
HETATM    3  O   UNL     1      41.362 -10.515   5.077  1.00  0.00    -0.268 OA
HETATM    4  H   UNL     1      41.985 -12.849   7.170  1.00  0.00     0.169 HD
ENDROOT
BRANCH   1   5
HETATM    5  C   UNL     1      41.294 -11.110   7.999  1.00  0.00     0.071 A 
HETATM    6  C   UNL     1      42.354 -10.651   8.819  1.00  0.00     0.096 A 
HETATM    7  C   UNL     1      42.120  -9.920   9.986  1.00  0.00     0.049 A 
HETATM    8  C   UNL     1      40.811  -9.600  10.287  1.00  0.00    -0.020 A 
HETATM    9  C   UNL     1      39.772 -10.012   9.467  1.00  0.00     0.078 A 
HETATM   10  C   UNL     1      40.257  -8.898  11.467  1.00  0.00     0.073 C 
HETATM   11  C   UNL     1      39.980 -10.769   8.326  1.00  0.00     0.069 A 
HETATM   12  O   UNL     1      38.535  -9.632   9.921  1.00  0.00    -0.345 OA
HETATM   13  C   UNL     1      38.827  -8.660  10.959  1.00  0.00     0.129 C 
HETATM   14  C   UNL     1      37.789  -8.785  12.061  1.00  0.00     0.040 C 
BRANCH   6  15
HETATM   15  O   UNL     1      43.658 -10.950   8.496  1.00  0.00    -0.349 OA
BRANCH  15  16
HETATM   16  C   UNL     1      44.307 -11.634   9.582  1.00  0.00     0.171 C 
HETATM   17  C   UNL     1      45.642 -10.979   9.886  1.00  0.00     0.034 C 
ENDBRANCH  15  16
ENDBRANCH   6  15
ENDBRANCH   1   5
BRANCH   2  18
HETATM   18  C   UNL     1      41.956 -12.773   4.717  1.00  0.00     0.077 C 
HETATM   19  C   UNL     1      42.450 -13.881   5.286  1.00  0.00     0.043 C 
BRANCH  19  20
HETATM   20  C   UNL     1      42.812 -15.002   4.493  1.00  0.00     0.077 A 
HETATM   21  O   UNL     1      42.729 -16.309   4.924  1.00  0.00    -0.310 OA
HETATM   22  C   UNL     1      43.130 -17.122   3.913  1.00  0.00     0.086 A 
HETATM   23  C   UNL     1      43.504 -16.371   2.812  1.00  0.00     0.000 A 
HETATM   24  C   UNL     1      43.166 -18.514   3.960  1.00  0.00     0.038 A 
HETATM   25  C   UNL     1      43.294 -15.020   3.188  1.00  0.00     0.051 A 
HETATM   26  C   UNL     1      43.964 -17.040   1.664  1.00  0.00     0.014 A 
HETATM   27  C   UNL     1      44.014 -18.442   1.679  1.00  0.00     0.001 A 
HETATM   28  C   UNL     1      43.618 -19.165   2.808  1.00  0.00     0.003 A 
ENDBRANCH  19  20
ENDBRANCH   2  18
TORSDOF 5
ENDMDL
