MODEL 1
REMARK VINA RESULT:      -8.9      0.000      0.000
REMARK  7 active torsions:
REMARK  status: ('A' for Active; 'I' for Inactive)
REMARK    1  A    between atoms: C_2  and  O_3 
REMARK    2  A    between atoms: O_3  and  C_4 
REMARK    3  A    between atoms: C_7  and  N_8 
REMARK    4  A    between atoms: C_9  and  C_11 
REMARK    5  A    between atoms: C_9  and  O_10 
REMARK       I    between atoms: C_11  and  N_12 
REMARK    6  A    between atoms: N_12  and  C_13 
REMARK    7  A    between atoms: C_13  and  C_14 
ROOT
HETATM    1  N   UNL     1      40.526 -14.114   3.442  1.00  0.00    -0.254 N 
HETATM    2  C   UNL     1      40.275 -14.862   2.195  1.00  0.00     0.256 C 
HETATM    3  C   UNL     1      39.531 -14.053   1.148  1.00  0.00     0.034 A 
HETATM    4  C   UNL     1      38.783 -12.960   1.571  1.00  0.00     0.048 A 
HETATM    5  N   UNL     1      38.794 -12.616   2.915  1.00  0.00    -0.308 N 
HETATM    6  C   UNL     1      39.622 -13.148   3.860  1.00  0.00     0.330 C 
HETATM    7  O   UNL     1      39.557 -12.685   5.001  1.00  0.00    -0.246 OA
HETATM    8  C   UNL     1      39.482 -14.405  -0.214  1.00  0.00     0.015 A 
HETATM    9  C   UNL     1      38.733 -13.650  -1.120  1.00  0.00     0.001 A 
HETATM   10  C   UNL     1      38.000 -12.552  -0.675  1.00  0.00     0.002 A 
HETATM   11  C   UNL     1      38.017 -12.210   0.676  1.00  0.00     0.030 A 
HETATM   12  H   UNL     1      38.221 -11.851   3.247  1.00  0.00     0.170 HD
ENDROOT
BRANCH   2  13
HETATM   13  C   UNL     1      41.589 -15.482   1.557  1.00  0.00     0.279 C 
HETATM   14  N   UNL     1      41.710 -16.850   1.749  1.00  0.00    -0.352 N 
HETATM   15  H   UNL     1      40.862 -17.346   2.006  1.00  0.00     0.162 HD
HETATM   16  O   UNL     1      42.453 -14.825   0.976  1.00  0.00    -0.268 OA
BRANCH  14  17
HETATM   17  C   UNL     1      42.812 -17.590   1.191  1.00  0.00     0.161 C 
BRANCH  17  18
HETATM   18  C   UNL     1      43.399 -18.522   2.216  1.00  0.00    -0.038 A 
HETATM   19  C   UNL     1      43.520 -19.894   1.943  1.00  0.00     0.048 A 
HETATM   20  C   UNL     1      44.056 -20.706   2.921  1.00  0.00     0.105 A 
HETATM   21  C   UNL     1      44.459 -20.209   4.137  1.00  0.00     0.105 A 
HETATM   22  O   UNL     1      44.249 -22.048   2.819  1.00  0.00    -0.323 OA
HETATM   23  O   UNL     1      44.960 -21.175   4.952  1.00  0.00    -0.323 OA
HETATM   24  C   UNL     1      44.344 -18.872   4.448  1.00  0.00     0.040 A 
HETATM   25  C   UNL     1      44.833 -22.337   4.106  1.00  0.00     0.352 A 
HETATM   26  C   UNL     1      43.805 -18.023   3.477  1.00  0.00     0.012 A 
ENDBRANCH  17  18
ENDBRANCH  14  17
ENDBRANCH   2  13
BRANCH   2  27
HETATM   27  O   UNL     1      39.385 -15.942   2.536  1.00  0.00    -0.359 OA
HETATM   28  H   UNL     1      38.671 -15.877   1.882  1.00  0.00     0.213 HD
ENDBRANCH   2  27
BRANCH   1  29
HETATM   29  C   UNL     1      41.420 -14.672   4.411  1.00  0.00     0.043 A 
HETATM   30  C   UNL     1      41.017 -15.719   5.246  1.00  0.00     0.032 A 
HETATM   31  C   UNL     1      41.908 -16.265   6.176  1.00  0.00     0.039 A 
HETATM   32  C   UNL     1      43.204 -15.759   6.304  1.00  0.00     0.068 A 
HETATM   33  C   UNL     1      43.598 -14.693   5.498  1.00  0.00     0.039 A 
HETATM   34  C   UNL     1      42.707 -14.149   4.565  1.00  0.00     0.032 A 
BRANCH  32  35
HETATM   35  O   UNL     1      43.972 -16.379   7.249  1.00  0.00    -0.352 OA
BRANCH  35  36
HETATM   36  C   UNL     1      43.312 -17.298   8.117  1.00  0.00     0.171 C 
HETATM   37  C   UNL     1      44.092 -18.600   8.107  1.00  0.00     0.034 C 
ENDBRANCH  35  36
ENDBRANCH  32  35
ENDBRANCH   1  29
TORSDOF 7
ENDMDL
MODEL 2
REMARK VINA RESULT:      -8.6      2.309      3.318
REMARK  7 active torsions:
REMARK  status: ('A' for Active; 'I' for Inactive)
REMARK    1  A    between atoms: C_2  and  O_3 
REMARK    2  A    between atoms: O_3  and  C_4 
REMARK    3  A    between atoms: C_7  and  N_8 
REMARK    4  A    between atoms: C_9  and  C_11 
REMARK    5  A    between atoms: C_9  and  O_10 
REMARK       I    between atoms: C_11  and  N_12 
REMARK    6  A    between atoms: N_12  and  C_13 
REMARK    7  A    between atoms: C_13  and  C_14 
ROOT
HETATM    1  N   UNL     1      41.642 -13.848   1.498  1.00  0.00    -0.254 N 
HETATM    2  C   UNL     1      41.184 -15.079   0.824  1.00  0.00     0.256 C 
HETATM    3  C   UNL     1      41.032 -14.921  -0.677  1.00  0.00     0.034 A 
HETATM    4  C   UNL     1      40.869 -13.640  -1.191  1.00  0.00     0.048 A 
HETATM    5  N   UNL     1      40.912 -12.556  -0.324  1.00  0.00    -0.308 N 
HETATM    6  C   UNL     1      41.282 -12.609   0.987  1.00  0.00     0.330 C 
HETATM    7  O   UNL     1      41.338 -11.545   1.607  1.00  0.00    -0.246 OA
HETATM    8  C   UNL     1      40.953 -16.009  -1.567  1.00  0.00     0.015 A 
HETATM    9  C   UNL     1      40.755 -15.800  -2.935  1.00  0.00     0.001 A 
HETATM   10  C   UNL     1      40.605 -14.506  -3.428  1.00  0.00     0.002 A 
HETATM   11  C   UNL     1      40.653 -13.422  -2.553  1.00  0.00     0.030 A 
HETATM   12  H   UNL     1      40.751 -11.621  -0.674  1.00  0.00     0.170 HD
ENDROOT
BRANCH   2  13
HETATM   13  C   UNL     1      42.090 -16.344   1.140  1.00  0.00     0.279 C 
HETATM   14  N   UNL     1      41.480 -17.273   1.968  1.00  0.00    -0.352 N 
HETATM   15  H   UNL     1      40.471 -17.207   2.054  1.00  0.00     0.162 HD
HETATM   16  O   UNL     1      43.242 -16.489   0.731  1.00  0.00    -0.268 OA
BRANCH  14  17
HETATM   17  C   UNL     1      42.134 -18.509   2.316  1.00  0.00     0.161 C 
BRANCH  17  18
HETATM   18  C   UNL     1      42.751 -18.416   3.685  1.00  0.00    -0.038 A 
HETATM   19  C   UNL     1      42.048 -17.819   4.743  1.00  0.00     0.048 A 
HETATM   20  C   UNL     1      42.663 -17.750   5.976  1.00  0.00     0.105 A 
HETATM   21  C   UNL     1      43.931 -18.240   6.182  1.00  0.00     0.105 A 
HETATM   22  O   UNL     1      42.124 -17.214   7.103  1.00  0.00    -0.323 OA
HETATM   23  O   UNL     1      44.347 -18.077   7.467  1.00  0.00    -0.323 OA
HETATM   24  C   UNL     1      44.658 -18.820   5.167  1.00  0.00     0.040 A 
HETATM   25  C   UNL     1      43.192 -17.434   8.047  1.00  0.00     0.352 A 
HETATM   26  C   UNL     1      44.061 -18.904   3.905  1.00  0.00     0.012 A 
ENDBRANCH  17  18
ENDBRANCH  14  17
ENDBRANCH   2  13
BRANCH   2  27
HETATM   27  O   UNL     1      39.855 -15.342   1.311  1.00  0.00    -0.359 OA
HETATM   28  H   UNL     1      39.932 -15.243   2.273  1.00  0.00     0.213 HD
ENDBRANCH   2  27
BRANCH   1  29
HETATM   29  C   UNL     1      42.055 -13.924   2.866  1.00  0.00     0.043 A 
HETATM   30  C   UNL     1      43.410 -13.918   3.213  1.00  0.00     0.032 A 
HETATM   31  C   UNL     1      43.796 -13.976   4.556  1.00  0.00     0.039 A 
HETATM   32  C   UNL     1      42.840 -14.067   5.570  1.00  0.00     0.068 A 
HETATM   33  C   UNL     1      41.490 -14.108   5.227  1.00  0.00     0.039 A 
HETATM   34  C   UNL     1      41.103 -14.046   3.883  1.00  0.00     0.032 A 
BRANCH  32  35
HETATM   35  O   UNL     1      43.348 -14.119   6.838  1.00  0.00    -0.352 OA
BRANCH  35  36
HETATM   36  C   UNL     1      44.764 -14.242   6.961  1.00  0.00     0.171 C 
HETATM   37  C   UNL     1      45.249 -13.169   7.920  1.00  0.00     0.034 C 
ENDBRANCH  35  36
ENDBRANCH  32  35
ENDBRANCH   1  29
TORSDOF 7
ENDMDL
MODEL 3
REMARK VINA RESULT:      -8.6      2.561      7.367
REMARK  7 active torsions:
REMARK  status: ('A' for Active; 'I' for Inactive)
REMARK    1  A    between atoms: C_2  and  O_3 
REMARK    2  A    between atoms: O_3  and  C_4 
REMARK    3  A    between atoms: C_7  and  N_8 
REMARK    4  A    between atoms: C_9  and  C_11 
REMARK    5  A    between atoms: C_9  and  O_10 
REMARK       I    between atoms: C_11  and  N_12 
REMARK    6  A    between atoms: N_12  and  C_13 
REMARK    7  A    between atoms: C_13  and  C_14 
ROOT
HETATM    1  N   UNL     1      43.292 -17.156   4.279  1.00  0.00    -0.254 N 
HETATM    2  C   UNL     1      43.279 -17.710   2.911  1.00  0.00     0.256 C 
HETATM    3  C   UNL     1      43.613 -19.189   2.859  1.00  0.00     0.034 A 
HETATM    4  C   UNL     1      44.317 -19.742   3.922  1.00  0.00     0.048 A 
HETATM    5  N   UNL     1      44.633 -18.942   5.010  1.00  0.00    -0.308 N 
HETATM    6  C   UNL     1      44.159 -17.681   5.227  1.00  0.00     0.330 C 
HETATM    7  O   UNL     1      44.477 -17.125   6.280  1.00  0.00    -0.246 OA
HETATM    8  C   UNL     1      43.330 -20.009   1.750  1.00  0.00     0.015 A 
HETATM    9  C   UNL     1      43.714 -21.353   1.739  1.00  0.00     0.001 A 
HETATM   10  C   UNL     1      44.409 -21.888   2.821  1.00  0.00     0.002 A 
HETATM   11  C   UNL     1      44.721 -21.079   3.913  1.00  0.00     0.030 A 
HETATM   12  H   UNL     1      45.183 -19.316   5.772  1.00  0.00     0.170 HD
ENDROOT
BRANCH   2  13
HETATM   13  C   UNL     1      41.921 -17.440   2.135  1.00  0.00     0.279 C 
HETATM   14  N   UNL     1      42.089 -16.762   0.937  1.00  0.00    -0.352 N 
HETATM   15  H   UNL     1      43.027 -16.760   0.548  1.00  0.00     0.162 HD
HETATM   16  O   UNL     1      40.809 -17.758   2.556  1.00  0.00    -0.268 OA
BRANCH  14  17
HETATM   17  C   UNL     1      40.971 -16.480   0.074  1.00  0.00     0.161 C 
BRANCH  17  18
HETATM   18  C   UNL     1      41.297 -15.349  -0.864  1.00  0.00    -0.038 A 
HETATM   19  C   UNL     1      41.825 -14.146  -0.370  1.00  0.00     0.048 A 
HETATM   20  C   UNL     1      42.096 -13.137  -1.271  1.00  0.00     0.105 A 
HETATM   21  C   UNL     1      41.857 -13.283  -2.617  1.00  0.00     0.105 A 
HETATM   22  O   UNL     1      42.614 -11.918  -0.965  1.00  0.00    -0.323 OA
HETATM   23  O   UNL     1      42.198 -12.174  -3.327  1.00  0.00    -0.323 OA
HETATM   24  C   UNL     1      41.326 -14.442  -3.139  1.00  0.00     0.040 A 
HETATM   25  C   UNL     1      42.686 -11.316  -2.274  1.00  0.00     0.352 A 
HETATM   26  C   UNL     1      41.041 -15.483  -2.249  1.00  0.00     0.012 A 
ENDBRANCH  17  18
ENDBRANCH  14  17
ENDBRANCH   2  13
BRANCH   2  27
HETATM   27  O   UNL     1      44.346 -17.059   2.195  1.00  0.00    -0.359 OA
HETATM   28  H   UNL     1      44.807 -17.785   1.746  1.00  0.00     0.213 HD
ENDBRANCH   2  27
BRANCH   1  29
HETATM   29  C   UNL     1      42.765 -15.842   4.495  1.00  0.00     0.043 A 
HETATM   30  C   UNL     1      43.388 -14.716   3.948  1.00  0.00     0.032 A 
HETATM   31  C   UNL     1      42.850 -13.441   4.154  1.00  0.00     0.039 A 
HETATM   32  C   UNL     1      41.700 -13.269   4.928  1.00  0.00     0.068 A 
HETATM   33  C   UNL     1      41.097 -14.385   5.503  1.00  0.00     0.039 A 
HETATM   34  C   UNL     1      41.632 -15.661   5.294  1.00  0.00     0.032 A 
BRANCH  32  35
HETATM   35  O   UNL     1      41.280 -11.974   5.052  1.00  0.00    -0.352 OA
BRANCH  35  36
HETATM   36  C   UNL     1      40.631 -11.394   3.922  1.00  0.00     0.171 C 
HETATM   37  C   UNL     1      39.135 -11.596   4.082  1.00  0.00     0.034 C 
ENDBRANCH  35  36
ENDBRANCH  32  35
ENDBRANCH   1  29
TORSDOF 7
ENDMDL
MODEL 4
REMARK VINA RESULT:      -8.6      1.374      1.795
REMARK  7 active torsions:
REMARK  status: ('A' for Active; 'I' for Inactive)
REMARK    1  A    between atoms: C_2  and  O_3 
REMARK    2  A    between atoms: O_3  and  C_4 
REMARK    3  A    between atoms: C_7  and  N_8 
REMARK    4  A    between atoms: C_9  and  C_11 
REMARK    5  A    between atoms: C_9  and  O_10 
REMARK       I    between atoms: C_11  and  N_12 
REMARK    6  A    between atoms: N_12  and  C_13 
REMARK    7  A    between atoms: C_13  and  C_14 
ROOT
HETATM    1  N   UNL     1      39.897 -13.475   2.584  1.00  0.00    -0.254 N 
HETATM    2  C   UNL     1      39.719 -14.392   1.441  1.00  0.00     0.256 C 
HETATM    3  C   UNL     1      38.981 -13.763   0.274  1.00  0.00     0.034 A 
HETATM    4  C   UNL     1      38.176 -12.657   0.525  1.00  0.00     0.048 A 
HETATM    5  N   UNL     1      38.126 -12.138   1.810  1.00  0.00    -0.308 N 
HETATM    6  C   UNL     1      38.941 -12.502   2.841  1.00  0.00     0.330 C 
HETATM    7  O   UNL     1      38.819 -11.896   3.907  1.00  0.00    -0.246 OA
HETATM    8  C   UNL     1      38.993 -14.294  -1.029  1.00  0.00     0.015 A 
HETATM    9  C   UNL     1      38.246 -13.700  -2.050  1.00  0.00     0.001 A 
HETATM   10  C   UNL     1      37.456 -12.587  -1.778  1.00  0.00     0.002 A 
HETATM   11  C   UNL     1      37.412 -12.067  -0.485  1.00  0.00     0.030 A 
HETATM   12  H   UNL     1      37.512 -11.362   2.020  1.00  0.00     0.170 HD
ENDROOT
BRANCH   2  13
HETATM   13  C   UNL     1      41.078 -15.033   0.930  1.00  0.00     0.279 C 
HETATM   14  N   UNL     1      41.204 -16.382   1.227  1.00  0.00    -0.352 N 
HETATM   15  H   UNL     1      40.348 -16.873   1.466  1.00  0.00     0.162 HD
HETATM   16  O   UNL     1      41.968 -14.404   0.359  1.00  0.00    -0.268 OA
BRANCH  14  17
HETATM   17  C   UNL     1      42.348 -17.141   0.791  1.00  0.00     0.161 C 
BRANCH  17  18
HETATM   18  C   UNL     1      43.001 -17.833   1.957  1.00  0.00    -0.038 A 
HETATM   19  C   UNL     1      43.418 -19.169   1.848  1.00  0.00     0.048 A 
HETATM   20  C   UNL     1      44.001 -19.760   2.949  1.00  0.00     0.105 A 
HETATM   21  C   UNL     1      44.174 -19.080   4.132  1.00  0.00     0.105 A 
HETATM   22  O   UNL     1      44.466 -21.036   3.012  1.00  0.00    -0.323 OA
HETATM   23  O   UNL     1      44.771 -19.843   5.086  1.00  0.00    -0.323 OA
HETATM   24  C   UNL     1      43.766 -17.773   4.283  1.00  0.00     0.040 A 
HETATM   25  C   UNL     1      44.962 -21.079   4.366  1.00  0.00     0.352 A 
HETATM   26  C   UNL     1      43.170 -17.147   3.183  1.00  0.00     0.012 A 
ENDBRANCH  17  18
ENDBRANCH  14  17
ENDBRANCH   2  13
BRANCH   2  27
HETATM   27  O   UNL     1      38.861 -15.455   1.898  1.00  0.00    -0.359 OA
HETATM   28  H   UNL     1      39.398 -16.256   1.786  1.00  0.00     0.213 HD
ENDBRANCH   2  27
BRANCH   1  29
HETATM   29  C   UNL     1      40.778 -13.859   3.644  1.00  0.00     0.043 A 
HETATM   30  C   UNL     1      42.070 -13.331   3.737  1.00  0.00     0.032 A 
HETATM   31  C   UNL     1      42.912 -13.704   4.789  1.00  0.00     0.039 A 
HETATM   32  C   UNL     1      42.489 -14.626   5.749  1.00  0.00     0.068 A 
HETATM   33  C   UNL     1      41.216 -15.180   5.642  1.00  0.00     0.039 A 
HETATM   34  C   UNL     1      40.371 -14.804   4.591  1.00  0.00     0.032 A 
BRANCH  32  35
HETATM   35  O   UNL     1      43.408 -14.905   6.722  1.00  0.00    -0.352 OA
BRANCH  35  36
HETATM   36  C   UNL     1      44.662 -14.230   6.640  1.00  0.00     0.171 C 
HETATM   37  C   UNL     1      44.835 -13.401   7.899  1.00  0.00     0.034 C 
ENDBRANCH  35  36
ENDBRANCH  32  35
ENDBRANCH   1  29
TORSDOF 7
ENDMDL
MODEL 5
REMARK VINA RESULT:      -8.4      2.559      6.462
REMARK  7 active torsions:
REMARK  status: ('A' for Active; 'I' for Inactive)
REMARK    1  A    between atoms: C_2  and  O_3 
REMARK    2  A    between atoms: O_3  and  C_4 
REMARK    3  A    between atoms: C_7  and  N_8 
REMARK    4  A    between atoms: C_9  and  C_11 
REMARK    5  A    between atoms: C_9  and  O_10 
REMARK       I    between atoms: C_11  and  N_12 
REMARK    6  A    between atoms: N_12  and  C_13 
REMARK    7  A    between atoms: C_13  and  C_14 
ROOT
HETATM    1  N   UNL     1      41.243 -15.524   4.353  1.00  0.00    -0.254 N 
HETATM    2  C   UNL     1      40.560 -14.534   3.498  1.00  0.00     0.256 C 
HETATM    3  C   UNL     1      40.108 -13.298   4.253  1.00  0.00     0.034 A 
HETATM    4  C   UNL     1      39.939 -13.394   5.630  1.00  0.00     0.048 A 
HETATM    5  N   UNL     1      40.248 -14.589   6.264  1.00  0.00    -0.308 N 
HETATM    6  C   UNL     1      40.881 -15.649   5.686  1.00  0.00     0.330 C 
HETATM    7  O   UNL     1      41.148 -16.615   6.404  1.00  0.00    -0.246 OA
HETATM    8  C   UNL     1      39.758 -12.089   3.624  1.00  0.00     0.015 A 
HETATM    9  C   UNL     1      39.294 -11.003   4.370  1.00  0.00     0.001 A 
HETATM   10  C   UNL     1      39.144 -11.119   5.750  1.00  0.00     0.002 A 
HETATM   11  C   UNL     1      39.459 -12.320   6.382  1.00  0.00     0.030 A 
HETATM   12  H   UNL     1      40.090 -14.690   7.258  1.00  0.00     0.170 HD
ENDROOT
BRANCH   2  13
HETATM   13  C   UNL     1      41.411 -14.103   2.229  1.00  0.00     0.279 C 
HETATM   14  N   UNL     1      40.776 -14.350   1.021  1.00  0.00    -0.352 N 
HETATM   15  H   UNL     1      39.773 -14.501   1.062  1.00  0.00     0.162 HD
HETATM   16  O   UNL     1      42.546 -13.629   2.285  1.00  0.00    -0.268 OA
BRANCH  14  17
HETATM   17  C   UNL     1      41.377 -13.972  -0.232  1.00  0.00     0.161 C 
BRANCH  17  18
HETATM   18  C   UNL     1      40.537 -14.445  -1.387  1.00  0.00    -0.038 A 
HETATM   19  C   UNL     1      39.290 -13.855  -1.649  1.00  0.00     0.048 A 
HETATM   20  C   UNL     1      38.556 -14.332  -2.714  1.00  0.00     0.105 A 
HETATM   21  C   UNL     1      39.009 -15.361  -3.505  1.00  0.00     0.105 A 
HETATM   22  O   UNL     1      37.339 -13.871  -3.108  1.00  0.00    -0.323 OA
HETATM   23  O   UNL     1      38.135 -15.674  -4.500  1.00  0.00    -0.323 OA
HETATM   24  C   UNL     1      40.219 -15.975  -3.273  1.00  0.00     0.040 A 
HETATM   25  C   UNL     1      37.083 -14.718  -4.248  1.00  0.00     0.352 A 
HETATM   26  C   UNL     1      40.987 -15.513  -2.199  1.00  0.00     0.012 A 
ENDBRANCH  17  18
ENDBRANCH  14  17
ENDBRANCH   2  13
BRANCH   2  27
HETATM   27  O   UNL     1      39.346 -15.158   3.037  1.00  0.00    -0.359 OA
HETATM   28  H   UNL     1      38.652 -14.756   3.582  1.00  0.00     0.213 HD
ENDBRANCH   2  27
BRANCH   1  29
HETATM   29  C   UNL     1      41.928 -16.616   3.729  1.00  0.00     0.043 A 
HETATM   30  C   UNL     1      41.297 -17.406   2.762  1.00  0.00     0.032 A 
HETATM   31  C   UNL     1      41.985 -18.458   2.150  1.00  0.00     0.039 A 
HETATM   32  C   UNL     1      43.302 -18.754   2.510  1.00  0.00     0.068 A 
HETATM   33  C   UNL     1      43.922 -17.992   3.497  1.00  0.00     0.039 A 
HETATM   34  C   UNL     1      43.235 -16.936   4.107  1.00  0.00     0.032 A 
BRANCH  32  35
HETATM   35  O   UNL     1      43.859 -19.807   1.839  1.00  0.00    -0.352 OA
BRANCH  35  36
HETATM   36  C   UNL     1      44.656 -20.711   2.602  1.00  0.00     0.171 C 
HETATM   37  C   UNL     1      44.390 -22.117   2.094  1.00  0.00     0.034 C 
ENDBRANCH  35  36
ENDBRANCH  32  35
ENDBRANCH   1  29
TORSDOF 7
ENDMDL
MODEL 6
REMARK VINA RESULT:      -8.3      2.141      7.257
REMARK  7 active torsions:
REMARK  status: ('A' for Active; 'I' for Inactive)
REMARK    1  A    between atoms: C_2  and  O_3 
REMARK    2  A    between atoms: O_3  and  C_4 
REMARK    3  A    between atoms: C_7  and  N_8 
REMARK    4  A    between atoms: C_9  and  C_11 
REMARK    5  A    between atoms: C_9  and  O_10 
REMARK       I    between atoms: C_11  and  N_12 
REMARK    6  A    between atoms: N_12  and  C_13 
REMARK    7  A    between atoms: C_13  and  C_14 
ROOT
HETATM    1  N   UNL     1      43.120 -16.829   4.625  1.00  0.00    -0.254 N 
HETATM    2  C   UNL     1      43.135 -17.271   3.217  1.00  0.00     0.256 C 
HETATM    3  C   UNL     1      43.519 -18.729   3.049  1.00  0.00     0.034 A 
HETATM    4  C   UNL     1      44.234 -19.342   4.071  1.00  0.00     0.048 A 
HETATM    5  N   UNL     1      44.515 -18.622   5.223  1.00  0.00    -0.308 N 
HETATM    6  C   UNL     1      43.998 -17.399   5.536  1.00  0.00     0.330 C 
HETATM    7  O   UNL     1      44.290 -16.919   6.633  1.00  0.00    -0.246 OA
HETATM    8  C   UNL     1      43.272 -19.466   1.876  1.00  0.00     0.015 A 
HETATM    9  C   UNL     1      43.701 -20.791   1.761  1.00  0.00     0.001 A 
HETATM   10  C   UNL     1      44.406 -21.388   2.803  1.00  0.00     0.002 A 
HETATM   11  C   UNL     1      44.683 -20.660   3.959  1.00  0.00     0.030 A 
HETATM   12  H   UNL     1      45.073 -19.038   5.958  1.00  0.00     0.170 HD
ENDROOT
BRANCH   2  13
HETATM   13  C   UNL     1      41.773 -16.985   2.452  1.00  0.00     0.279 C 
HETATM   14  N   UNL     1      41.895 -16.063   1.424  1.00  0.00    -0.352 N 
HETATM   15  H   UNL     1      42.835 -15.888   1.085  1.00  0.00     0.162 HD
HETATM   16  O   UNL     1      40.692 -17.492   2.752  1.00  0.00    -0.268 OA
BRANCH  14  17
HETATM   17  C   UNL     1      40.773 -15.724   0.587  1.00  0.00     0.161 C 
BRANCH  17  18
HETATM   18  C   UNL     1      40.126 -14.450   1.057  1.00  0.00    -0.038 A 
HETATM   19  C   UNL     1      40.905 -13.414   1.598  1.00  0.00     0.048 A 
HETATM   20  C   UNL     1      40.261 -12.271   2.024  1.00  0.00     0.105 A 
HETATM   21  C   UNL     1      38.896 -12.131   1.937  1.00  0.00     0.105 A 
HETATM   22  O   UNL     1      40.862 -11.176   2.562  1.00  0.00    -0.323 OA
HETATM   23  O   UNL     1      38.467 -10.929   2.406  1.00  0.00    -0.323 OA
HETATM   24  C   UNL     1      38.096 -13.129   1.426  1.00  0.00     0.040 A 
HETATM   25  C   UNL     1      39.719 -10.325   2.792  1.00  0.00     0.352 A 
HETATM   26  C   UNL     1      38.721 -14.301   0.986  1.00  0.00     0.012 A 
ENDBRANCH  17  18
ENDBRANCH  14  17
ENDBRANCH   2  13
BRANCH   2  27
HETATM   27  O   UNL     1      44.183 -16.529   2.565  1.00  0.00    -0.359 OA
HETATM   28  H   UNL     1      44.739 -16.214   3.296  1.00  0.00     0.213 HD
ENDBRANCH   2  27
BRANCH   1  29
HETATM   29  C   UNL     1      42.547 -15.555   4.941  1.00  0.00     0.043 A 
HETATM   30  C   UNL     1      43.233 -14.367   4.668  1.00  0.00     0.032 A 
HETATM   31  C   UNL     1      42.652 -13.131   4.967  1.00  0.00     0.039 A 
HETATM   32  C   UNL     1      41.391 -13.061   5.563  1.00  0.00     0.068 A 
HETATM   33  C   UNL     1      40.718 -14.242   5.866  1.00  0.00     0.039 A 
HETATM   34  C   UNL     1      41.298 -15.480   5.565  1.00  0.00     0.032 A 
BRANCH  32  35
HETATM   35  O   UNL     1      40.938 -11.794   5.803  1.00  0.00    -0.352 OA
BRANCH  35  36
HETATM   36  C   UNL     1      39.593 -11.664   6.261  1.00  0.00     0.171 C 
HETATM   37  C   UNL     1      39.629 -11.151   7.690  1.00  0.00     0.034 C 
ENDBRANCH  35  36
ENDBRANCH  32  35
ENDBRANCH   1  29
TORSDOF 7
ENDMDL
MODEL 7
REMARK VINA RESULT:      -8.2      2.248      3.437
REMARK  7 active torsions:
REMARK  status: ('A' for Active; 'I' for Inactive)
REMARK    1  A    between atoms: C_2  and  O_3 
REMARK    2  A    between atoms: O_3  and  C_4 
REMARK    3  A    between atoms: C_7  and  N_8 
REMARK    4  A    between atoms: C_9  and  C_11 
REMARK    5  A    between atoms: C_9  and  O_10 
REMARK       I    between atoms: C_11  and  N_12 
REMARK    6  A    between atoms: N_12  and  C_13 
REMARK    7  A    between atoms: C_13  and  C_14 
ROOT
HETATM    1  N   UNL     1      41.355 -13.016   0.983  1.00  0.00    -0.254 N 
HETATM    2  C   UNL     1      39.999 -13.527   0.704  1.00  0.00     0.256 C 
HETATM    3  C   UNL     1      39.663 -13.564  -0.774  1.00  0.00     0.034 A 
HETATM    4  C   UNL     1      40.381 -12.739  -1.633  1.00  0.00     0.048 A 
HETATM    5  N   UNL     1      41.412 -11.966  -1.118  1.00  0.00    -0.308 N 
HETATM    6  C   UNL     1      41.919 -12.065   0.144  1.00  0.00     0.330 C 
HETATM    7  O   UNL     1      42.884 -11.354   0.429  1.00  0.00    -0.246 OA
HETATM    8  C   UNL     1      38.600 -14.316  -1.310  1.00  0.00     0.015 A 
HETATM    9  C   UNL     1      38.305 -14.264  -2.675  1.00  0.00     0.001 A 
HETATM   10  C   UNL     1      39.046 -13.439  -3.517  1.00  0.00     0.002 A 
HETATM   11  C   UNL     1      40.082 -12.666  -2.995  1.00  0.00     0.030 A 
HETATM   12  H   UNL     1      41.915 -11.328  -1.720  1.00  0.00     0.170 HD
ENDROOT
BRANCH   2  13
HETATM   13  C   UNL     1      39.716 -14.948   1.352  1.00  0.00     0.279 C 
HETATM   14  N   UNL     1      40.568 -15.946   0.902  1.00  0.00    -0.352 N 
HETATM   15  H   UNL     1      41.425 -15.638   0.453  1.00  0.00     0.162 HD
HETATM   16  O   UNL     1      38.807 -15.176   2.151  1.00  0.00    -0.268 OA
BRANCH  14  17
HETATM   17  C   UNL     1      40.493 -17.286   1.423  1.00  0.00     0.161 C 
BRANCH  17  18
HETATM   18  C   UNL     1      41.612 -17.541   2.396  1.00  0.00    -0.038 A 
HETATM   19  C   UNL     1      41.443 -17.266   3.762  1.00  0.00     0.048 A 
HETATM   20  C   UNL     1      42.503 -17.509   4.610  1.00  0.00     0.105 A 
HETATM   21  C   UNL     1      43.703 -17.998   4.151  1.00  0.00     0.105 A 
HETATM   22  O   UNL     1      42.506 -17.306   5.955  1.00  0.00    -0.323 OA
HETATM   23  O   UNL     1      44.610 -18.168   5.149  1.00  0.00    -0.323 OA
HETATM   24  C   UNL     1      43.913 -18.267   2.816  1.00  0.00     0.040 A 
HETATM   25  C   UNL     1      43.841 -17.737   6.291  1.00  0.00     0.352 A 
HETATM   26  C   UNL     1      42.855 -18.032   1.932  1.00  0.00     0.012 A 
ENDBRANCH  17  18
ENDBRANCH  14  17
ENDBRANCH   2  13
BRANCH   2  27
HETATM   27  O   UNL     1      39.078 -12.579   1.276  1.00  0.00    -0.359 OA
HETATM   28  H   UNL     1      38.859 -12.954   2.144  1.00  0.00     0.213 HD
ENDBRANCH   2  27
BRANCH   1  29
HETATM   29  C   UNL     1      41.884 -13.153   2.306  1.00  0.00     0.043 A 
HETATM   30  C   UNL     1      41.354 -12.423   3.375  1.00  0.00     0.032 A 
HETATM   31  C   UNL     1      41.871 -12.582   4.665  1.00  0.00     0.039 A 
HETATM   32  C   UNL     1      42.939 -13.450   4.904  1.00  0.00     0.068 A 
HETATM   33  C   UNL     1      43.492 -14.153   3.836  1.00  0.00     0.039 A 
HETATM   34  C   UNL     1      42.973 -13.997   2.546  1.00  0.00     0.032 A 
BRANCH  32  35
HETATM   35  O   UNL     1      43.349 -13.512   6.206  1.00  0.00    -0.352 OA
BRANCH  35  36
HETATM   36  C   UNL     1      44.614 -14.123   6.456  1.00  0.00     0.171 C 
HETATM   37  C   UNL     1      45.263 -13.403   7.625  1.00  0.00     0.034 C 
ENDBRANCH  35  36
ENDBRANCH  32  35
ENDBRANCH   1  29
TORSDOF 7
ENDMDL
MODEL 8
REMARK VINA RESULT:      -7.9      2.800      6.719
REMARK  7 active torsions:
REMARK  status: ('A' for Active; 'I' for Inactive)
REMARK    1  A    between atoms: C_2  and  O_3 
REMARK    2  A    between atoms: O_3  and  C_4 
REMARK    3  A    between atoms: C_7  and  N_8 
REMARK    4  A    between atoms: C_9  and  C_11 
REMARK    5  A    between atoms: C_9  and  O_10 
REMARK       I    between atoms: C_11  and  N_12 
REMARK    6  A    between atoms: N_12  and  C_13 
REMARK    7  A    between atoms: C_13  and  C_14 
ROOT
HETATM    1  N   UNL     1      42.079 -14.881   4.164  1.00  0.00    -0.254 N 
HETATM    2  C   UNL     1      40.663 -14.559   3.897  1.00  0.00     0.256 C 
HETATM    3  C   UNL     1      40.287 -13.139   4.276  1.00  0.00     0.034 A 
HETATM    4  C   UNL     1      41.080 -12.475   5.205  1.00  0.00     0.048 A 
HETATM    5  N   UNL     1      42.211 -13.108   5.701  1.00  0.00    -0.308 N 
HETATM    6  C   UNL     1      42.734 -14.275   5.227  1.00  0.00     0.330 C 
HETATM    7  O   UNL     1      43.786 -14.674   5.729  1.00  0.00    -0.246 OA
HETATM    8  C   UNL     1      39.128 -12.493   3.809  1.00  0.00     0.015 A 
HETATM    9  C   UNL     1      38.806 -11.203   4.240  1.00  0.00     0.001 A 
HETATM   10  C   UNL     1      39.621 -10.552   5.162  1.00  0.00     0.002 A 
HETATM   11  C   UNL     1      40.757 -11.193   5.655  1.00  0.00     0.030 A 
HETATM   12  H   UNL     1      42.774 -12.657   6.410  1.00  0.00     0.170 HD
ENDROOT
BRANCH   2  13
HETATM   13  C   UNL     1      40.224 -14.847   2.399  1.00  0.00     0.279 C 
HETATM   14  N   UNL     1      40.919 -14.098   1.461  1.00  0.00    -0.352 N 
HETATM   15  H   UNL     1      41.789 -13.679   1.773  1.00  0.00     0.162 HD
HETATM   16  O   UNL     1      39.327 -15.626   2.078  1.00  0.00    -0.268 OA
BRANCH  14  17
HETATM   17  C   UNL     1      40.691 -14.268   0.049  1.00  0.00     0.161 C 
BRANCH  17  18
HETATM   18  C   UNL     1      41.308 -13.138  -0.729  1.00  0.00    -0.038 A 
HETATM   19  C   UNL     1      42.187 -12.241  -0.102  1.00  0.00     0.048 A 
HETATM   20  C   UNL     1      42.717 -11.216  -0.858  1.00  0.00     0.105 A 
HETATM   21  C   UNL     1      42.401 -11.054  -2.186  1.00  0.00     0.105 A 
HETATM   22  O   UNL     1      43.586 -10.269  -0.412  1.00  0.00    -0.323 OA
HETATM   23  O   UNL     1      43.033  -9.987  -2.744  1.00  0.00    -0.323 OA
HETATM   24  C   UNL     1      41.531 -11.904  -2.833  1.00  0.00     0.040 A 
HETATM   25  C   UNL     1      43.791  -9.500  -1.616  1.00  0.00     0.352 A 
HETATM   26  C   UNL     1      40.977 -12.953  -2.092  1.00  0.00     0.012 A 
ENDBRANCH  17  18
ENDBRANCH  14  17
ENDBRANCH   2  13
BRANCH   2  27
HETATM   27  O   UNL     1      39.881 -15.400   4.766  1.00  0.00    -0.359 OA
HETATM   28  H   UNL     1      39.990 -14.999   5.643  1.00  0.00     0.213 HD
ENDBRANCH   2  27
BRANCH   1  29
HETATM   29  C   UNL     1      42.621 -16.096   3.636  1.00  0.00     0.043 A 
HETATM   30  C   UNL     1      43.462 -16.086   2.519  1.00  0.00     0.032 A 
HETATM   31  C   UNL     1      43.996 -17.280   2.026  1.00  0.00     0.039 A 
HETATM   32  C   UNL     1      43.681 -18.503   2.623  1.00  0.00     0.068 A 
HETATM   33  C   UNL     1      42.817 -18.521   3.715  1.00  0.00     0.039 A 
HETATM   34  C   UNL     1      42.284 -17.325   4.211  1.00  0.00     0.032 A 
BRANCH  32  35
HETATM   35  O   UNL     1      44.268 -19.594   2.044  1.00  0.00    -0.352 OA
BRANCH  35  36
HETATM   36  C   UNL     1      44.407 -20.759   2.855  1.00  0.00     0.171 C 
HETATM   37  C   UNL     1      44.311 -21.976   1.952  1.00  0.00     0.034 C 
ENDBRANCH  35  36
ENDBRANCH  32  35
ENDBRANCH   1  29
TORSDOF 7
ENDMDL
MODEL 9
REMARK VINA RESULT:      -7.7      3.177      8.489
REMARK  7 active torsions:
REMARK  status: ('A' for Active; 'I' for Inactive)
REMARK    1  A    between atoms: C_2  and  O_3 
REMARK    2  A    between atoms: O_3  and  C_4 
REMARK    3  A    between atoms: C_7  and  N_8 
REMARK    4  A    between atoms: C_9  and  C_11 
REMARK    5  A    between atoms: C_9  and  O_10 
REMARK       I    between atoms: C_11  and  N_12 
REMARK    6  A    between atoms: N_12  and  C_13 
REMARK    7  A    between atoms: C_13  and  C_14 
ROOT
HETATM    1  N   UNL     1      41.293 -15.786   2.845  1.00  0.00    -0.254 N 
HETATM    2  C   UNL     1      41.367 -15.259   4.222  1.00  0.00     0.256 C 
HETATM    3  C   UNL     1      42.493 -15.865   5.038  1.00  0.00     0.034 A 
HETATM    4  C   UNL     1      43.002 -17.096   4.642  1.00  0.00     0.048 A 
HETATM    5  N   UNL     1      42.509 -17.690   3.489  1.00  0.00    -0.308 N 
HETATM    6  C   UNL     1      41.678 -17.094   2.587  1.00  0.00     0.330 C 
HETATM    7  O   UNL     1      41.384 -17.731   1.574  1.00  0.00    -0.246 OA
HETATM    8  C   UNL     1      42.983 -15.295   6.228  1.00  0.00     0.015 A 
HETATM    9  C   UNL     1      43.984 -15.932   6.966  1.00  0.00     0.001 A 
HETATM   10  C   UNL     1      44.488 -17.159   6.543  1.00  0.00     0.002 A 
HETATM   11  C   UNL     1      43.990 -17.750   5.383  1.00  0.00     0.030 A 
HETATM   12  H   UNL     1      42.837 -18.606   3.211  1.00  0.00     0.170 HD
ENDROOT
BRANCH   2  13
HETATM   13  C   UNL     1      41.453 -13.675   4.286  1.00  0.00     0.279 C 
HETATM   14  N   UNL     1      40.377 -13.083   4.929  1.00  0.00    -0.352 N 
HETATM   15  H   UNL     1      39.816 -13.690   5.519  1.00  0.00     0.162 HD
HETATM   16  O   UNL     1      42.361 -13.011   3.785  1.00  0.00    -0.268 OA
BRANCH  14  17
HETATM   17  C   UNL     1      40.314 -11.659   5.129  1.00  0.00     0.161 C 
BRANCH  17  18
HETATM   18  C   UNL     1      40.585 -11.311   6.568  1.00  0.00    -0.038 A 
HETATM   19  C   UNL     1      41.894 -11.047   7.001  1.00  0.00     0.048 A 
HETATM   20  C   UNL     1      42.089 -10.744   8.332  1.00  0.00     0.105 A 
HETATM   21  C   UNL     1      41.047 -10.703   9.228  1.00  0.00     0.105 A 
HETATM   22  O   UNL     1      43.285 -10.457   8.913  1.00  0.00    -0.323 OA
HETATM   23  O   UNL     1      41.456 -10.382  10.485  1.00  0.00    -0.323 OA
HETATM   24  C   UNL     1      39.752 -10.970   8.845  1.00  0.00     0.040 A 
HETATM   25  C   UNL     1      42.874 -10.217  10.275  1.00  0.00     0.352 A 
HETATM   26  C   UNL     1      39.522 -11.281   7.501  1.00  0.00     0.012 A 
ENDBRANCH  17  18
ENDBRANCH  14  17
ENDBRANCH   2  13
BRANCH   2  27
HETATM   27  O   UNL     1      40.157 -15.672   4.885  1.00  0.00    -0.359 OA
HETATM   28  H   UNL     1      40.099 -15.088   5.658  1.00  0.00     0.213 HD
ENDBRANCH   2  27
BRANCH   1  29
HETATM   29  C   UNL     1      40.438 -15.131   1.902  1.00  0.00     0.043 A 
HETATM   30  C   UNL     1      40.967 -14.437   0.809  1.00  0.00     0.032 A 
HETATM   31  C   UNL     1      40.117 -13.817  -0.113  1.00  0.00     0.039 A 
HETATM   32  C   UNL     1      38.731 -13.858   0.054  1.00  0.00     0.068 A 
HETATM   33  C   UNL     1      38.202 -14.519   1.160  1.00  0.00     0.039 A 
HETATM   34  C   UNL     1      39.052 -15.143   2.081  1.00  0.00     0.032 A 
BRANCH  32  35
HETATM   35  O   UNL     1      38.016 -13.212  -0.915  1.00  0.00    -0.352 OA
BRANCH  35  36
HETATM   36  C   UNL     1      38.560 -13.221  -2.233  1.00  0.00     0.171 C 
HETATM   37  C   UNL     1      37.788 -14.237  -3.056  1.00  0.00     0.034 C 
ENDBRANCH  35  36
ENDBRANCH  32  35
ENDBRANCH   1  29
TORSDOF 7
ENDMDL
MODEL 10
REMARK VINA RESULT:      -7.6      2.257      8.290
REMARK  7 active torsions:
REMARK  status: ('A' for Active; 'I' for Inactive)
REMARK    1  A    between atoms: C_2  and  O_3 
REMARK    2  A    between atoms: O_3  and  C_4 
REMARK    3  A    between atoms: C_7  and  N_8 
REMARK    4  A    between atoms: C_9  and  C_11 
REMARK    5  A    between atoms: C_9  and  O_10 
REMARK       I    between atoms: C_11  and  N_12 
REMARK    6  A    between atoms: N_12  and  C_13 
REMARK    7  A    between atoms: C_13  and  C_14 
ROOT
HETATM    1  N   UNL     1      42.076 -16.892   3.616  1.00  0.00    -0.254 N 
HETATM    2  C   UNL     1      41.775 -16.601   5.031  1.00  0.00     0.256 C 
HETATM    3  C   UNL     1      42.661 -17.358   6.002  1.00  0.00     0.034 A 
HETATM    4  C   UNL     1      43.284 -18.518   5.556  1.00  0.00     0.048 A 
HETATM    5  N   UNL     1      43.124 -18.902   4.233  1.00  0.00    -0.308 N 
HETATM    6  C   UNL     1      42.545 -18.147   3.256  1.00  0.00     0.330 C 
HETATM    7  O   UNL     1      42.541 -18.602   2.110  1.00  0.00    -0.246 OA
HETATM    8  C   UNL     1      42.810 -17.002   7.356  1.00  0.00     0.015 A 
HETATM    9  C   UNL     1      43.596 -17.774   8.215  1.00  0.00     0.001 A 
HETATM   10  C   UNL     1      44.220 -18.925   7.743  1.00  0.00     0.002 A 
HETATM   11  C   UNL     1      44.058 -19.305   6.412  1.00  0.00     0.030 A 
HETATM   12  H   UNL     1      43.533 -19.767   3.903  1.00  0.00     0.170 HD
ENDROOT
BRANCH   2  13
HETATM   13  C   UNL     1      41.806 -15.051   5.376  1.00  0.00     0.279 C 
HETATM   14  N   UNL     1      40.547 -14.484   5.506  1.00  0.00    -0.352 N 
HETATM   15  H   UNL     1      39.776 -15.127   5.651  1.00  0.00     0.162 HD
HETATM   16  O   UNL     1      42.837 -14.387   5.482  1.00  0.00    -0.268 OA
BRANCH  14  17
HETATM   17  C   UNL     1      40.384 -13.100   5.871  1.00  0.00     0.161 C 
BRANCH  17  18
HETATM   18  C   UNL     1      40.001 -12.276   4.672  1.00  0.00    -0.038 A 
HETATM   19  C   UNL     1      40.917 -12.070   3.629  1.00  0.00     0.048 A 
HETATM   20  C   UNL     1      40.519 -11.298   2.557  1.00  0.00     0.105 A 
HETATM   21  C   UNL     1      39.269 -10.732   2.495  1.00  0.00     0.105 A 
HETATM   22  O   UNL     1      41.276 -11.007   1.465  1.00  0.00    -0.323 OA
HETATM   23  O   UNL     1      39.079 -10.015   1.355  1.00  0.00    -0.323 OA
HETATM   24  C   UNL     1      38.346 -10.899   3.505  1.00  0.00     0.040 A 
HETATM   25  C   UNL     1      40.353 -10.202   0.702  1.00  0.00     0.352 A 
HETATM   26  C   UNL     1      38.721 -11.676   4.605  1.00  0.00     0.012 A 
ENDBRANCH  17  18
ENDBRANCH  14  17
ENDBRANCH   2  13
BRANCH   2  27
HETATM   27  O   UNL     1      40.443 -17.091   5.276  1.00  0.00    -0.359 OA
HETATM   28  H   UNL     1      39.992 -16.987   4.423  1.00  0.00     0.213 HD
ENDBRANCH   2  27
BRANCH   1  29
HETATM   29  C   UNL     1      41.484 -16.072   2.603  1.00  0.00     0.043 A 
HETATM   30  C   UNL     1      40.105 -16.097   2.369  1.00  0.00     0.032 A 
HETATM   31  C   UNL     1      39.540 -15.277   1.387  1.00  0.00     0.039 A 
HETATM   32  C   UNL     1      40.342 -14.440   0.608  1.00  0.00     0.068 A 
HETATM   33  C   UNL     1      41.719 -14.437   0.815  1.00  0.00     0.039 A 
HETATM   34  C   UNL     1      42.285 -15.255   1.800  1.00  0.00     0.032 A 
BRANCH  32  35
HETATM   35  O   UNL     1      39.666 -13.692  -0.315  1.00  0.00    -0.352 OA
BRANCH  35  36
HETATM   36  C   UNL     1      38.245 -13.817  -0.333  1.00  0.00     0.171 C 
HETATM   37  C   UNL     1      37.656 -12.456  -0.660  1.00  0.00     0.034 C 
ENDBRANCH  35  36
ENDBRANCH  32  35
ENDBRANCH   1  29
TORSDOF 7
ENDMDL
