MODEL 1
REMARK VINA RESULT:      -8.9      0.000      0.000
REMARK  5 active torsions:
REMARK  status: ('A' for Active; 'I' for Inactive)
REMARK    1  A    between atoms: N_3  and  C_4 
REMARK    2  A    between atoms: C_7  and  C_8 
REMARK       I    between atoms: C_8  and  N_9 
REMARK    3  A    between atoms: N_9  and  C_10 
REMARK    4  A    between atoms: C_11  and  N_12 
REMARK    5  A    between atoms: C_15  and  O_16 
ROOT
HETATM    1  C   UNL     1      43.030 -17.422   1.632  1.00  0.00     0.256 C 
HETATM    2  N   UNL     1      42.660 -18.469   2.437  1.00  0.00    -0.321 N 
HETATM    3  O   UNL     1      44.072 -17.261   1.014  1.00  0.00    -0.267 OA
HETATM    4  H   UNL     1      41.740 -18.460   2.870  1.00  0.00     0.169 HD
ENDROOT
BRANCH   2   5
HETATM    5  C   UNL     1      43.379 -19.643   2.744  1.00  0.00     0.056 A 
HETATM    6  C   UNL     1      43.923 -19.706   4.055  1.00  0.00     0.037 A 
HETATM    7  C   UNL     1      44.617 -20.863   4.435  1.00  0.00     0.026 A 
HETATM    8  C   UNL     1      44.771 -21.928   3.542  1.00  0.00     0.002 A 
HETATM    9  C   UNL     1      44.237 -21.847   2.258  1.00  0.00     0.002 A 
HETATM   10  C   UNL     1      43.542 -20.705   1.856  1.00  0.00     0.031 A 
BRANCH   6  11
HETATM   11  N   UNL     1      43.770 -18.574   4.907  1.00  0.00    -0.281 NA
HETATM   12  C   UNL     1      44.829 -18.559   5.938  1.00  0.00     0.098 C 
HETATM   13  C   UNL     1      44.831 -17.186   6.613  1.00  0.00     0.046 C 
HETATM   14  C   UNL     1      43.456 -16.843   7.185  1.00  0.00     0.120 C 
HETATM   15  C   UNL     1      42.347 -17.029   6.149  1.00  0.00     0.046 C 
HETATM   16  C   UNL     1      42.427 -18.406   5.491  1.00  0.00     0.098 C 
BRANCH  14  17
HETATM   17  O   UNL     1      43.182 -17.669   8.316  1.00  0.00    -0.395 OA
HETATM   18  H   UNL     1      44.033 -17.886   8.733  1.00  0.00     0.210 HD
ENDBRANCH  14  17
ENDBRANCH   6  11
ENDBRANCH   2   5
BRANCH   1  19
HETATM   19  C   UNL     1      41.981 -16.391   1.531  1.00  0.00     0.032 A 
HETATM   20  C   UNL     1      42.284 -15.173   0.925  1.00  0.00     0.019 A 
HETATM   21  C   UNL     1      41.284 -14.209   0.785  1.00  0.00     0.031 A 
HETATM   22  C   UNL     1      39.984 -14.462   1.252  1.00  0.00     0.039 A 
HETATM   23  C   UNL     1      39.697 -15.688   1.872  1.00  0.00     0.031 A 
HETATM   24  C   UNL     1      40.696 -16.655   2.010  1.00  0.00     0.019 A 
BRANCH  22  25
HETATM   25  N   UNL     1      38.968 -13.470   1.096  1.00  0.00    -0.320 N 
HETATM   26  C   UNL     1      38.584 -12.532   2.057  1.00  0.00     0.013 A 
HETATM   27  C   UNL     1      39.274 -12.312   3.362  1.00  0.00     0.068 C 
HETATM   28  C   UNL     1      37.528 -11.799   1.553  1.00  0.00     0.027 A 
HETATM   29  C   UNL     1      37.284 -12.242   0.244  1.00  0.00     0.027 A 
HETATM   30  C   UNL     1      38.177 -13.261  -0.035  1.00  0.00     0.013 A 
HETATM   31  C   UNL     1      38.222 -14.078  -1.281  1.00  0.00     0.068 C 
ENDBRANCH  22  25
ENDBRANCH   1  19
TORSDOF 5
ENDMDL
MODEL 2
REMARK VINA RESULT:      -8.9      0.720      1.789
REMARK  5 active torsions:
REMARK  status: ('A' for Active; 'I' for Inactive)
REMARK    1  A    between atoms: N_3  and  C_4 
REMARK    2  A    between atoms: C_7  and  C_8 
REMARK       I    between atoms: C_8  and  N_9 
REMARK    3  A    between atoms: N_9  and  C_10 
REMARK    4  A    between atoms: C_11  and  N_12 
REMARK    5  A    between atoms: C_15  and  O_16 
ROOT
HETATM    1  C   UNL     1      42.927 -17.500   1.535  1.00  0.00     0.256 C 
HETATM    2  N   UNL     1      42.725 -18.417   2.535  1.00  0.00    -0.321 N 
HETATM    3  O   UNL     1      43.754 -17.516   0.636  1.00  0.00    -0.267 OA
HETATM    4  H   UNL     1      41.973 -18.263   3.203  1.00  0.00     0.169 HD
ENDROOT
BRANCH   2   5
HETATM    5  C   UNL     1      43.406 -19.628   2.773  1.00  0.00     0.056 A 
HETATM    6  C   UNL     1      43.979 -19.769   4.066  1.00  0.00     0.037 A 
HETATM    7  C   UNL     1      44.639 -20.965   4.377  1.00  0.00     0.026 A 
HETATM    8  C   UNL     1      44.732 -21.995   3.436  1.00  0.00     0.002 A 
HETATM    9  C   UNL     1      44.171 -21.838   2.170  1.00  0.00     0.002 A 
HETATM   10  C   UNL     1      43.510 -20.655   1.836  1.00  0.00     0.031 A 
BRANCH   6  11
HETATM   11  N   UNL     1      43.889 -18.671   4.970  1.00  0.00    -0.281 NA
HETATM   12  C   UNL     1      44.978 -18.733   5.966  1.00  0.00     0.098 C 
HETATM   13  C   UNL     1      45.044 -17.392   6.698  1.00  0.00     0.046 C 
HETATM   14  C   UNL     1      43.699 -17.032   7.328  1.00  0.00     0.120 C 
HETATM   15  C   UNL     1      42.554 -17.139   6.321  1.00  0.00     0.046 C 
HETATM   16  C   UNL     1      42.569 -18.488   5.603  1.00  0.00     0.098 C 
BRANCH  14  17
HETATM   17  O   UNL     1      43.434 -17.898   8.431  1.00  0.00    -0.395 OA
HETATM   18  H   UNL     1      42.559 -18.298   8.286  1.00  0.00     0.210 HD
ENDBRANCH  14  17
ENDBRANCH   6  11
ENDBRANCH   2   5
BRANCH   1  19
HETATM   19  C   UNL     1      41.978 -16.373   1.604  1.00  0.00     0.032 A 
HETATM   20  C   UNL     1      41.103 -16.289   2.686  1.00  0.00     0.019 A 
HETATM   21  C   UNL     1      40.234 -15.202   2.782  1.00  0.00     0.031 A 
HETATM   22  C   UNL     1      40.239 -14.200   1.798  1.00  0.00     0.039 A 
HETATM   23  C   UNL     1      41.117 -14.303   0.708  1.00  0.00     0.031 A 
HETATM   24  C   UNL     1      41.990 -15.391   0.612  1.00  0.00     0.019 A 
BRANCH  22  25
HETATM   25  N   UNL     1      39.350 -13.088   1.913  1.00  0.00    -0.320 N 
HETATM   26  C   UNL     1      38.077 -12.994   1.343  1.00  0.00     0.013 A 
HETATM   27  C   UNL     1      37.371 -14.104   0.639  1.00  0.00     0.068 C 
HETATM   28  C   UNL     1      37.566 -11.742   1.624  1.00  0.00     0.027 A 
HETATM   29  C   UNL     1      38.501 -11.066   2.423  1.00  0.00     0.027 A 
HETATM   30  C   UNL     1      39.588 -11.899   2.605  1.00  0.00     0.013 A 
HETATM   31  C   UNL     1      40.852 -11.558   3.321  1.00  0.00     0.068 C 
ENDBRANCH  22  25
ENDBRANCH   1  19
TORSDOF 5
ENDMDL
MODEL 3
REMARK VINA RESULT:      -8.7      2.150      7.986
REMARK  5 active torsions:
REMARK  status: ('A' for Active; 'I' for Inactive)
REMARK    1  A    between atoms: N_3  and  C_4 
REMARK    2  A    between atoms: C_7  and  C_8 
REMARK       I    between atoms: C_8  and  N_9 
REMARK    3  A    between atoms: N_9  and  C_10 
REMARK    4  A    between atoms: C_11  and  N_12 
REMARK    5  A    between atoms: C_15  and  O_16 
ROOT
HETATM    1  C   UNL     1      41.262 -15.543   1.082  1.00  0.00     0.256 C 
HETATM    2  N   UNL     1      40.155 -15.182   1.808  1.00  0.00    -0.321 N 
HETATM    3  O   UNL     1      41.679 -15.072   0.034  1.00  0.00    -0.267 OA
HETATM    4  H   UNL     1      39.953 -15.668   2.678  1.00  0.00     0.169 HD
ENDROOT
BRANCH   2   5
HETATM    5  C   UNL     1      39.222 -14.158   1.544  1.00  0.00     0.056 A 
HETATM    6  C   UNL     1      39.241 -13.061   2.447  1.00  0.00     0.037 A 
HETATM    7  C   UNL     1      38.362 -11.993   2.218  1.00  0.00     0.026 A 
HETATM    8  C   UNL     1      37.488 -12.010   1.127  1.00  0.00     0.002 A 
HETATM    9  C   UNL     1      37.478 -13.096   0.255  1.00  0.00     0.002 A 
HETATM   10  C   UNL     1      38.342 -14.172   0.463  1.00  0.00     0.031 A 
BRANCH   6  11
HETATM   11  N   UNL     1      40.124 -13.117   3.564  1.00  0.00    -0.281 NA
HETATM   12  C   UNL     1      39.415 -12.730   4.801  1.00  0.00     0.098 C 
HETATM   13  C   UNL     1      40.285 -13.113   5.999  1.00  0.00     0.046 C 
HETATM   14  C   UNL     1      41.675 -12.485   5.904  1.00  0.00     0.120 C 
HETATM   15  C   UNL     1      42.327 -12.752   4.547  1.00  0.00     0.046 C 
HETATM   16  C   UNL     1      41.391 -12.381   3.398  1.00  0.00     0.098 C 
BRANCH  14  17
HETATM   17  O   UNL     1      41.585 -11.075   6.109  1.00  0.00    -0.395 OA
HETATM   18  H   UNL     1      41.350 -10.930   7.042  1.00  0.00     0.210 HD
ENDBRANCH  14  17
ENDBRANCH   6  11
ENDBRANCH   2   5
BRANCH   1  19
HETATM   19  C   UNL     1      42.012 -16.647   1.710  1.00  0.00     0.032 A 
HETATM   20  C   UNL     1      41.487 -17.263   2.845  1.00  0.00     0.019 A 
HETATM   21  C   UNL     1      42.168 -18.338   3.419  1.00  0.00     0.031 A 
HETATM   22  C   UNL     1      43.372 -18.796   2.858  1.00  0.00     0.039 A 
HETATM   23  C   UNL     1      43.894 -18.158   1.723  1.00  0.00     0.031 A 
HETATM   24  C   UNL     1      43.212 -17.083   1.145  1.00  0.00     0.019 A 
BRANCH  22  25
HETATM   25  N   UNL     1      44.054 -19.902   3.451  1.00  0.00    -0.320 N 
HETATM   26  C   UNL     1      44.108 -21.201   2.938  1.00  0.00     0.013 A 
HETATM   27  C   UNL     1      43.585 -21.617   1.604  1.00  0.00     0.068 C 
HETATM   28  C   UNL     1      44.801 -21.993   3.832  1.00  0.00     0.027 A 
HETATM   29  C   UNL     1      45.232 -21.174   4.887  1.00  0.00     0.027 A 
HETATM   30  C   UNL     1      44.780 -19.890   4.643  1.00  0.00     0.013 A 
HETATM   31  C   UNL     1      44.936 -18.713   5.545  1.00  0.00     0.068 C 
ENDBRANCH  22  25
ENDBRANCH   1  19
TORSDOF 5
ENDMDL
MODEL 4
REMARK VINA RESULT:      -8.6      2.606      8.012
REMARK  5 active torsions:
REMARK  status: ('A' for Active; 'I' for Inactive)
REMARK    1  A    between atoms: N_3  and  C_4 
REMARK    2  A    between atoms: C_7  and  C_8 
REMARK       I    between atoms: C_8  and  N_9 
REMARK    3  A    between atoms: N_9  and  C_10 
REMARK    4  A    between atoms: C_11  and  N_12 
REMARK    5  A    between atoms: C_15  and  O_16 
ROOT
HETATM    1  C   UNL     1      41.965 -15.608   0.880  1.00  0.00     0.256 C 
HETATM    2  N   UNL     1      42.208 -14.419   1.521  1.00  0.00    -0.321 N 
HETATM    3  O   UNL     1      41.352 -15.808  -0.158  1.00  0.00    -0.267 OA
HETATM    4  H   UNL     1      42.756 -14.422   2.377  1.00  0.00     0.169 HD
ENDROOT
BRANCH   2   5
HETATM    5  C   UNL     1      41.831 -13.117   1.136  1.00  0.00     0.056 A 
HETATM    6  C   UNL     1      41.282 -12.305   2.166  1.00  0.00     0.037 A 
HETATM    7  C   UNL     1      40.921 -10.987   1.856  1.00  0.00     0.026 A 
HETATM    8  C   UNL     1      41.096 -10.484   0.564  1.00  0.00     0.002 A 
HETATM    9  C   UNL     1      41.629 -11.295  -0.436  1.00  0.00     0.002 A 
HETATM   10  C   UNL     1      41.995 -12.611  -0.153  1.00  0.00     0.031 A 
BRANCH   6  11
HETATM   11  N   UNL     1      41.089 -12.884   3.454  1.00  0.00    -0.281 NA
HETATM   12  C   UNL     1      39.845 -13.680   3.479  1.00  0.00     0.098 C 
HETATM   13  C   UNL     1      39.842 -14.536   4.747  1.00  0.00     0.046 C 
HETATM   14  C   UNL     1      40.011 -13.679   6.001  1.00  0.00     0.120 C 
HETATM   15  C   UNL     1      41.208 -12.736   5.887  1.00  0.00     0.046 C 
HETATM   16  C   UNL     1      41.166 -11.939   4.583  1.00  0.00     0.098 C 
BRANCH  14  17
HETATM   17  O   UNL     1      38.830 -12.910   6.225  1.00  0.00    -0.395 OA
HETATM   18  H   UNL     1      38.762 -12.749   7.182  1.00  0.00     0.210 HD
ENDBRANCH  14  17
ENDBRANCH   6  11
ENDBRANCH   2   5
BRANCH   1  19
HETATM   19  C   UNL     1      42.560 -16.759   1.583  1.00  0.00     0.032 A 
HETATM   20  C   UNL     1      41.851 -17.357   2.625  1.00  0.00     0.019 A 
HETATM   21  C   UNL     1      42.387 -18.475   3.266  1.00  0.00     0.031 A 
HETATM   22  C   UNL     1      43.629 -18.994   2.867  1.00  0.00     0.039 A 
HETATM   23  C   UNL     1      44.337 -18.375   1.826  1.00  0.00     0.031 A 
HETATM   24  C   UNL     1      43.801 -17.257   1.181  1.00  0.00     0.019 A 
BRANCH  22  25
HETATM   25  N   UNL     1      44.162 -20.144   3.526  1.00  0.00    -0.320 N 
HETATM   26  C   UNL     1      44.211 -21.439   3.004  1.00  0.00     0.013 A 
HETATM   27  C   UNL     1      43.849 -21.812   1.605  1.00  0.00     0.068 C 
HETATM   28  C   UNL     1      44.731 -22.278   3.969  1.00  0.00     0.027 A 
HETATM   29  C   UNL     1      45.063 -21.495   5.085  1.00  0.00     0.027 A 
HETATM   30  C   UNL     1      44.721 -20.185   4.805  1.00  0.00     0.013 A 
HETATM   31  C   UNL     1      44.821 -19.027   5.739  1.00  0.00     0.068 C 
ENDBRANCH  22  25
ENDBRANCH   1  19
TORSDOF 5
ENDMDL
MODEL 5
REMARK VINA RESULT:      -8.2      2.254      8.643
REMARK  5 active torsions:
REMARK  status: ('A' for Active; 'I' for Inactive)
REMARK    1  A    between atoms: N_3  and  C_4 
REMARK    2  A    between atoms: C_7  and  C_8 
REMARK       I    between atoms: C_8  and  N_9 
REMARK    3  A    between atoms: N_9  and  C_10 
REMARK    4  A    between atoms: C_11  and  N_12 
REMARK    5  A    between atoms: C_15  and  O_16 
ROOT
HETATM    1  C   UNL     1      42.495 -14.855   5.293  1.00  0.00     0.256 C 
HETATM    2  N   UNL     1      41.171 -14.704   4.969  1.00  0.00    -0.321 N 
HETATM    3  O   UNL     1      43.317 -13.998   5.582  1.00  0.00    -0.267 OA
HETATM    4  H   UNL     1      40.612 -15.530   4.768  1.00  0.00     0.169 HD
ENDROOT
BRANCH   2   5
HETATM    5  C   UNL     1      40.408 -13.520   4.904  1.00  0.00     0.056 A 
HETATM    6  C   UNL     1      40.044 -13.092   3.599  1.00  0.00     0.037 A 
HETATM    7  C   UNL     1      39.254 -11.942   3.469  1.00  0.00     0.026 A 
HETATM    8  C   UNL     1      38.837 -11.232   4.599  1.00  0.00     0.002 A 
HETATM    9  C   UNL     1      39.208 -11.660   5.871  1.00  0.00     0.002 A 
HETATM   10  C   UNL     1      39.995 -12.802   6.026  1.00  0.00     0.031 A 
BRANCH   6  11
HETATM   11  N   UNL     1      40.532 -13.833   2.483  1.00  0.00    -0.281 NA
HETATM   12  C   UNL     1      40.732 -12.941   1.322  1.00  0.00     0.098 C 
HETATM   13  C   UNL     1      41.550 -13.690   0.269  1.00  0.00     0.046 C 
HETATM   14  C   UNL     1      40.887 -15.011  -0.118  1.00  0.00     0.120 C 
HETATM   15  C   UNL     1      40.530 -15.849   1.109  1.00  0.00     0.046 C 
HETATM   16  C   UNL     1      39.745 -15.029   2.132  1.00  0.00     0.098 C 
BRANCH  14  17
HETATM   17  O   UNL     1      39.701 -14.755  -0.870  1.00  0.00    -0.395 OA
HETATM   18  H   UNL     1      39.312 -13.930  -0.532  1.00  0.00     0.210 HD
ENDBRANCH  14  17
ENDBRANCH   6  11
ENDBRANCH   2   5
BRANCH   1  19
HETATM   19  C   UNL     1      42.919 -16.268   5.285  1.00  0.00     0.032 A 
HETATM   20  C   UNL     1      42.130 -17.208   4.625  1.00  0.00     0.019 A 
HETATM   21  C   UNL     1      42.547 -18.539   4.574  1.00  0.00     0.031 A 
HETATM   22  C   UNL     1      43.751 -18.929   5.184  1.00  0.00     0.039 A 
HETATM   23  C   UNL     1      44.529 -17.974   5.856  1.00  0.00     0.031 A 
HETATM   24  C   UNL     1      44.114 -16.640   5.905  1.00  0.00     0.019 A 
BRANCH  22  25
HETATM   25  N   UNL     1      44.170 -20.293   5.117  1.00  0.00    -0.320 N 
HETATM   26  C   UNL     1      44.159 -21.207   6.174  1.00  0.00     0.013 A 
HETATM   27  C   UNL     1      43.564 -20.951   7.519  1.00  0.00     0.068 C 
HETATM   28  C   UNL     1      44.703 -22.395   5.729  1.00  0.00     0.027 A 
HETATM   29  C   UNL     1      45.007 -22.244   4.368  1.00  0.00     0.027 A 
HETATM   30  C   UNL     1      44.669 -20.956   3.995  1.00  0.00     0.013 A 
HETATM   31  C   UNL     1      44.898 -20.335   2.658  1.00  0.00     0.068 C 
ENDBRANCH  22  25
ENDBRANCH   1  19
TORSDOF 5
ENDMDL
MODEL 6
REMARK VINA RESULT:      -8.2      1.804      2.529
REMARK  5 active torsions:
REMARK  status: ('A' for Active; 'I' for Inactive)
REMARK    1  A    between atoms: N_3  and  C_4 
REMARK    2  A    between atoms: C_7  and  C_8 
REMARK       I    between atoms: C_8  and  N_9 
REMARK    3  A    between atoms: N_9  and  C_10 
REMARK    4  A    between atoms: C_11  and  N_12 
REMARK    5  A    between atoms: C_15  and  O_16 
ROOT
HETATM    1  C   UNL     1      42.111 -17.451   1.772  1.00  0.00     0.256 C 
HETATM    2  N   UNL     1      43.287 -17.802   2.384  1.00  0.00    -0.321 N 
HETATM    3  O   UNL     1      41.207 -18.173   1.376  1.00  0.00    -0.267 OA
HETATM    4  H   UNL     1      43.933 -17.070   2.670  1.00  0.00     0.169 HD
ENDROOT
BRANCH   2   5
HETATM    5  C   UNL     1      43.751 -19.086   2.735  1.00  0.00     0.056 A 
HETATM    6  C   UNL     1      43.961 -19.307   4.123  1.00  0.00     0.037 A 
HETATM    7  C   UNL     1      44.386 -20.576   4.540  1.00  0.00     0.026 A 
HETATM    8  C   UNL     1      44.600 -21.598   3.610  1.00  0.00     0.002 A 
HETATM    9  C   UNL     1      44.397 -21.363   2.252  1.00  0.00     0.002 A 
HETATM   10  C   UNL     1      43.974 -20.108   1.812  1.00  0.00     0.031 A 
BRANCH   6  11
HETATM   11  N   UNL     1      43.766 -18.217   5.019  1.00  0.00    -0.281 NA
HETATM   12  C   UNL     1      44.840 -18.186   6.033  1.00  0.00     0.098 C 
HETATM   13  C   UNL     1      44.784 -16.841   6.759  1.00  0.00     0.046 C 
HETATM   14  C   UNL     1      43.404 -16.589   7.365  1.00  0.00     0.120 C 
HETATM   15  C   UNL     1      42.288 -16.793   6.340  1.00  0.00     0.046 C 
HETATM   16  C   UNL     1      42.426 -18.140   5.630  1.00  0.00     0.098 C 
BRANCH  14  17
HETATM   17  O   UNL     1      43.191 -17.469   8.468  1.00  0.00    -0.395 OA
HETATM   18  H   UNL     1      44.065 -17.735   8.804  1.00  0.00     0.210 HD
ENDBRANCH  14  17
ENDBRANCH   6  11
ENDBRANCH   2   5
BRANCH   1  19
HETATM   19  C   UNL     1      41.974 -15.992   1.608  1.00  0.00     0.032 A 
HETATM   20  C   UNL     1      41.059 -15.497   0.680  1.00  0.00     0.019 A 
HETATM   21  C   UNL     1      40.891 -14.118   0.551  1.00  0.00     0.031 A 
HETATM   22  C   UNL     1      41.637 -13.235   1.349  1.00  0.00     0.039 A 
HETATM   23  C   UNL     1      42.563 -13.747   2.270  1.00  0.00     0.031 A 
HETATM   24  C   UNL     1      42.730 -15.128   2.402  1.00  0.00     0.019 A 
BRANCH  22  25
HETATM   25  N   UNL     1      41.449 -11.825   1.213  1.00  0.00    -0.320 N 
HETATM   26  C   UNL     1      42.018 -11.014   0.227  1.00  0.00     0.013 A 
HETATM   27  C   UNL     1      42.802 -11.510  -0.941  1.00  0.00     0.068 C 
HETATM   28  C   UNL     1      41.653  -9.706   0.476  1.00  0.00     0.027 A 
HETATM   29  C   UNL     1      40.803  -9.702   1.593  1.00  0.00     0.027 A 
HETATM   30  C   UNL     1      40.674 -11.006   2.035  1.00  0.00     0.013 A 
HETATM   31  C   UNL     1      39.929 -11.457   3.246  1.00  0.00     0.068 C 
ENDBRANCH  22  25
ENDBRANCH   1  19
TORSDOF 5
ENDMDL
MODEL 7
REMARK VINA RESULT:      -8.1      2.193      7.922
REMARK  5 active torsions:
REMARK  status: ('A' for Active; 'I' for Inactive)
REMARK    1  A    between atoms: N_3  and  C_4 
REMARK    2  A    between atoms: C_7  and  C_8 
REMARK       I    between atoms: C_8  and  N_9 
REMARK    3  A    between atoms: N_9  and  C_10 
REMARK    4  A    between atoms: C_11  and  N_12 
REMARK    5  A    between atoms: C_15  and  O_16 
ROOT
HETATM    1  C   UNL     1      41.108 -15.800  -0.231  1.00  0.00     0.256 C 
HETATM    2  N   UNL     1      40.183 -15.062   0.462  1.00  0.00    -0.321 N 
HETATM    3  O   UNL     1      41.413 -15.734  -1.413  1.00  0.00    -0.267 OA
HETATM    4  H   UNL     1      40.061 -15.231   1.458  1.00  0.00     0.169 HD
ENDROOT
BRANCH   2   5
HETATM    5  C   UNL     1      39.357 -14.019  -0.004  1.00  0.00     0.056 A 
HETATM    6  C   UNL     1      39.328 -12.849   0.802  1.00  0.00     0.037 A 
HETATM    7  C   UNL     1      38.554 -11.762   0.373  1.00  0.00     0.026 A 
HETATM    8  C   UNL     1      37.827 -11.831  -0.819  1.00  0.00     0.002 A 
HETATM    9  C   UNL     1      37.860 -12.988  -1.594  1.00  0.00     0.002 A 
HETATM   10  C   UNL     1      38.623 -14.084  -1.188  1.00  0.00     0.031 A 
BRANCH   6  11
HETATM   11  N   UNL     1      40.057 -12.852   2.027  1.00  0.00    -0.281 NA
HETATM   12  C   UNL     1      39.329 -12.086   3.059  1.00  0.00     0.098 C 
HETATM   13  C   UNL     1      39.963 -12.381   4.420  1.00  0.00     0.046 C 
HETATM   14  C   UNL     1      41.461 -12.079   4.416  1.00  0.00     0.120 C 
HETATM   15  C   UNL     1      42.172 -12.744   3.238  1.00  0.00     0.046 C 
HETATM   16  C   UNL     1      41.467 -12.435   1.917  1.00  0.00     0.098 C 
BRANCH  14  17
HETATM   17  O   UNL     1      41.671 -10.668   4.353  1.00  0.00    -0.395 OA
HETATM   18  H   UNL     1      41.096 -10.257   5.021  1.00  0.00     0.210 HD
ENDBRANCH  14  17
ENDBRANCH   6  11
ENDBRANCH   2   5
BRANCH   1  19
HETATM   19  C   UNL     1      41.802 -16.781   0.624  1.00  0.00     0.032 A 
HETATM   20  C   UNL     1      43.196 -16.782   0.661  1.00  0.00     0.019 A 
HETATM   21  C   UNL     1      43.859 -17.676   1.502  1.00  0.00     0.031 A 
HETATM   22  C   UNL     1      43.130 -18.570   2.304  1.00  0.00     0.039 A 
HETATM   23  C   UNL     1      41.728 -18.566   2.247  1.00  0.00     0.031 A 
HETATM   24  C   UNL     1      41.062 -17.669   1.408  1.00  0.00     0.019 A 
BRANCH  22  25
HETATM   25  N   UNL     1      43.821 -19.475   3.167  1.00  0.00    -0.320 N 
HETATM   26  C   UNL     1      44.284 -19.188   4.454  1.00  0.00     0.013 A 
HETATM   27  C   UNL     1      44.001 -17.930   5.204  1.00  0.00     0.068 C 
HETATM   28  C   UNL     1      44.958 -20.295   4.930  1.00  0.00     0.027 A 
HETATM   29  C   UNL     1      44.871 -21.302   3.958  1.00  0.00     0.027 A 
HETATM   30  C   UNL     1      44.164 -20.797   2.882  1.00  0.00     0.013 A 
HETATM   31  C   UNL     1      43.904 -21.496   1.590  1.00  0.00     0.068 C 
ENDBRANCH  22  25
ENDBRANCH   1  19
TORSDOF 5
ENDMDL
MODEL 8
REMARK VINA RESULT:      -8.1      2.293      8.774
REMARK  5 active torsions:
REMARK  status: ('A' for Active; 'I' for Inactive)
REMARK    1  A    between atoms: N_3  and  C_4 
REMARK    2  A    between atoms: C_7  and  C_8 
REMARK       I    between atoms: C_8  and  N_9 
REMARK    3  A    between atoms: N_9  and  C_10 
REMARK    4  A    between atoms: C_11  and  N_12 
REMARK    5  A    between atoms: C_15  and  O_16 
ROOT
HETATM    1  C   UNL     1      42.526 -14.774   5.665  1.00  0.00     0.256 C 
HETATM    2  N   UNL     1      41.287 -14.545   5.122  1.00  0.00    -0.321 N 
HETATM    3  O   UNL     1      43.268 -13.991   6.239  1.00  0.00    -0.267 OA
HETATM    4  H   UNL     1      40.786 -15.317   4.689  1.00  0.00     0.169 HD
ENDROOT
BRANCH   2   5
HETATM    5  C   UNL     1      40.539 -13.350   5.103  1.00  0.00     0.056 A 
HETATM    6  C   UNL     1      40.073 -12.935   3.826  1.00  0.00     0.037 A 
HETATM    7  C   UNL     1      39.292 -11.774   3.745  1.00  0.00     0.026 A 
HETATM    8  C   UNL     1      38.982 -11.042   4.895  1.00  0.00     0.002 A 
HETATM    9  C   UNL     1      39.452 -11.458   6.138  1.00  0.00     0.002 A 
HETATM   10  C   UNL     1      40.233 -12.610   6.244  1.00  0.00     0.031 A 
BRANCH   6  11
HETATM   11  N   UNL     1      40.455 -13.699   2.685  1.00  0.00    -0.281 NA
HETATM   12  C   UNL     1      40.649 -12.816   1.516  1.00  0.00     0.098 C 
HETATM   13  C   UNL     1      41.362 -13.610   0.421  1.00  0.00     0.046 C 
HETATM   14  C   UNL     1      40.599 -14.885   0.067  1.00  0.00     0.120 C 
HETATM   15  C   UNL     1      40.256 -15.705   1.310  1.00  0.00     0.046 C 
HETATM   16  C   UNL     1      39.578 -14.843   2.375  1.00  0.00     0.098 C 
BRANCH  14  17
HETATM   17  O   UNL     1      39.393 -14.553  -0.621  1.00  0.00    -0.395 OA
HETATM   18  H   UNL     1      39.224 -13.606  -0.476  1.00  0.00     0.210 HD
ENDBRANCH  14  17
ENDBRANCH   6  11
ENDBRANCH   2   5
BRANCH   1  19
HETATM   19  C   UNL     1      42.957 -16.176   5.512  1.00  0.00     0.032 A 
HETATM   20  C   UNL     1      44.152 -16.585   6.103  1.00  0.00     0.019 A 
HETATM   21  C   UNL     1      44.544 -17.921   6.002  1.00  0.00     0.031 A 
HETATM   22  C   UNL     1      43.744 -18.845   5.310  1.00  0.00     0.039 A 
HETATM   23  C   UNL     1      42.551 -18.416   4.709  1.00  0.00     0.031 A 
HETATM   24  C   UNL     1      42.155 -17.079   4.812  1.00  0.00     0.019 A 
BRANCH  22  25
HETATM   25  N   UNL     1      44.154 -20.210   5.221  1.00  0.00    -0.320 N 
HETATM   26  C   UNL     1      44.652 -20.844   4.079  1.00  0.00     0.013 A 
HETATM   27  C   UNL     1      44.979 -20.159   2.795  1.00  0.00     0.068 C 
HETATM   28  C   UNL     1      44.867 -22.175   4.378  1.00  0.00     0.027 A 
HETATM   29  C   UNL     1      44.555 -22.365   5.733  1.00  0.00     0.027 A 
HETATM   30  C   UNL     1      44.128 -21.156   6.248  1.00  0.00     0.013 A 
HETATM   31  C   UNL     1      43.618 -20.914   7.628  1.00  0.00     0.068 C 
ENDBRANCH  22  25
ENDBRANCH   1  19
TORSDOF 5
ENDMDL
MODEL 9
REMARK VINA RESULT:      -8.0      2.565      8.959
REMARK  5 active torsions:
REMARK  status: ('A' for Active; 'I' for Inactive)
REMARK    1  A    between atoms: N_3  and  C_4 
REMARK    2  A    between atoms: C_7  and  C_8 
REMARK       I    between atoms: C_8  and  N_9 
REMARK    3  A    between atoms: N_9  and  C_10 
REMARK    4  A    between atoms: C_11  and  N_12 
REMARK    5  A    between atoms: C_15  and  O_16 
ROOT
HETATM    1  C   UNL     1      40.404 -13.614   2.118  1.00  0.00     0.256 C 
HETATM    2  N   UNL     1      39.537 -13.929   1.102  1.00  0.00    -0.321 N 
HETATM    3  O   UNL     1      40.568 -12.542   2.681  1.00  0.00    -0.267 OA
HETATM    4  H   UNL     1      39.511 -14.884   0.752  1.00  0.00     0.169 HD
ENDROOT
BRANCH   2   5
HETATM    5  C   UNL     1      38.594 -13.102   0.458  1.00  0.00     0.056 A 
HETATM    6  C   UNL     1      38.940 -12.679  -0.854  1.00  0.00     0.037 A 
HETATM    7  C   UNL     1      38.028 -11.885  -1.561  1.00  0.00     0.026 A 
HETATM    8  C   UNL     1      36.807 -11.518  -0.988  1.00  0.00     0.002 A 
HETATM    9  C   UNL     1      36.485 -11.935   0.302  1.00  0.00     0.002 A 
HETATM   10  C   UNL     1      37.378 -12.725   1.027  1.00  0.00     0.031 A 
BRANCH   6  11
HETATM   11  N   UNL     1      40.215 -13.051  -1.371  1.00  0.00    -0.281 NA
HETATM   12  C   UNL     1      41.149 -11.907  -1.308  1.00  0.00     0.098 C 
HETATM   13  C   UNL     1      42.567 -12.424  -1.557  1.00  0.00     0.046 C 
HETATM   14  C   UNL     1      42.661 -13.181  -2.881  1.00  0.00     0.120 C 
HETATM   15  C   UNL     1      41.576 -14.251  -3.002  1.00  0.00     0.046 C 
HETATM   16  C   UNL     1      40.192 -13.674  -2.707  1.00  0.00     0.098 C 
BRANCH  14  17
HETATM   17  O   UNL     1      42.541 -12.268  -3.971  1.00  0.00    -0.395 OA
HETATM   18  H   UNL     1      43.392 -11.806  -4.062  1.00  0.00     0.210 HD
ENDBRANCH  14  17
ENDBRANCH   6  11
ENDBRANCH   2   5
BRANCH   1  19
HETATM   19  C   UNL     1      41.210 -14.770   2.550  1.00  0.00     0.032 A 
HETATM   20  C   UNL     1      42.595 -14.728   2.392  1.00  0.00     0.019 A 
HETATM   21  C   UNL     1      43.369 -15.799   2.840  1.00  0.00     0.031 A 
HETATM   22  C   UNL     1      42.760 -16.912   3.443  1.00  0.00     0.039 A 
HETATM   23  C   UNL     1      41.365 -16.946   3.584  1.00  0.00     0.031 A 
HETATM   24  C   UNL     1      40.588 -15.873   3.139  1.00  0.00     0.019 A 
BRANCH  22  25
HETATM   25  N   UNL     1      43.565 -17.998   3.904  1.00  0.00    -0.320 N 
HETATM   26  C   UNL     1      43.844 -19.170   3.196  1.00  0.00     0.013 A 
HETATM   27  C   UNL     1      43.467 -19.420   1.774  1.00  0.00     0.068 C 
HETATM   28  C   UNL     1      44.595 -19.999   4.005  1.00  0.00     0.027 A 
HETATM   29  C   UNL     1      44.837 -19.320   5.208  1.00  0.00     0.027 A 
HETATM   30  C   UNL     1      44.212 -18.089   5.138  1.00  0.00     0.013 A 
HETATM   31  C   UNL     1      44.137 -17.073   6.227  1.00  0.00     0.068 C 
ENDBRANCH  22  25
ENDBRANCH   1  19
TORSDOF 5
ENDMDL
MODEL 10
REMARK VINA RESULT:      -8.0      3.381      4.984
REMARK  5 active torsions:
REMARK  status: ('A' for Active; 'I' for Inactive)
REMARK    1  A    between atoms: N_3  and  C_4 
REMARK    2  A    between atoms: C_7  and  C_8 
REMARK       I    between atoms: C_8  and  N_9 
REMARK    3  A    between atoms: N_9  and  C_10 
REMARK    4  A    between atoms: C_11  and  N_12 
REMARK    5  A    between atoms: C_15  and  O_16 
ROOT
HETATM    1  C   UNL     1      41.173 -14.965   3.601  1.00  0.00     0.256 C 
HETATM    2  N   UNL     1      42.475 -15.381   3.481  1.00  0.00    -0.321 N 
HETATM    3  O   UNL     1      40.161 -15.472   3.142  1.00  0.00    -0.267 OA
HETATM    4  H   UNL     1      43.209 -14.850   3.944  1.00  0.00     0.169 HD
ENDROOT
BRANCH   2   5
HETATM    5  C   UNL     1      42.981 -16.514   2.812  1.00  0.00     0.056 A 
HETATM    6  C   UNL     1      43.455 -17.561   3.648  1.00  0.00     0.037 A 
HETATM    7  C   UNL     1      43.937 -18.731   3.044  1.00  0.00     0.026 A 
HETATM    8  C   UNL     1      43.952 -18.861   1.652  1.00  0.00     0.002 A 
HETATM    9  C   UNL     1      43.491 -17.822   0.847  1.00  0.00     0.002 A 
HETATM   10  C   UNL     1      43.007 -16.647   1.425  1.00  0.00     0.031 A 
BRANCH   6  11
HETATM   11  N   UNL     1      43.453 -17.357   5.058  1.00  0.00    -0.281 NA
HETATM   12  C   UNL     1      44.693 -17.891   5.657  1.00  0.00     0.098 C 
HETATM   13  C   UNL     1      44.804 -17.371   7.091  1.00  0.00     0.046 C 
HETATM   14  C   UNL     1      43.562 -17.720   7.910  1.00  0.00     0.120 C 
HETATM   15  C   UNL     1      42.275 -17.312   7.194  1.00  0.00     0.046 C 
HETATM   16  C   UNL     1      42.248 -17.836   5.759  1.00  0.00     0.098 C 
BRANCH  14  17
HETATM   17  O   UNL     1      43.530 -19.125   8.165  1.00  0.00    -0.395 OA
HETATM   18  H   UNL     1      42.682 -19.324   8.599  1.00  0.00     0.210 HD
ENDBRANCH  14  17
ENDBRANCH   6  11
ENDBRANCH   2   5
BRANCH   1  19
HETATM   19  C   UNL     1      41.046 -13.742   4.416  1.00  0.00     0.032 A 
HETATM   20  C   UNL     1      39.925 -12.930   4.248  1.00  0.00     0.019 A 
HETATM   21  C   UNL     1      39.774 -11.796   5.048  1.00  0.00     0.031 A 
HETATM   22  C   UNL     1      40.743 -11.474   6.012  1.00  0.00     0.039 A 
HETATM   23  C   UNL     1      41.872 -12.293   6.161  1.00  0.00     0.031 A 
HETATM   24  C   UNL     1      42.023 -13.431   5.364  1.00  0.00     0.019 A 
BRANCH  22  25
HETATM   25  N   UNL     1      40.572 -10.314   6.828  1.00  0.00    -0.320 N 
HETATM   26  C   UNL     1      41.064  -9.036   6.550  1.00  0.00     0.013 A 
HETATM   27  C   UNL     1      41.726  -8.633   5.275  1.00  0.00     0.068 C 
HETATM   28  C   UNL     1      40.750  -8.209   7.610  1.00  0.00     0.027 A 
HETATM   29  C   UNL     1      40.008  -8.959   8.535  1.00  0.00     0.027 A 
HETATM   30  C   UNL     1      39.894 -10.247   8.046  1.00  0.00     0.013 A 
HETATM   31  C   UNL     1      39.256 -11.401   8.742  1.00  0.00     0.068 C 
ENDBRANCH  22  25
ENDBRANCH   1  19
TORSDOF 5
ENDMDL
