MODEL 1
REMARK VINA RESULT:      -9.8      0.000      0.000
REMARK  5 active torsions:
REMARK  status: ('A' for Active; 'I' for Inactive)
REMARK    1  A    between atoms: C_11  and  C_12 
REMARK    2  A    between atoms: C_15  and  N_16 
REMARK    3  A    between atoms: N_16  and  C_17 
REMARK    4  A    between atoms: C_18  and  O_19 
REMARK    5  A    between atoms: O_19  and  C_20 
ROOT
HETATM    1  C   UNL     1      42.333 -13.304   3.247  1.00  0.00     0.077 C 
HETATM    2  C   UNL     1      41.666 -12.070   3.830  1.00  0.00     0.023 C 
HETATM    3  N   UNL     1      41.114 -11.045   4.315  1.00  0.00    -0.096 N 
HETATM    4  C   UNL     1      42.495 -13.338   1.906  1.00  0.00     0.087 C 
ENDROOT
BRANCH   1   5
HETATM    5  C   UNL     1      42.692 -14.394   4.101  1.00  0.00     0.118 A 
HETATM    6  N   UNL     1      43.072 -15.598   3.703  1.00  0.00    -0.239 NA
HETATM    7  C   UNL     1      43.385 -16.421   4.781  1.00  0.00     0.081 A 
HETATM    8  C   UNL     1      43.798 -17.780   4.527  1.00  0.00     0.070 A 
HETATM    9  C   UNL     1      43.213 -15.835   6.015  1.00  0.00     0.084 A 
HETATM   10  C   UNL     1      44.594 -18.525   5.558  1.00  0.00     0.301 A 
HETATM   11  C   UNL     1      43.485 -18.400   3.372  1.00  0.00     0.034 A 
HETATM   12  O   UNL     1      44.909 -19.855   5.293  1.00  0.00    -0.274 OA
HETATM   13  O   UNL     1      44.967 -18.012   6.610  1.00  0.00    -0.259 OA
HETATM   14  C   UNL     1      44.554 -20.478   4.089  1.00  0.00     0.089 A 
HETATM   15  C   UNL     1      43.859 -19.779   3.112  1.00  0.00    -0.001 A 
HETATM   16  C   UNL     1      44.927 -21.809   3.917  1.00  0.00     0.038 A 
HETATM   17  C   UNL     1      43.527 -20.433   1.925  1.00  0.00     0.014 A 
HETATM   18  C   UNL     1      43.893 -21.770   1.735  1.00  0.00     0.001 A 
HETATM   19  C   UNL     1      44.591 -22.458   2.731  1.00  0.00     0.003 A 
HETATM   20  S   UNL     1      42.703 -14.217   5.834  1.00  0.00    -0.078 SA
ENDBRANCH   1   5
BRANCH   4  21
HETATM   21  N   UNL     1      42.135 -12.356   0.999  1.00  0.00    -0.266 NA
HETATM   22  H   UNL     1      41.311 -11.822   1.294  1.00  0.00     0.133 HD
BRANCH  21  23
HETATM   23  C   UNL     1      41.976 -12.598  -0.396  1.00  0.00     0.046 A 
HETATM   24  C   UNL     1      42.774 -11.871  -1.300  1.00  0.00     0.096 A 
HETATM   25  C   UNL     1      42.658 -12.037  -2.680  1.00  0.00     0.039 A 
HETATM   26  C   UNL     1      41.769 -12.982  -3.180  1.00  0.00     0.003 A 
HETATM   27  C   UNL     1      41.007 -13.754  -2.302  1.00  0.00     0.002 A 
HETATM   28  C   UNL     1      41.116 -13.570  -0.918  1.00  0.00     0.026 A 
BRANCH  24  29
HETATM   29  O   UNL     1      43.671 -10.953  -0.813  1.00  0.00    -0.288 OA
BRANCH  29  30
HETATM   30  C   UNL     1      43.623  -9.783  -1.629  1.00  0.00     0.505 C 
HETATM   31  F   UNL     1      42.589  -9.011  -1.206  1.00  0.00    -0.184 F 
HETATM   32  F   UNL     1      44.756  -9.079  -1.378  1.00  0.00    -0.184 F 
ENDBRANCH  29  30
ENDBRANCH  24  29
ENDBRANCH  21  23
ENDBRANCH   4  21
TORSDOF 5
ENDMDL
MODEL 2
REMARK VINA RESULT:      -9.6      2.814      3.354
REMARK  5 active torsions:
REMARK  status: ('A' for Active; 'I' for Inactive)
REMARK    1  A    between atoms: C_11  and  C_12 
REMARK    2  A    between atoms: C_15  and  N_16 
REMARK    3  A    between atoms: N_16  and  C_17 
REMARK    4  A    between atoms: C_18  and  O_19 
REMARK    5  A    between atoms: O_19  and  C_20 
ROOT
HETATM    1  C   UNL     1      41.736 -13.977   1.353  1.00  0.00     0.077 C 
HETATM    2  C   UNL     1      41.330 -12.521   1.505  1.00  0.00     0.023 C 
HETATM    3  N   UNL     1      40.994 -11.311   1.631  1.00  0.00    -0.096 N 
HETATM    4  C   UNL     1      41.676 -14.504   0.111  1.00  0.00     0.087 C 
ENDROOT
BRANCH   1   5
HETATM    5  C   UNL     1      42.089 -14.744   2.508  1.00  0.00     0.118 A 
HETATM    6  N   UNL     1      42.636 -15.950   2.500  1.00  0.00    -0.239 NA
HETATM    7  C   UNL     1      42.888 -16.410   3.789  1.00  0.00     0.081 A 
HETATM    8  C   UNL     1      43.466 -17.720   3.965  1.00  0.00     0.070 A 
HETATM    9  C   UNL     1      42.498 -15.547   4.788  1.00  0.00     0.084 A 
HETATM   10  C   UNL     1      44.191 -18.053   5.234  1.00  0.00     0.301 A 
HETATM   11  C   UNL     1      43.370 -18.659   3.003  1.00  0.00     0.034 A 
HETATM   12  O   UNL     1      44.671 -19.352   5.382  1.00  0.00    -0.274 OA
HETATM   13  O   UNL     1      44.370 -17.236   6.134  1.00  0.00    -0.259 OA
HETATM   14  C   UNL     1      44.541 -20.313   4.370  1.00  0.00     0.089 A 
HETATM   15  C   UNL     1      43.912 -19.995   3.174  1.00  0.00    -0.001 A 
HETATM   16  C   UNL     1      45.065 -21.580   4.612  1.00  0.00     0.038 A 
HETATM   17  C   UNL     1      43.805 -20.978   2.188  1.00  0.00     0.014 A 
HETATM   18  C   UNL     1      44.326 -22.256   2.415  1.00  0.00     0.001 A 
HETATM   19  C   UNL     1      44.955 -22.558   3.626  1.00  0.00     0.003 A 
HETATM   20  S   UNL     1      41.856 -14.116   4.116  1.00  0.00    -0.078 SA
ENDBRANCH   1   5
BRANCH   4  21
HETATM   21  N   UNL     1      41.301 -13.855  -1.052  1.00  0.00    -0.266 NA
HETATM   22  H   UNL     1      41.101 -12.860  -0.907  1.00  0.00     0.133 HD
BRANCH  21  23
HETATM   23  C   UNL     1      40.290 -14.342  -1.931  1.00  0.00     0.046 A 
HETATM   24  C   UNL     1      38.958 -13.941  -1.710  1.00  0.00     0.096 A 
HETATM   25  C   UNL     1      37.912 -14.394  -2.514  1.00  0.00     0.039 A 
HETATM   26  C   UNL     1      38.194 -15.222  -3.596  1.00  0.00     0.003 A 
HETATM   27  C   UNL     1      39.514 -15.588  -3.867  1.00  0.00     0.002 A 
HETATM   28  C   UNL     1      40.556 -15.143  -3.046  1.00  0.00     0.026 A 
BRANCH  24  29
HETATM   29  O   UNL     1      38.675 -13.105  -0.659  1.00  0.00    -0.288 OA
BRANCH  29  30
HETATM   30  C   UNL     1      37.754 -13.757   0.214  1.00  0.00     0.505 C 
HETATM   31  F   UNL     1      38.444 -14.641   0.979  1.00  0.00    -0.184 F 
HETATM   32  F   UNL     1      37.273 -12.810   1.060  1.00  0.00    -0.184 F 
ENDBRANCH  29  30
ENDBRANCH  24  29
ENDBRANCH  21  23
ENDBRANCH   4  21
TORSDOF 5
ENDMDL
MODEL 3
REMARK VINA RESULT:      -9.6      4.903      7.332
REMARK  5 active torsions:
REMARK  status: ('A' for Active; 'I' for Inactive)
REMARK    1  A    between atoms: C_11  and  C_12 
REMARK    2  A    between atoms: C_15  and  N_16 
REMARK    3  A    between atoms: N_16  and  C_17 
REMARK    4  A    between atoms: C_18  and  O_19 
REMARK    5  A    between atoms: O_19  and  C_20 
ROOT
HETATM    1  C   UNL     1      42.250 -13.647   5.660  1.00  0.00     0.077 C 
HETATM    2  C   UNL     1      40.761 -13.440   5.883  1.00  0.00     0.023 C 
HETATM    3  N   UNL     1      39.525 -13.269   6.068  1.00  0.00    -0.096 N 
HETATM    4  C   UNL     1      43.091 -12.972   6.474  1.00  0.00     0.087 C 
ENDROOT
BRANCH   1   5
HETATM    5  C   UNL     1      42.704 -14.469   4.582  1.00  0.00     0.118 A 
HETATM    6  N   UNL     1      42.891 -15.778   4.630  1.00  0.00    -0.239 NA
HETATM    7  C   UNL     1      43.305 -16.285   3.402  1.00  0.00     0.081 A 
HETATM    8  C   UNL     1      43.577 -17.698   3.283  1.00  0.00     0.070 A 
HETATM    9  C   UNL     1      43.459 -15.337   2.417  1.00  0.00     0.084 A 
HETATM   10  C   UNL     1      43.539 -18.355   1.936  1.00  0.00     0.301 A 
HETATM   11  C   UNL     1      43.862 -18.446   4.367  1.00  0.00     0.034 A 
HETATM   12  O   UNL     1      43.874 -19.705   1.867  1.00  0.00    -0.274 OA
HETATM   13  O   UNL     1      43.231 -17.755   0.910  1.00  0.00    -0.259 OA
HETATM   14  C   UNL     1      44.185 -20.454   3.010  1.00  0.00     0.089 A 
HETATM   15  C   UNL     1      44.175 -19.861   4.265  1.00  0.00    -0.001 A 
HETATM   16  C   UNL     1      44.496 -21.800   2.835  1.00  0.00     0.038 A 
HETATM   17  C   UNL     1      44.486 -20.641   5.381  1.00  0.00     0.014 A 
HETATM   18  C   UNL     1      44.801 -21.994   5.223  1.00  0.00     0.001 A 
HETATM   19  C   UNL     1      44.807 -22.573   3.952  1.00  0.00     0.003 A 
HETATM   20  S   UNL     1      43.032 -13.795   3.009  1.00  0.00    -0.078 SA
ENDBRANCH   1   5
BRANCH   4  21
HETATM   21  N   UNL     1      42.745 -12.120   7.508  1.00  0.00    -0.266 NA
HETATM   22  H   UNL     1      42.339 -11.237   7.180  1.00  0.00     0.133 HD
BRANCH  21  23
HETATM   23  C   UNL     1      43.627 -11.781   8.575  1.00  0.00     0.046 A 
HETATM   24  C   UNL     1      43.175 -10.884   9.561  1.00  0.00     0.096 A 
HETATM   25  C   UNL     1      43.990 -10.488  10.622  1.00  0.00     0.039 A 
HETATM   26  C   UNL     1      45.265 -11.032  10.742  1.00  0.00     0.003 A 
HETATM   27  C   UNL     1      45.714 -11.966   9.806  1.00  0.00     0.002 A 
HETATM   28  C   UNL     1      44.897 -12.346   8.735  1.00  0.00     0.026 A 
BRANCH  24  29
HETATM   29  O   UNL     1      41.910 -10.360   9.463  1.00  0.00    -0.288 OA
BRANCH  29  30
HETATM   30  C   UNL     1      41.126 -10.837  10.555  1.00  0.00     0.505 C 
HETATM   31  F   UNL     1      40.690  -9.765  11.265  1.00  0.00    -0.184 F 
HETATM   32  F   UNL     1      40.022 -11.422  10.024  1.00  0.00    -0.184 F 
ENDBRANCH  29  30
ENDBRANCH  24  29
ENDBRANCH  21  23
ENDBRANCH   4  21
TORSDOF 5
ENDMDL
MODEL 4
REMARK VINA RESULT:      -9.4      2.210      2.679
REMARK  5 active torsions:
REMARK  status: ('A' for Active; 'I' for Inactive)
REMARK    1  A    between atoms: C_11  and  C_12 
REMARK    2  A    between atoms: C_15  and  N_16 
REMARK    3  A    between atoms: N_16  and  C_17 
REMARK    4  A    between atoms: C_18  and  O_19 
REMARK    5  A    between atoms: O_19  and  C_20 
ROOT
HETATM    1  C   UNL     1      41.598 -13.289   2.821  1.00  0.00     0.077 C 
HETATM    2  C   UNL     1      40.236 -12.655   3.045  1.00  0.00     0.023 C 
HETATM    3  N   UNL     1      39.105 -12.128   3.231  1.00  0.00    -0.096 N 
HETATM    4  C   UNL     1      42.273 -12.918   1.711  1.00  0.00     0.087 C 
ENDROOT
BRANCH   1   5
HETATM    5  C   UNL     1      42.080 -14.286   3.727  1.00  0.00     0.118 A 
HETATM    6  N   UNL     1      42.546 -15.478   3.391  1.00  0.00    -0.239 NA
HETATM    7  C   UNL     1      42.968 -16.199   4.505  1.00  0.00     0.081 A 
HETATM    8  C   UNL     1      43.485 -17.533   4.321  1.00  0.00     0.070 A 
HETATM    9  C   UNL     1      42.791 -15.548   5.704  1.00  0.00     0.084 A 
HETATM   10  C   UNL     1      44.379 -18.138   5.362  1.00  0.00     0.301 A 
HETATM   11  C   UNL     1      43.185 -18.252   3.221  1.00  0.00     0.034 A 
HETATM   12  O   UNL     1      44.797 -19.453   5.169  1.00  0.00    -0.274 OA
HETATM   13  O   UNL     1      44.745 -17.528   6.363  1.00  0.00    -0.259 OA
HETATM   14  C   UNL     1      44.453 -20.182   4.023  1.00  0.00     0.089 A 
HETATM   15  C   UNL     1      43.665 -19.610   3.034  1.00  0.00    -0.001 A 
HETATM   16  C   UNL     1      44.931 -21.486   3.920  1.00  0.00     0.038 A 
HETATM   17  C   UNL     1      43.347 -20.367   1.905  1.00  0.00     0.014 A 
HETATM   18  C   UNL     1      43.818 -21.679   1.786  1.00  0.00     0.001 A 
HETATM   19  C   UNL     1      44.609 -22.238   2.793  1.00  0.00     0.003 A 
HETATM   20  S   UNL     1      42.140 -13.993   5.443  1.00  0.00    -0.078 SA
ENDBRANCH   1   5
BRANCH   4  21
HETATM   21  N   UNL     1      41.865 -12.002   0.756  1.00  0.00    -0.266 NA
HETATM   22  H   UNL     1      41.006 -11.508   1.018  1.00  0.00     0.133 HD
BRANCH  21  23
HETATM   23  C   UNL     1      41.740 -12.316  -0.628  1.00  0.00     0.046 A 
HETATM   24  C   UNL     1      40.472 -12.673  -1.124  1.00  0.00     0.096 A 
HETATM   25  C   UNL     1      40.276 -13.015  -2.462  1.00  0.00     0.039 A 
HETATM   26  C   UNL     1      41.350 -12.952  -3.345  1.00  0.00     0.003 A 
HETATM   27  C   UNL     1      42.604 -12.547  -2.888  1.00  0.00     0.002 A 
HETATM   28  C   UNL     1      42.797 -12.222  -1.540  1.00  0.00     0.026 A 
BRANCH  24  29
HETATM   29  O   UNL     1      39.403 -12.716  -0.264  1.00  0.00    -0.288 OA
BRANCH  29  30
HETATM   30  C   UNL     1      38.885 -14.044  -0.235  1.00  0.00     0.505 C 
HETATM   31  F   UNL     1      39.745 -14.821   0.475  1.00  0.00    -0.184 F 
HETATM   32  F   UNL     1      37.729 -14.003   0.475  1.00  0.00    -0.184 F 
ENDBRANCH  29  30
ENDBRANCH  24  29
ENDBRANCH  21  23
ENDBRANCH   4  21
TORSDOF 5
ENDMDL
MODEL 5
REMARK VINA RESULT:      -9.3      2.461      2.833
REMARK  5 active torsions:
REMARK  status: ('A' for Active; 'I' for Inactive)
REMARK    1  A    between atoms: C_11  and  C_12 
REMARK    2  A    between atoms: C_15  and  N_16 
REMARK    3  A    between atoms: N_16  and  C_17 
REMARK    4  A    between atoms: C_18  and  O_19 
REMARK    5  A    between atoms: O_19  and  C_20 
ROOT
HETATM    1  C   UNL     1      41.933 -13.316   2.713  1.00  0.00     0.077 C 
HETATM    2  C   UNL     1      41.385 -11.995   3.228  1.00  0.00     0.023 C 
HETATM    3  N   UNL     1      40.931 -10.899   3.655  1.00  0.00    -0.096 N 
HETATM    4  C   UNL     1      41.932 -13.501   1.375  1.00  0.00     0.087 C 
ENDROOT
BRANCH   1   5
HETATM    5  C   UNL     1      42.353 -14.323   3.637  1.00  0.00     0.118 A 
HETATM    6  N   UNL     1      42.783 -15.535   3.320  1.00  0.00    -0.239 NA
HETATM    7  C   UNL     1      43.148 -16.263   4.449  1.00  0.00     0.081 A 
HETATM    8  C   UNL     1      43.621 -17.617   4.285  1.00  0.00     0.070 A 
HETATM    9  C   UNL     1      42.965 -15.598   5.639  1.00  0.00     0.084 A 
HETATM   10  C   UNL     1      44.464 -18.248   5.353  1.00  0.00     0.301 A 
HETATM   11  C   UNL     1      43.322 -18.332   3.183  1.00  0.00     0.034 A 
HETATM   12  O   UNL     1      44.837 -19.578   5.179  1.00  0.00    -0.274 OA
HETATM   13  O   UNL     1      44.826 -17.645   6.360  1.00  0.00    -0.259 OA
HETATM   14  C   UNL     1      44.497 -20.302   4.028  1.00  0.00     0.089 A 
HETATM   15  C   UNL     1      43.757 -19.707   3.016  1.00  0.00    -0.001 A 
HETATM   16  C   UNL     1      44.929 -21.623   3.946  1.00  0.00     0.038 A 
HETATM   17  C   UNL     1      43.440 -20.460   1.883  1.00  0.00     0.014 A 
HETATM   18  C   UNL     1      43.866 -21.788   1.783  1.00  0.00     0.001 A 
HETATM   19  C   UNL     1      44.609 -22.370   2.814  1.00  0.00     0.003 A 
HETATM   20  S   UNL     1      42.378 -14.022   5.352  1.00  0.00    -0.078 SA
ENDBRANCH   1   5
BRANCH   4  21
HETATM   21  N   UNL     1      41.500 -12.606   0.411  1.00  0.00    -0.266 NA
HETATM   22  H   UNL     1      41.622 -11.627   0.691  1.00  0.00     0.133 HD
BRANCH  21  23
HETATM   23  C   UNL     1      40.224 -12.686  -0.218  1.00  0.00     0.046 A 
HETATM   24  C   UNL     1      40.099 -13.459  -1.389  1.00  0.00     0.096 A 
HETATM   25  C   UNL     1      38.889 -13.565  -2.073  1.00  0.00     0.039 A 
HETATM   26  C   UNL     1      37.759 -12.936  -1.560  1.00  0.00     0.003 A 
HETATM   27  C   UNL     1      37.846 -12.210  -0.371  1.00  0.00     0.002 A 
HETATM   28  C   UNL     1      39.068 -12.094   0.301  1.00  0.00     0.026 A 
BRANCH  24  29
HETATM   29  O   UNL     1      41.205 -14.101  -1.889  1.00  0.00    -0.288 OA
BRANCH  29  30
HETATM   30  C   UNL     1      40.888 -15.477  -2.090  1.00  0.00     0.505 C 
HETATM   31  F   UNL     1      41.550 -15.909  -3.195  1.00  0.00    -0.184 F 
HETATM   32  F   UNL     1      41.408 -16.161  -1.039  1.00  0.00    -0.184 F 
ENDBRANCH  29  30
ENDBRANCH  24  29
ENDBRANCH  21  23
ENDBRANCH   4  21
TORSDOF 5
ENDMDL
MODEL 6
REMARK VINA RESULT:      -9.0      2.204      2.818
REMARK  5 active torsions:
REMARK  status: ('A' for Active; 'I' for Inactive)
REMARK    1  A    between atoms: C_11  and  C_12 
REMARK    2  A    between atoms: C_15  and  N_16 
REMARK    3  A    between atoms: N_16  and  C_17 
REMARK    4  A    between atoms: C_18  and  O_19 
REMARK    5  A    between atoms: O_19  and  C_20 
ROOT
HETATM    1  C   UNL     1      40.632 -13.535   2.216  1.00  0.00     0.077 C 
HETATM    2  C   UNL     1      39.327 -13.905   1.532  1.00  0.00     0.023 C 
HETATM    3  N   UNL     1      38.243 -14.212   0.964  1.00  0.00    -0.096 N 
HETATM    4  C   UNL     1      41.239 -12.400   1.807  1.00  0.00     0.087 C 
ENDROOT
BRANCH   1   5
HETATM    5  C   UNL     1      41.199 -14.411   3.194  1.00  0.00     0.118 A 
HETATM    6  N   UNL     1      41.813 -15.557   2.945  1.00  0.00    -0.239 NA
HETATM    7  C   UNL     1      42.281 -16.155   4.112  1.00  0.00     0.081 A 
HETATM    8  C   UNL     1      42.958 -17.426   4.024  1.00  0.00     0.070 A 
HETATM    9  C   UNL     1      41.991 -15.460   5.264  1.00  0.00     0.084 A 
HETATM   10  C   UNL     1      43.884 -17.858   5.123  1.00  0.00     0.301 A 
HETATM   11  C   UNL     1      42.779 -18.240   2.965  1.00  0.00     0.034 A 
HETATM   12  O   UNL     1      44.459 -19.122   5.023  1.00  0.00    -0.274 OA
HETATM   13  O   UNL     1      44.144 -17.150   6.092  1.00  0.00    -0.259 OA
HETATM   14  C   UNL     1      44.240 -19.954   3.917  1.00  0.00     0.089 A 
HETATM   15  C   UNL     1      43.421 -19.539   2.875  1.00  0.00    -0.001 A 
HETATM   16  C   UNL     1      44.871 -21.194   3.908  1.00  0.00     0.038 A 
HETATM   17  C   UNL     1      43.230 -20.395   1.788  1.00  0.00     0.014 A 
HETATM   18  C   UNL     1      43.857 -21.645   1.763  1.00  0.00     0.001 A 
HETATM   19  C   UNL     1      44.676 -22.045   2.822  1.00  0.00     0.003 A 
HETATM   20  S   UNL     1      41.170 -14.013   4.890  1.00  0.00    -0.078 SA
ENDBRANCH   1   5
BRANCH   4  21
HETATM   21  N   UNL     1      40.792 -11.520   0.837  1.00  0.00    -0.266 NA
HETATM   22  H   UNL     1      39.862 -11.760   0.478  1.00  0.00     0.133 HD
BRANCH  21  23
HETATM   23  C   UNL     1      41.570 -11.136  -0.293  1.00  0.00     0.046 A 
HETATM   24  C   UNL     1      41.348 -11.795  -1.517  1.00  0.00     0.096 A 
HETATM   25  C   UNL     1      42.086 -11.491  -2.660  1.00  0.00     0.039 A 
HETATM   26  C   UNL     1      43.033 -10.472  -2.608  1.00  0.00     0.003 A 
HETATM   27  C   UNL     1      43.232  -9.767  -1.420  1.00  0.00     0.002 A 
HETATM   28  C   UNL     1      42.499 -10.090  -0.272  1.00  0.00     0.026 A 
BRANCH  24  29
HETATM   29  O   UNL     1      40.399 -12.786  -1.583  1.00  0.00    -0.288 OA
BRANCH  29  30
HETATM   30  C   UNL     1      41.041 -14.021  -1.894  1.00  0.00     0.505 C 
HETATM   31  F   UNL     1      41.914 -14.311  -0.895  1.00  0.00    -0.184 F 
HETATM   32  F   UNL     1      40.085 -14.983  -1.862  1.00  0.00    -0.184 F 
ENDBRANCH  29  30
ENDBRANCH  24  29
ENDBRANCH  21  23
ENDBRANCH   4  21
TORSDOF 5
ENDMDL
MODEL 7
REMARK VINA RESULT:      -9.0      3.517      8.265
REMARK  5 active torsions:
REMARK  status: ('A' for Active; 'I' for Inactive)
REMARK    1  A    between atoms: C_11  and  C_12 
REMARK    2  A    between atoms: C_15  and  N_16 
REMARK    3  A    between atoms: N_16  and  C_17 
REMARK    4  A    between atoms: C_18  and  O_19 
REMARK    5  A    between atoms: O_19  and  C_20 
ROOT
HETATM    1  C   UNL     1      43.132 -16.866   5.333  1.00  0.00     0.077 C 
HETATM    2  C   UNL     1      43.167 -16.982   6.848  1.00  0.00     0.023 C 
HETATM    3  N   UNL     1      43.195 -17.078   8.106  1.00  0.00    -0.096 N 
HETATM    4  C   UNL     1      43.862 -17.761   4.633  1.00  0.00     0.087 C 
ENDROOT
BRANCH   1   5
HETATM    5  C   UNL     1      42.407 -15.800   4.715  1.00  0.00     0.118 A 
HETATM    6  N   UNL     1      41.942 -15.796   3.475  1.00  0.00    -0.239 NA
HETATM    7  C   UNL     1      41.251 -14.622   3.188  1.00  0.00     0.081 A 
HETATM    8  C   UNL     1      40.695 -14.441   1.869  1.00  0.00     0.070 A 
HETATM    9  C   UNL     1      41.217 -13.714   4.222  1.00  0.00     0.084 A 
HETATM   10  C   UNL     1      39.566 -13.477   1.660  1.00  0.00     0.301 A 
HETATM   11  C   UNL     1      41.169 -15.129   0.812  1.00  0.00     0.034 A 
HETATM   12  O   UNL     1      39.110 -13.289   0.357  1.00  0.00    -0.274 OA
HETATM   13  O   UNL     1      39.041 -12.855   2.579  1.00  0.00    -0.259 OA
HETATM   14  C   UNL     1      39.636 -14.007  -0.726  1.00  0.00     0.089 A 
HETATM   15  C   UNL     1      40.649 -14.935  -0.530  1.00  0.00    -0.001 A 
HETATM   16  C   UNL     1      39.104 -13.754  -1.987  1.00  0.00     0.038 A 
HETATM   17  C   UNL     1      41.144 -15.633  -1.633  1.00  0.00     0.014 A 
HETATM   18  C   UNL     1      40.621 -15.392  -2.907  1.00  0.00     0.001 A 
HETATM   19  C   UNL     1      39.603 -14.452  -3.085  1.00  0.00     0.003 A 
HETATM   20  S   UNL     1      42.011 -14.348   5.592  1.00  0.00    -0.078 SA
ENDBRANCH   1   5
BRANCH   4  21
HETATM   21  N   UNL     1      44.631 -18.792   5.145  1.00  0.00    -0.266 NA
HETATM   22  H   UNL     1      45.617 -18.535   5.261  1.00  0.00     0.133 HD
BRANCH  21  23
HETATM   23  C   UNL     1      44.622 -20.115   4.616  1.00  0.00     0.046 A 
HETATM   24  C   UNL     1      44.609 -20.279   3.217  1.00  0.00     0.096 A 
HETATM   25  C   UNL     1      44.577 -21.542   2.627  1.00  0.00     0.039 A 
HETATM   26  C   UNL     1      44.611 -22.674   3.436  1.00  0.00     0.003 A 
HETATM   27  C   UNL     1      44.679 -22.536   4.823  1.00  0.00     0.002 A 
HETATM   28  C   UNL     1      44.695 -21.265   5.409  1.00  0.00     0.026 A 
BRANCH  24  29
HETATM   29  O   UNL     1      44.599 -19.168   2.412  1.00  0.00    -0.288 OA
BRANCH  29  30
HETATM   30  C   UNL     1      43.493 -19.257   1.516  1.00  0.00     0.505 C 
HETATM   31  F   UNL     1      42.348 -19.209   2.246  1.00  0.00    -0.184 F 
HETATM   32  F   UNL     1      43.509 -18.134   0.753  1.00  0.00    -0.184 F 
ENDBRANCH  29  30
ENDBRANCH  24  29
ENDBRANCH  21  23
ENDBRANCH   4  21
TORSDOF 5
ENDMDL
MODEL 8
REMARK VINA RESULT:      -9.0      4.282      9.259
REMARK  5 active torsions:
REMARK  status: ('A' for Active; 'I' for Inactive)
REMARK    1  A    between atoms: C_11  and  C_12 
REMARK    2  A    between atoms: C_15  and  N_16 
REMARK    3  A    between atoms: N_16  and  C_17 
REMARK    4  A    between atoms: C_18  and  O_19 
REMARK    5  A    between atoms: O_19  and  C_20 
ROOT
HETATM    1  C   UNL     1      42.894 -16.551   4.270  1.00  0.00     0.077 C 
HETATM    2  C   UNL     1      43.579 -16.142   5.564  1.00  0.00     0.023 C 
HETATM    3  N   UNL     1      44.147 -15.804   6.639  1.00  0.00    -0.096 N 
HETATM    4  C   UNL     1      43.362 -17.657   3.652  1.00  0.00     0.087 C 
ENDROOT
BRANCH   1   5
HETATM    5  C   UNL     1      41.854 -15.735   3.724  1.00  0.00     0.118 A 
HETATM    6  N   UNL     1      41.743 -15.366   2.458  1.00  0.00    -0.239 NA
HETATM    7  C   UNL     1      40.599 -14.601   2.243  1.00  0.00     0.081 A 
HETATM    8  C   UNL     1      40.334 -14.096   0.918  1.00  0.00     0.070 A 
HETATM    9  C   UNL     1      39.850 -14.368   3.373  1.00  0.00     0.084 A 
HETATM   10  C   UNL     1      38.937 -13.715   0.529  1.00  0.00     0.301 A 
HETATM   11  C   UNL     1      41.323 -13.962   0.012  1.00  0.00     0.034 A 
HETATM   12  O   UNL     1      38.745 -13.169  -0.738  1.00  0.00    -0.274 OA
HETATM   13  O   UNL     1      37.973 -13.860   1.277  1.00  0.00    -0.259 OA
HETATM   14  C   UNL     1      39.797 -13.025  -1.653  1.00  0.00     0.089 A 
HETATM   15  C   UNL     1      41.084 -13.420  -1.314  1.00  0.00    -0.001 A 
HETATM   16  C   UNL     1      39.499 -12.478  -2.898  1.00  0.00     0.038 A 
HETATM   17  C   UNL     1      42.104 -13.265  -2.254  1.00  0.00     0.014 A 
HETATM   18  C   UNL     1      41.822 -12.717  -3.510  1.00  0.00     0.001 A 
HETATM   19  C   UNL     1      40.521 -12.323  -3.832  1.00  0.00     0.003 A 
HETATM   20  S   UNL     1      40.546 -15.154   4.717  1.00  0.00    -0.078 SA
ENDBRANCH   1   5
BRANCH   4  21
HETATM   21  N   UNL     1      44.392 -18.477   4.078  1.00  0.00    -0.266 NA
HETATM   22  H   UNL     1      45.320 -18.096   3.866  1.00  0.00     0.133 HD
BRANCH  21  23
HETATM   23  C   UNL     1      44.457 -19.871   3.788  1.00  0.00     0.046 A 
HETATM   24  C   UNL     1      44.651 -20.770   4.854  1.00  0.00     0.096 A 
HETATM   25  C   UNL     1      44.748 -22.146   4.645  1.00  0.00     0.039 A 
HETATM   26  C   UNL     1      44.596 -22.652   3.358  1.00  0.00     0.003 A 
HETATM   27  C   UNL     1      44.346 -21.784   2.294  1.00  0.00     0.002 A 
HETATM   28  C   UNL     1      44.268 -20.403   2.509  1.00  0.00     0.026 A 
BRANCH  24  29
HETATM   29  O   UNL     1      44.780 -20.281   6.130  1.00  0.00    -0.288 OA
BRANCH  29  30
HETATM   30  C   UNL     1      43.520 -20.375   6.791  1.00  0.00     0.505 C 
HETATM   31  F   UNL     1      43.596 -21.369   7.713  1.00  0.00    -0.184 F 
HETATM   32  F   UNL     1      43.348 -19.221   7.484  1.00  0.00    -0.184 F 
ENDBRANCH  29  30
ENDBRANCH  24  29
ENDBRANCH  21  23
ENDBRANCH   4  21
TORSDOF 5
ENDMDL
MODEL 9
REMARK VINA RESULT:      -8.9      5.040      7.803
REMARK  5 active torsions:
REMARK  status: ('A' for Active; 'I' for Inactive)
REMARK    1  A    between atoms: C_11  and  C_12 
REMARK    2  A    between atoms: C_15  and  N_16 
REMARK    3  A    between atoms: N_16  and  C_17 
REMARK    4  A    between atoms: C_18  and  O_19 
REMARK    5  A    between atoms: O_19  and  C_20 
ROOT
HETATM    1  C   UNL     1      41.195 -11.140   6.426  1.00  0.00     0.077 C 
HETATM    2  C   UNL     1      40.094 -10.095   6.495  1.00  0.00     0.023 C 
HETATM    3  N   UNL     1      39.180  -9.227   6.552  1.00  0.00    -0.096 N 
HETATM    4  C   UNL     1      42.141 -11.099   7.389  1.00  0.00     0.087 C 
ENDROOT
BRANCH   1   5
HETATM    5  C   UNL     1      41.236 -12.064   5.334  1.00  0.00     0.118 A 
HETATM    6  N   UNL     1      41.685 -13.308   5.388  1.00  0.00    -0.239 NA
HETATM    7  C   UNL     1      41.557 -13.955   4.162  1.00  0.00     0.081 A 
HETATM    8  C   UNL     1      42.018 -15.316   4.038  1.00  0.00     0.070 A 
HETATM    9  C   UNL     1      41.027 -13.175   3.159  1.00  0.00     0.084 A 
HETATM   10  C   UNL     1      41.477 -16.192   2.947  1.00  0.00     0.301 A 
HETATM   11  C   UNL     1      42.930 -15.825   4.890  1.00  0.00     0.034 A 
HETATM   12  O   UNL     1      42.005 -17.476   2.828  1.00  0.00    -0.274 OA
HETATM   13  O   UNL     1      40.604 -15.823   2.167  1.00  0.00    -0.259 OA
HETATM   14  C   UNL     1      42.966 -17.970   3.720  1.00  0.00     0.089 A 
HETATM   15  C   UNL     1      43.435 -17.179   4.760  1.00  0.00    -0.001 A 
HETATM   16  C   UNL     1      43.421 -19.271   3.522  1.00  0.00     0.038 A 
HETATM   17  C   UNL     1      44.390 -17.709   5.630  1.00  0.00     0.014 A 
HETATM   18  C   UNL     1      44.859 -19.014   5.445  1.00  0.00     0.001 A 
HETATM   19  C   UNL     1      44.376 -19.794   4.392  1.00  0.00     0.003 A 
HETATM   20  S   UNL     1      40.632 -11.629   3.760  1.00  0.00    -0.078 SA
ENDBRANCH   1   5
BRANCH   4  21
HETATM   21  N   UNL     1      42.211 -10.214   8.451  1.00  0.00    -0.266 NA
HETATM   22  H   UNL     1      42.810  -9.405   8.258  1.00  0.00     0.133 HD
BRANCH  21  23
HETATM   23  C   UNL     1      42.498 -10.615   9.788  1.00  0.00     0.046 A 
HETATM   24  C   UNL     1      43.845 -10.753  10.174  1.00  0.00     0.096 A 
HETATM   25  C   UNL     1      44.203 -11.164  11.457  1.00  0.00     0.039 A 
HETATM   26  C   UNL     1      43.208 -11.393  12.402  1.00  0.00     0.003 A 
HETATM   27  C   UNL     1      41.867 -11.209  12.059  1.00  0.00     0.002 A 
HETATM   28  C   UNL     1      41.515 -10.813  10.763  1.00  0.00     0.026 A 
BRANCH  24  29
HETATM   29  O   UNL     1      44.834 -10.506   9.254  1.00  0.00    -0.288 OA
BRANCH  29  30
HETATM   30  C   UNL     1      45.737 -11.611   9.238  1.00  0.00     0.505 C 
HETATM   31  F   UNL     1      45.160 -12.622   8.539  1.00  0.00    -0.184 F 
HETATM   32  F   UNL     1      46.825 -11.223   8.526  1.00  0.00    -0.184 F 
ENDBRANCH  29  30
ENDBRANCH  24  29
ENDBRANCH  21  23
ENDBRANCH   4  21
TORSDOF 5
ENDMDL
MODEL 10
REMARK VINA RESULT:      -8.7      3.975      8.286
REMARK  5 active torsions:
REMARK  status: ('A' for Active; 'I' for Inactive)
REMARK    1  A    between atoms: C_11  and  C_12 
REMARK    2  A    between atoms: C_15  and  N_16 
REMARK    3  A    between atoms: N_16  and  C_17 
REMARK    4  A    between atoms: C_18  and  O_19 
REMARK    5  A    between atoms: O_19  and  C_20 
ROOT
HETATM    1  C   UNL     1      43.827 -17.208   6.168  1.00  0.00     0.077 C 
HETATM    2  C   UNL     1      43.907 -17.722   7.596  1.00  0.00     0.023 C 
HETATM    3  N   UNL     1      43.973 -18.149   8.782  1.00  0.00    -0.096 N 
HETATM    4  C   UNL     1      44.283 -18.027   5.195  1.00  0.00     0.087 C 
ENDROOT
BRANCH   1   5
HETATM    5  C   UNL     1      43.352 -15.884   5.911  1.00  0.00     0.118 A 
HETATM    6  N   UNL     1      42.323 -15.565   5.142  1.00  0.00    -0.239 NA
HETATM    7  C   UNL     1      42.098 -14.192   5.125  1.00  0.00     0.081 A 
HETATM    8  C   UNL     1      41.023 -13.668   4.317  1.00  0.00     0.070 A 
HETATM    9  C   UNL     1      42.990 -13.460   5.875  1.00  0.00     0.084 A 
HETATM   10  C   UNL     1      40.437 -12.324   4.633  1.00  0.00     0.301 A 
HETATM   11  C   UNL     1      40.527 -14.368   3.278  1.00  0.00     0.034 A 
HETATM   12  O   UNL     1      39.450 -11.834   3.782  1.00  0.00    -0.274 OA
HETATM   13  O   UNL     1      40.795 -11.650   5.595  1.00  0.00    -0.259 OA
HETATM   14  C   UNL     1      38.966 -12.579   2.697  1.00  0.00     0.089 A 
HETATM   15  C   UNL     1      39.472 -13.843   2.429  1.00  0.00    -0.001 A 
HETATM   16  C   UNL     1      37.969 -12.004   1.914  1.00  0.00     0.038 A 
HETATM   17  C   UNL     1      38.962 -14.555   1.342  1.00  0.00     0.014 A 
HETATM   18  C   UNL     1      37.960 -13.993   0.545  1.00  0.00     0.001 A 
HETATM   19  C   UNL     1      37.465 -12.718   0.829  1.00  0.00     0.003 A 
HETATM   20  S   UNL     1      44.097 -14.497   6.656  1.00  0.00    -0.078 SA
ENDBRANCH   1   5
BRANCH   4  21
HETATM   21  N   UNL     1      44.803 -19.300   5.354  1.00  0.00    -0.266 NA
HETATM   22  H   UNL     1      45.793 -19.296   5.623  1.00  0.00     0.133 HD
BRANCH  21  23
HETATM   23  C   UNL     1      44.656 -20.334   4.385  1.00  0.00     0.046 A 
HETATM   24  C   UNL     1      44.339 -19.974   3.061  1.00  0.00     0.096 A 
HETATM   25  C   UNL     1      44.157 -20.931   2.063  1.00  0.00     0.039 A 
HETATM   26  C   UNL     1      44.344 -22.275   2.367  1.00  0.00     0.003 A 
HETATM   27  C   UNL     1      44.712 -22.652   3.659  1.00  0.00     0.002 A 
HETATM   28  C   UNL     1      44.877 -21.687   4.660  1.00  0.00     0.026 A 
BRANCH  24  29
HETATM   29  O   UNL     1      44.176 -18.647   2.748  1.00  0.00    -0.288 OA
BRANCH  29  30
HETATM   30  C   UNL     1      43.157 -18.528   1.757  1.00  0.00     0.505 C 
HETATM   31  F   UNL     1      42.111 -17.854   2.300  1.00  0.00    -0.184 F 
HETATM   32  F   UNL     1      43.653 -17.738   0.771  1.00  0.00    -0.184 F 
ENDBRANCH  29  30
ENDBRANCH  24  29
ENDBRANCH  21  23
ENDBRANCH   4  21
TORSDOF 5
ENDMDL
