MODEL 1
REMARK VINA RESULT:      -8.4      0.000      0.000
REMARK  6 active torsions:
REMARK  status: ('A' for Active; 'I' for Inactive)
REMARK    1  A    between atoms: C_2  and  C_3 
REMARK    2  A    between atoms: C_8  and  C_9 
REMARK    3  A    between atoms: C_9  and  N_10 
REMARK    4  A    between atoms: C_12  and  C_13 
REMARK    5  A    between atoms: C_13  and  N_14 
REMARK       I    between atoms: N_14  and  C_15 
REMARK    6  A    between atoms: C_15  and  C_16 
ROOT
HETATM    1  N   UNL     1      43.816 -13.777   6.112  1.00  0.00    -0.061 N 
HETATM    2  H   UNL     1      44.424 -13.095   5.647  1.00  0.00     0.280 HD
HETATM    3  C   UNL     1      43.958 -15.036   5.246  1.00  0.00     0.206 C 
HETATM    4  C   UNL     1      43.525 -14.657   3.818  1.00  0.00     0.035 C 
HETATM    5  C   UNL     1      42.121 -14.067   3.764  1.00  0.00     0.004 C 
HETATM    6  C   UNL     1      41.998 -12.866   4.692  1.00  0.00     0.028 C 
HETATM    7  C   UNL     1      42.429 -13.187   6.116  1.00  0.00     0.236 C 
ENDROOT
BRANCH   1   8
HETATM    8  C   UNL     1      44.391 -13.877   7.513  1.00  0.00     0.277 C 
BRANCH   8   9
HETATM    9  C   UNL     1      45.426 -12.862   7.824  1.00  0.00     0.012 A 
HETATM   10  C   UNL     1      45.440 -11.819   8.812  1.00  0.00     0.071 A 
HETATM   11  N   UNL     1      46.585 -11.127   8.740  1.00  0.00    -0.178 NA
HETATM   12  N   UNL     1      47.294 -11.697   7.765  1.00  0.00    -0.288 N 
HETATM   13  H   UNL     1      48.213 -11.319   7.546  1.00  0.00     0.188 HD
HETATM   14  C   UNL     1      46.651 -12.750   7.193  1.00  0.00     0.120 A 
BRANCH  10  15
HETATM   15  C   UNL     1      44.419 -11.428   9.887  1.00  0.00    -0.004 C 
HETATM   16  C   UNL     1      44.172 -12.588  10.886  1.00  0.00     0.021 C 
HETATM   17  C   UNL     1      43.071 -11.083   9.226  1.00  0.00     0.021 C 
HETATM   18  C   UNL     1      44.893 -10.224  10.721  1.00  0.00     0.021 C 
ENDBRANCH  10  15
ENDBRANCH   8   9
ENDBRANCH   1   8
BRANCH   3  19
HETATM   19  C   UNL     1      43.179 -16.256   5.819  1.00  0.00     0.156 C 
BRANCH  19  20
HETATM   20  N   UNL     1      43.154 -17.406   4.934  1.00  0.00    -0.355 N 
HETATM   21  C   UNL     1      44.138 -18.373   5.002  1.00  0.00     0.251 C 
HETATM   22  O   UNL     1      45.043 -18.322   5.827  1.00  0.00    -0.268 OA
HETATM   23  H   UNL     1      42.496 -17.429   4.162  1.00  0.00     0.162 HD
BRANCH  21  24
HETATM   24  C   UNL     1      44.103 -19.421   3.951  1.00  0.00     0.032 A 
HETATM   25  C   UNL     1      43.445 -19.135   2.749  1.00  0.00     0.017 A 
HETATM   26  C   UNL     1      43.346 -20.113   1.759  1.00  0.00     0.001 A 
HETATM   27  C   UNL     1      43.916 -21.370   1.961  1.00  0.00     0.000 A 
HETATM   28  C   UNL     1      44.593 -21.651   3.149  1.00  0.00     0.001 A 
HETATM   29  C   UNL     1      44.689 -20.678   4.147  1.00  0.00     0.017 A 
ENDBRANCH  21  24
ENDBRANCH  19  20
ENDBRANCH   3  19
TORSDOF 6
ENDMDL
MODEL 2
REMARK VINA RESULT:      -8.1      3.012      4.218
REMARK  6 active torsions:
REMARK  status: ('A' for Active; 'I' for Inactive)
REMARK    1  A    between atoms: C_2  and  C_3 
REMARK    2  A    between atoms: C_8  and  C_9 
REMARK    3  A    between atoms: C_9  and  N_10 
REMARK    4  A    between atoms: C_12  and  C_13 
REMARK    5  A    between atoms: C_13  and  N_14 
REMARK       I    between atoms: N_14  and  C_15 
REMARK    6  A    between atoms: C_15  and  C_16 
ROOT
HETATM    1  N   UNL     1      41.325 -14.614   3.781  1.00  0.00    -0.061 N 
HETATM    2  H   UNL     1      41.900 -13.769   3.869  1.00  0.00     0.280 HD
HETATM    3  C   UNL     1      41.888 -15.303   2.531  1.00  0.00     0.206 C 
HETATM    4  C   UNL     1      41.752 -14.309   1.364  1.00  0.00     0.035 C 
HETATM    5  C   UNL     1      40.321 -13.821   1.167  1.00  0.00     0.004 C 
HETATM    6  C   UNL     1      39.772 -13.212   2.450  1.00  0.00     0.028 C 
HETATM    7  C   UNL     1      39.898 -14.153   3.640  1.00  0.00     0.236 C 
ENDROOT
BRANCH   1   8
HETATM    8  C   UNL     1      41.555 -15.344   5.091  1.00  0.00     0.277 C 
BRANCH   8   9
HETATM    9  C   UNL     1      42.791 -14.943   5.808  1.00  0.00     0.012 A 
HETATM   10  C   UNL     1      43.700 -15.720   6.603  1.00  0.00     0.071 A 
HETATM   11  N   UNL     1      44.691 -14.945   7.066  1.00  0.00    -0.178 NA
HETATM   12  N   UNL     1      44.452 -13.724   6.586  1.00  0.00    -0.288 N 
HETATM   13  H   UNL     1      45.098 -12.974   6.821  1.00  0.00     0.188 HD
HETATM   14  C   UNL     1      43.334 -13.671   5.814  1.00  0.00     0.120 A 
BRANCH  10  15
HETATM   15  C   UNL     1      43.721 -17.213   6.950  1.00  0.00    -0.004 C 
HETATM   16  C   UNL     1      43.453 -17.451   8.459  1.00  0.00     0.021 C 
HETATM   17  C   UNL     1      45.104 -17.807   6.620  1.00  0.00     0.021 C 
HETATM   18  C   UNL     1      42.641 -17.998   6.184  1.00  0.00     0.021 C 
ENDBRANCH  10  15
ENDBRANCH   8   9
ENDBRANCH   1   8
BRANCH   3  19
HETATM   19  C   UNL     1      41.218 -16.679   2.246  1.00  0.00     0.156 C 
BRANCH  19  20
HETATM   20  N   UNL     1      41.994 -17.817   2.704  1.00  0.00    -0.355 N 
HETATM   21  C   UNL     1      43.020 -18.330   1.935  1.00  0.00     0.251 C 
HETATM   22  O   UNL     1      43.342 -17.830   0.863  1.00  0.00    -0.268 OA
HETATM   23  H   UNL     1      41.689 -18.333   3.522  1.00  0.00     0.162 HD
BRANCH  21  24
HETATM   24  C   UNL     1      43.644 -19.586   2.424  1.00  0.00     0.032 A 
HETATM   25  C   UNL     1      43.459 -20.754   1.674  1.00  0.00     0.017 A 
HETATM   26  C   UNL     1      43.985 -21.963   2.129  1.00  0.00     0.001 A 
HETATM   27  C   UNL     1      44.707 -22.005   3.322  1.00  0.00     0.000 A 
HETATM   28  C   UNL     1      44.912 -20.838   4.060  1.00  0.00     0.001 A 
HETATM   29  C   UNL     1      44.383 -19.625   3.613  1.00  0.00     0.017 A 
ENDBRANCH  21  24
ENDBRANCH  19  20
ENDBRANCH   3  19
TORSDOF 6
ENDMDL
MODEL 3
REMARK VINA RESULT:      -8.1      5.868      8.379
REMARK  6 active torsions:
REMARK  status: ('A' for Active; 'I' for Inactive)
REMARK    1  A    between atoms: C_2  and  C_3 
REMARK    2  A    between atoms: C_8  and  C_9 
REMARK    3  A    between atoms: C_9  and  N_10 
REMARK    4  A    between atoms: C_12  and  C_13 
REMARK    5  A    between atoms: C_13  and  N_14 
REMARK       I    between atoms: N_14  and  C_15 
REMARK    6  A    between atoms: C_15  and  C_16 
ROOT
HETATM    1  N   UNL     1      40.918 -15.216   0.428  1.00  0.00    -0.061 N 
HETATM    2  H   UNL     1      39.900 -15.201   0.307  1.00  0.00     0.280 HD
HETATM    3  C   UNL     1      41.212 -16.672   0.817  1.00  0.00     0.206 C 
HETATM    4  C   UNL     1      40.408 -16.972   2.095  1.00  0.00     0.035 C 
HETATM    5  C   UNL     1      40.708 -15.994   3.225  1.00  0.00     0.004 C 
HETATM    6  C   UNL     1      40.477 -14.556   2.777  1.00  0.00     0.028 C 
HETATM    7  C   UNL     1      41.240 -14.214   1.506  1.00  0.00     0.236 C 
ENDROOT
BRANCH   1   8
HETATM    8  C   UNL     1      41.449 -14.780  -0.925  1.00  0.00     0.277 C 
BRANCH   8   9
HETATM    9  C   UNL     1      40.473 -14.906  -2.035  1.00  0.00     0.012 A 
HETATM   10  C   UNL     1      39.236 -14.217  -2.270  1.00  0.00     0.071 A 
HETATM   11  N   UNL     1      38.671 -14.649  -3.406  1.00  0.00    -0.178 NA
HETATM   12  N   UNL     1      39.505 -15.565  -3.900  1.00  0.00    -0.288 N 
HETATM   13  H   UNL     1      39.260 -16.024  -4.775  1.00  0.00     0.188 HD
HETATM   14  C   UNL     1      40.607 -15.747  -3.125  1.00  0.00     0.120 A 
BRANCH  10  15
HETATM   15  C   UNL     1      38.528 -13.108  -1.482  1.00  0.00    -0.004 C 
HETATM   16  C   UNL     1      37.864 -13.660  -0.194  1.00  0.00     0.021 C 
HETATM   17  C   UNL     1      37.420 -12.477  -2.347  1.00  0.00     0.021 C 
HETATM   18  C   UNL     1      39.505 -12.006  -1.033  1.00  0.00     0.021 C 
ENDBRANCH  10  15
ENDBRANCH   8   9
ENDBRANCH   1   8
BRANCH   3  19
HETATM   19  C   UNL     1      42.734 -16.962   0.969  1.00  0.00     0.156 C 
BRANCH  19  20
HETATM   20  N   UNL     1      43.032 -18.288   1.477  1.00  0.00    -0.355 N 
HETATM   21  C   UNL     1      43.688 -18.454   2.680  1.00  0.00     0.251 C 
HETATM   22  O   UNL     1      44.011 -17.502   3.382  1.00  0.00    -0.268 OA
HETATM   23  H   UNL     1      42.891 -19.096   0.879  1.00  0.00     0.162 HD
BRANCH  21  24
HETATM   24  C   UNL     1      44.080 -19.843   3.029  1.00  0.00     0.032 A 
HETATM   25  C   UNL     1      43.936 -20.839   2.056  1.00  0.00     0.017 A 
HETATM   26  C   UNL     1      44.243 -22.164   2.364  1.00  0.00     0.001 A 
HETATM   27  C   UNL     1      44.710 -22.494   3.637  1.00  0.00     0.000 A 
HETATM   28  C   UNL     1      44.878 -21.500   4.602  1.00  0.00     0.001 A 
HETATM   29  C   UNL     1      44.565 -20.172   4.302  1.00  0.00     0.017 A 
ENDBRANCH  21  24
ENDBRANCH  19  20
ENDBRANCH   3  19
TORSDOF 6
ENDMDL
MODEL 4
REMARK VINA RESULT:      -8.0      3.167      5.005
REMARK  6 active torsions:
REMARK  status: ('A' for Active; 'I' for Inactive)
REMARK    1  A    between atoms: C_2  and  C_3 
REMARK    2  A    between atoms: C_8  and  C_9 
REMARK    3  A    between atoms: C_9  and  N_10 
REMARK    4  A    between atoms: C_12  and  C_13 
REMARK    5  A    between atoms: C_13  and  N_14 
REMARK       I    between atoms: N_14  and  C_15 
REMARK    6  A    between atoms: C_15  and  C_16 
ROOT
HETATM    1  N   UNL     1      40.453 -14.802   2.274  1.00  0.00    -0.061 N 
HETATM    2  H   UNL     1      40.895 -13.887   2.410  1.00  0.00     0.280 HD
HETATM    3  C   UNL     1      41.490 -15.584   1.455  1.00  0.00     0.206 C 
HETATM    4  C   UNL     1      41.739 -14.791   0.160  1.00  0.00     0.035 C 
HETATM    5  C   UNL     1      40.459 -14.522  -0.623  1.00  0.00     0.004 C 
HETATM    6  C   UNL     1      39.428 -13.813   0.244  1.00  0.00     0.028 C 
HETATM    7  C   UNL     1      39.157 -14.552   1.546  1.00  0.00     0.236 C 
ENDROOT
BRANCH   1   8
HETATM    8  C   UNL     1      40.220 -15.304   3.686  1.00  0.00     0.277 C 
BRANCH   8   9
HETATM    9  C   UNL     1      40.581 -14.334   4.749  1.00  0.00     0.012 A 
HETATM   10  C   UNL     1      41.862 -13.991   5.301  1.00  0.00     0.071 A 
HETATM   11  N   UNL     1      41.723 -13.058   6.252  1.00  0.00    -0.178 NA
HETATM   12  N   UNL     1      40.418 -12.789   6.310  1.00  0.00    -0.288 N 
HETATM   13  H   UNL     1      40.094 -12.094   6.978  1.00  0.00     0.188 HD
HETATM   14  C   UNL     1      39.691 -13.516   5.420  1.00  0.00     0.120 A 
BRANCH  10  15
HETATM   15  C   UNL     1      43.275 -14.481   4.962  1.00  0.00    -0.004 C 
HETATM   16  C   UNL     1      43.326 -16.025   4.828  1.00  0.00     0.021 C 
HETATM   17  C   UNL     1      44.251 -14.076   6.083  1.00  0.00     0.021 C 
HETATM   18  C   UNL     1      43.778 -13.908   3.625  1.00  0.00     0.021 C 
ENDBRANCH  10  15
ENDBRANCH   8   9
ENDBRANCH   1   8
BRANCH   3  19
HETATM   19  C   UNL     1      41.069 -17.061   1.199  1.00  0.00     0.156 C 
BRANCH  19  20
HETATM   20  N   UNL     1      41.816 -18.029   1.980  1.00  0.00    -0.355 N 
HETATM   21  C   UNL     1      43.101 -18.386   1.623  1.00  0.00     0.251 C 
HETATM   22  O   UNL     1      43.675 -17.880   0.665  1.00  0.00    -0.268 OA
HETATM   23  H   UNL     1      41.343 -18.558   2.705  1.00  0.00     0.162 HD
BRANCH  21  24
HETATM   24  C   UNL     1      43.714 -19.496   2.396  1.00  0.00     0.032 A 
HETATM   25  C   UNL     1      43.696 -20.782   1.841  1.00  0.00     0.017 A 
HETATM   26  C   UNL     1      44.214 -21.858   2.560  1.00  0.00     0.001 A 
HETATM   27  C   UNL     1      44.765 -21.651   3.825  1.00  0.00     0.000 A 
HETATM   28  C   UNL     1      44.806 -20.367   4.371  1.00  0.00     0.001 A 
HETATM   29  C   UNL     1      44.282 -19.286   3.659  1.00  0.00     0.017 A 
ENDBRANCH  21  24
ENDBRANCH  19  20
ENDBRANCH   3  19
TORSDOF 6
ENDMDL
MODEL 5
REMARK VINA RESULT:      -8.0      4.174      7.797
REMARK  6 active torsions:
REMARK  status: ('A' for Active; 'I' for Inactive)
REMARK    1  A    between atoms: C_2  and  C_3 
REMARK    2  A    between atoms: C_8  and  C_9 
REMARK    3  A    between atoms: C_9  and  N_10 
REMARK    4  A    between atoms: C_12  and  C_13 
REMARK    5  A    between atoms: C_13  and  N_14 
REMARK       I    between atoms: N_14  and  C_15 
REMARK    6  A    between atoms: C_15  and  C_16 
ROOT
HETATM    1  N   UNL     1      41.635 -14.526   2.279  1.00  0.00    -0.061 N 
HETATM    2  H   UNL     1      40.670 -14.413   2.606  1.00  0.00     0.280 HD
HETATM    3  C   UNL     1      42.203 -15.613   3.202  1.00  0.00     0.206 C 
HETATM    4  C   UNL     1      42.071 -15.097   4.646  1.00  0.00     0.035 C 
HETATM    5  C   UNL     1      42.742 -13.744   4.854  1.00  0.00     0.004 C 
HETATM    6  C   UNL     1      42.206 -12.712   3.871  1.00  0.00     0.028 C 
HETATM    7  C   UNL     1      42.301 -13.183   2.426  1.00  0.00     0.236 C 
ENDROOT
BRANCH   1   8
HETATM    8  C   UNL     1      41.478 -14.921   0.822  1.00  0.00     0.277 C 
BRANCH   8   9
HETATM    9  C   UNL     1      40.174 -14.544   0.222  1.00  0.00     0.012 A 
HETATM   10  C   UNL     1      39.835 -14.208  -1.132  1.00  0.00     0.071 A 
HETATM   11  N   UNL     1      38.528 -13.928  -1.228  1.00  0.00    -0.178 NA
HETATM   12  N   UNL     1      38.031 -14.088  -0.001  1.00  0.00    -0.288 N 
HETATM   13  H   UNL     1      37.038 -13.925   0.147  1.00  0.00     0.188 HD
HETATM   14  C   UNL     1      38.973 -14.471   0.902  1.00  0.00     0.120 A 
BRANCH  10  15
HETATM   15  C   UNL     1      40.686 -14.156  -2.407  1.00  0.00    -0.004 C 
HETATM   16  C   UNL     1      39.913 -13.503  -3.581  1.00  0.00     0.021 C 
HETATM   17  C   UNL     1      41.070 -15.586  -2.836  1.00  0.00     0.021 C 
HETATM   18  C   UNL     1      41.968 -13.328  -2.211  1.00  0.00     0.021 C 
ENDBRANCH  10  15
ENDBRANCH   8   9
ENDBRANCH   1   8
BRANCH   3  19
HETATM   19  C   UNL     1      43.658 -16.023   2.829  1.00  0.00     0.156 C 
BRANCH  19  20
HETATM   20  N   UNL     1      43.974 -17.407   3.131  1.00  0.00    -0.355 N 
HETATM   21  C   UNL     1      43.929 -18.374   2.147  1.00  0.00     0.251 C 
HETATM   22  O   UNL     1      43.659 -18.105   0.981  1.00  0.00    -0.268 OA
HETATM   23  H   UNL     1      44.085 -17.695   4.097  1.00  0.00     0.162 HD
BRANCH  21  24
HETATM   24  C   UNL     1      44.117 -19.777   2.595  1.00  0.00     0.032 A 
HETATM   25  C   UNL     1      44.595 -20.002   3.891  1.00  0.00     0.017 A 
HETATM   26  C   UNL     1      44.835 -21.305   4.329  1.00  0.00     0.001 A 
HETATM   27  C   UNL     1      44.583 -22.383   3.480  1.00  0.00     0.000 A 
HETATM   28  C   UNL     1      44.084 -22.163   2.195  1.00  0.00     0.001 A 
HETATM   29  C   UNL     1      43.849 -20.861   1.749  1.00  0.00     0.017 A 
ENDBRANCH  21  24
ENDBRANCH  19  20
ENDBRANCH   3  19
TORSDOF 6
ENDMDL
MODEL 6
REMARK VINA RESULT:      -7.9      2.867      5.537
REMARK  6 active torsions:
REMARK  status: ('A' for Active; 'I' for Inactive)
REMARK    1  A    between atoms: C_2  and  C_3 
REMARK    2  A    between atoms: C_8  and  C_9 
REMARK    3  A    between atoms: C_9  and  N_10 
REMARK    4  A    between atoms: C_12  and  C_13 
REMARK    5  A    between atoms: C_13  and  N_14 
REMARK       I    between atoms: N_14  and  C_15 
REMARK    6  A    between atoms: C_15  and  C_16 
ROOT
HETATM    1  N   UNL     1      41.897 -14.908   6.241  1.00  0.00    -0.061 N 
HETATM    2  H   UNL     1      41.631 -14.821   7.227  1.00  0.00     0.280 HD
HETATM    3  C   UNL     1      42.838 -16.120   6.226  1.00  0.00     0.206 C 
HETATM    4  C   UNL     1      44.003 -15.802   7.180  1.00  0.00     0.035 C 
HETATM    5  C   UNL     1      44.718 -14.503   6.826  1.00  0.00     0.004 C 
HETATM    6  C   UNL     1      43.739 -13.337   6.776  1.00  0.00     0.028 C 
HETATM    7  C   UNL     1      42.559 -13.610   5.855  1.00  0.00     0.236 C 
ENDROOT
BRANCH   1   8
HETATM    8  C   UNL     1      40.572 -15.100   5.526  1.00  0.00     0.277 C 
BRANCH   8   9
HETATM    9  C   UNL     1      39.931 -13.840   5.075  1.00  0.00     0.012 A 
HETATM   10  C   UNL     1      39.750 -13.308   3.754  1.00  0.00     0.071 A 
HETATM   11  N   UNL     1      39.115 -12.129   3.810  1.00  0.00    -0.178 NA
HETATM   12  N   UNL     1      38.877 -11.906   5.103  1.00  0.00    -0.288 N 
HETATM   13  H   UNL     1      38.393 -11.052   5.369  1.00  0.00     0.188 HD
HETATM   14  C   UNL     1      39.332 -12.907   5.903  1.00  0.00     0.120 A 
BRANCH  10  15
HETATM   15  C   UNL     1      40.123 -13.869   2.376  1.00  0.00    -0.004 C 
HETATM   16  C   UNL     1      39.450 -15.242   2.119  1.00  0.00     0.021 C 
HETATM   17  C   UNL     1      41.648 -14.070   2.290  1.00  0.00     0.021 C 
HETATM   18  C   UNL     1      39.672 -12.940   1.235  1.00  0.00     0.021 C 
ENDBRANCH  10  15
ENDBRANCH   8   9
ENDBRANCH   1   8
BRANCH   3  19
HETATM   19  C   UNL     1      43.307 -16.505   4.793  1.00  0.00     0.156 C 
BRANCH  19  20
HETATM   20  N   UNL     1      43.680 -17.900   4.651  1.00  0.00    -0.355 N 
HETATM   21  C   UNL     1      43.941 -18.441   3.407  1.00  0.00     0.251 C 
HETATM   22  O   UNL     1      43.905 -17.766   2.384  1.00  0.00    -0.268 OA
HETATM   23  H   UNL     1      43.607 -18.521   5.450  1.00  0.00     0.162 HD
BRANCH  21  24
HETATM   24  C   UNL     1      44.160 -19.909   3.361  1.00  0.00     0.032 A 
HETATM   25  C   UNL     1      44.584 -20.554   4.529  1.00  0.00     0.017 A 
HETATM   26  C   UNL     1      44.851 -21.923   4.510  1.00  0.00     0.001 A 
HETATM   27  C   UNL     1      44.681 -22.651   3.332  1.00  0.00     0.000 A 
HETATM   28  C   UNL     1      44.236 -22.014   2.172  1.00  0.00     0.001 A 
HETATM   29  C   UNL     1      43.974 -20.643   2.183  1.00  0.00     0.017 A 
ENDBRANCH  21  24
ENDBRANCH  19  20
ENDBRANCH   3  19
TORSDOF 6
ENDMDL
MODEL 7
REMARK VINA RESULT:      -7.7      2.682      3.864
REMARK  6 active torsions:
REMARK  status: ('A' for Active; 'I' for Inactive)
REMARK    1  A    between atoms: C_2  and  C_3 
REMARK    2  A    between atoms: C_8  and  C_9 
REMARK    3  A    between atoms: C_9  and  N_10 
REMARK    4  A    between atoms: C_12  and  C_13 
REMARK    5  A    between atoms: C_13  and  N_14 
REMARK       I    between atoms: N_14  and  C_15 
REMARK    6  A    between atoms: C_15  and  C_16 
ROOT
HETATM    1  N   UNL     1      41.816 -14.528   6.380  1.00  0.00    -0.061 N 
HETATM    2  H   UNL     1      41.690 -14.441   7.394  1.00  0.00     0.280 HD
HETATM    3  C   UNL     1      41.820 -16.046   6.146  1.00  0.00     0.206 C 
HETATM    4  C   UNL     1      42.967 -16.632   6.989  1.00  0.00     0.035 C 
HETATM    5  C   UNL     1      44.315 -15.990   6.681  1.00  0.00     0.004 C 
HETATM    6  C   UNL     1      44.250 -14.478   6.851  1.00  0.00     0.028 C 
HETATM    7  C   UNL     1      43.120 -13.851   6.047  1.00  0.00     0.236 C 
ENDROOT
BRANCH   1   8
HETATM    8  C   UNL     1      40.628 -13.780   5.803  1.00  0.00     0.277 C 
BRANCH   8   9
HETATM    9  C   UNL     1      40.975 -12.503   5.134  1.00  0.00     0.012 A 
HETATM   10  C   UNL     1      41.095 -11.175   5.666  1.00  0.00     0.071 A 
HETATM   11  N   UNL     1      41.428 -10.313   4.696  1.00  0.00    -0.178 NA
HETATM   12  N   UNL     1      41.537 -11.042   3.584  1.00  0.00    -0.288 N 
HETATM   13  H   UNL     1      41.789 -10.573   2.718  1.00  0.00     0.188 HD
HETATM   14  C   UNL     1      41.290 -12.363   3.795  1.00  0.00     0.120 A 
BRANCH  10  15
HETATM   15  C   UNL     1      40.941 -10.638   7.094  1.00  0.00    -0.004 C 
HETATM   16  C   UNL     1      39.724 -11.276   7.814  1.00  0.00     0.021 C 
HETATM   17  C   UNL     1      40.718  -9.114   7.058  1.00  0.00     0.021 C 
HETATM   18  C   UNL     1      42.174 -10.946   7.962  1.00  0.00     0.021 C 
ENDBRANCH  10  15
ENDBRANCH   8   9
ENDBRANCH   1   8
BRANCH   3  19
HETATM   19  C   UNL     1      41.912 -16.425   4.639  1.00  0.00     0.156 C 
BRANCH  19  20
HETATM   20  N   UNL     1      42.412 -17.766   4.400  1.00  0.00    -0.355 N 
HETATM   21  C   UNL     1      43.407 -17.996   3.471  1.00  0.00     0.251 C 
HETATM   22  O   UNL     1      43.932 -17.084   2.842  1.00  0.00    -0.268 OA
HETATM   23  H   UNL     1      41.928 -18.560   4.808  1.00  0.00     0.162 HD
BRANCH  21  24
HETATM   24  C   UNL     1      43.733 -19.418   3.194  1.00  0.00     0.032 A 
HETATM   25  C   UNL     1      44.451 -20.135   4.159  1.00  0.00     0.017 A 
HETATM   26  C   UNL     1      44.822 -21.456   3.912  1.00  0.00     0.001 A 
HETATM   27  C   UNL     1      44.463 -22.068   2.710  1.00  0.00     0.000 A 
HETATM   28  C   UNL     1      43.728 -21.363   1.756  1.00  0.00     0.001 A 
HETATM   29  C   UNL     1      43.360 -20.037   1.995  1.00  0.00     0.017 A 
ENDBRANCH  21  24
ENDBRANCH  19  20
ENDBRANCH   3  19
TORSDOF 6
ENDMDL
MODEL 8
REMARK VINA RESULT:      -7.6      3.248      4.734
REMARK  6 active torsions:
REMARK  status: ('A' for Active; 'I' for Inactive)
REMARK    1  A    between atoms: C_2  and  C_3 
REMARK    2  A    between atoms: C_8  and  C_9 
REMARK    3  A    between atoms: C_9  and  N_10 
REMARK    4  A    between atoms: C_12  and  C_13 
REMARK    5  A    between atoms: C_13  and  N_14 
REMARK       I    between atoms: N_14  and  C_15 
REMARK    6  A    between atoms: C_15  and  C_16 
ROOT
HETATM    1  N   UNL     1      40.566 -15.084   2.366  1.00  0.00    -0.061 N 
HETATM    2  H   UNL     1      40.911 -14.141   2.572  1.00  0.00     0.280 HD
HETATM    3  C   UNL     1      41.553 -15.606   1.312  1.00  0.00     0.206 C 
HETATM    4  C   UNL     1      41.505 -14.630   0.123  1.00  0.00     0.035 C 
HETATM    5  C   UNL     1      40.098 -14.447  -0.435  1.00  0.00     0.004 C 
HETATM    6  C   UNL     1      39.133 -14.002   0.656  1.00  0.00     0.028 C 
HETATM    7  C   UNL     1      39.154 -14.929   1.863  1.00  0.00     0.236 C 
ENDROOT
BRANCH   1   8
HETATM    8  C   UNL     1      40.612 -15.787   3.710  1.00  0.00     0.277 C 
BRANCH   8   9
HETATM    9  C   UNL     1      41.711 -15.336   4.599  1.00  0.00     0.012 A 
HETATM   10  C   UNL     1      41.897 -14.092   5.292  1.00  0.00     0.071 A 
HETATM   11  N   UNL     1      43.042 -14.115   5.988  1.00  0.00    -0.178 NA
HETATM   12  N   UNL     1      43.572 -15.320   5.776  1.00  0.00    -0.288 N 
HETATM   13  H   UNL     1      44.457 -15.548   6.222  1.00  0.00     0.188 HD
HETATM   14  C   UNL     1      42.807 -16.096   4.963  1.00  0.00     0.120 A 
BRANCH  10  15
HETATM   15  C   UNL     1      41.021 -12.837   5.373  1.00  0.00    -0.004 C 
HETATM   16  C   UNL     1      41.575 -11.821   6.406  1.00  0.00     0.021 C 
HETATM   17  C   UNL     1      39.595 -13.222   5.812  1.00  0.00     0.021 C 
HETATM   18  C   UNL     1      40.950 -12.096   4.025  1.00  0.00     0.021 C 
ENDBRANCH  10  15
ENDBRANCH   8   9
ENDBRANCH   1   8
BRANCH   3  19
HETATM   19  C   UNL     1      41.278 -17.083   0.904  1.00  0.00     0.156 C 
BRANCH  19  20
HETATM   20  N   UNL     1      41.934 -18.059   1.754  1.00  0.00    -0.355 N 
HETATM   21  C   UNL     1      43.278 -18.338   1.606  1.00  0.00     0.251 C 
HETATM   22  O   UNL     1      43.976 -17.753   0.785  1.00  0.00    -0.268 OA
HETATM   23  H   UNL     1      41.375 -18.649   2.362  1.00  0.00     0.162 HD
BRANCH  21  24
HETATM   24  C   UNL     1      43.811 -19.461   2.419  1.00  0.00     0.032 A 
HETATM   25  C   UNL     1      43.822 -20.742   1.854  1.00  0.00     0.017 A 
HETATM   26  C   UNL     1      44.265 -21.830   2.606  1.00  0.00     0.001 A 
HETATM   27  C   UNL     1      44.712 -21.639   3.914  1.00  0.00     0.000 A 
HETATM   28  C   UNL     1      44.724 -20.359   4.471  1.00  0.00     0.001 A 
HETATM   29  C   UNL     1      44.275 -19.267   3.726  1.00  0.00     0.017 A 
ENDBRANCH  21  24
ENDBRANCH  19  20
ENDBRANCH   3  19
TORSDOF 6
ENDMDL
MODEL 9
REMARK VINA RESULT:      -7.6      4.035      7.011
REMARK  6 active torsions:
REMARK  status: ('A' for Active; 'I' for Inactive)
REMARK    1  A    between atoms: C_2  and  C_3 
REMARK    2  A    between atoms: C_8  and  C_9 
REMARK    3  A    between atoms: C_9  and  N_10 
REMARK    4  A    between atoms: C_12  and  C_13 
REMARK    5  A    between atoms: C_13  and  N_14 
REMARK       I    between atoms: N_14  and  C_15 
REMARK    6  A    between atoms: C_15  and  C_16 
ROOT
HETATM    1  N   UNL     1      40.940 -14.971   3.213  1.00  0.00    -0.061 N 
HETATM    2  H   UNL     1      40.179 -14.793   3.877  1.00  0.00     0.280 HD
HETATM    3  C   UNL     1      41.976 -15.736   4.049  1.00  0.00     0.206 C 
HETATM    4  C   UNL     1      42.356 -14.834   5.236  1.00  0.00     0.035 C 
HETATM    5  C   UNL     1      42.857 -13.462   4.800  1.00  0.00     0.004 C 
HETATM    6  C   UNL     1      41.834 -12.766   3.911  1.00  0.00     0.028 C 
HETATM    7  C   UNL     1      41.413 -13.625   2.728  1.00  0.00     0.236 C 
ENDROOT
BRANCH   1   8
HETATM    8  C   UNL     1      40.274 -15.768   2.106  1.00  0.00     0.277 C 
BRANCH   8   9
HETATM    9  C   UNL     1      40.602 -15.305   0.736  1.00  0.00     0.012 A 
HETATM   10  C   UNL     1      39.903 -14.400  -0.134  1.00  0.00     0.071 A 
HETATM   11  N   UNL     1      40.561 -14.268  -1.293  1.00  0.00    -0.178 NA
HETATM   12  N   UNL     1      41.647 -15.035  -1.184  1.00  0.00    -0.288 N 
HETATM   13  H   UNL     1      42.294 -15.077  -1.968  1.00  0.00     0.188 HD
HETATM   14  C   UNL     1      41.726 -15.667   0.017  1.00  0.00     0.120 A 
BRANCH  10  15
HETATM   15  C   UNL     1      38.616 -13.591   0.069  1.00  0.00    -0.004 C 
HETATM   16  C   UNL     1      37.884 -13.340  -1.274  1.00  0.00     0.021 C 
HETATM   17  C   UNL     1      38.953 -12.219   0.683  1.00  0.00     0.021 C 
HETATM   18  C   UNL     1      37.615 -14.320   0.984  1.00  0.00     0.021 C 
ENDBRANCH  10  15
ENDBRANCH   8   9
ENDBRANCH   1   8
BRANCH   3  19
HETATM   19  C   UNL     1      43.204 -16.199   3.212  1.00  0.00     0.156 C 
BRANCH  19  20
HETATM   20  N   UNL     1      43.673 -17.532   3.546  1.00  0.00    -0.355 N 
HETATM   21  C   UNL     1      43.881 -18.477   2.561  1.00  0.00     0.251 C 
HETATM   22  O   UNL     1      43.715 -18.224   1.373  1.00  0.00    -0.268 OA
HETATM   23  H   UNL     1      43.709 -17.820   4.518  1.00  0.00     0.162 HD
BRANCH  21  24
HETATM   24  C   UNL     1      44.210 -19.848   3.025  1.00  0.00     0.032 A 
HETATM   25  C   UNL     1      44.092 -20.904   2.112  1.00  0.00     0.017 A 
HETATM   26  C   UNL     1      44.341 -22.213   2.525  1.00  0.00     0.001 A 
HETATM   27  C   UNL     1      44.723 -22.468   3.843  1.00  0.00     0.000 A 
HETATM   28  C   UNL     1      44.863 -21.415   4.749  1.00  0.00     0.001 A 
HETATM   29  C   UNL     1      44.608 -20.103   4.343  1.00  0.00     0.017 A 
ENDBRANCH  21  24
ENDBRANCH  19  20
ENDBRANCH   3  19
TORSDOF 6
ENDMDL
MODEL 10
REMARK VINA RESULT:      -7.6      2.044      8.355
REMARK  6 active torsions:
REMARK  status: ('A' for Active; 'I' for Inactive)
REMARK    1  A    between atoms: C_2  and  C_3 
REMARK    2  A    between atoms: C_8  and  C_9 
REMARK    3  A    between atoms: C_9  and  N_10 
REMARK    4  A    between atoms: C_12  and  C_13 
REMARK    5  A    between atoms: C_13  and  N_14 
REMARK       I    between atoms: N_14  and  C_15 
REMARK    6  A    between atoms: C_15  and  C_16 
ROOT
HETATM    1  N   UNL     1      42.223 -15.708   4.660  1.00  0.00    -0.061 N 
HETATM    2  H   UNL     1      41.717 -16.544   4.971  1.00  0.00     0.280 HD
HETATM    3  C   UNL     1      41.979 -14.698   5.791  1.00  0.00     0.206 C 
HETATM    4  C   UNL     1      40.456 -14.518   5.918  1.00  0.00     0.035 C 
HETATM    5  C   UNL     1      39.800 -14.097   4.608  1.00  0.00     0.004 C 
HETATM    6  C   UNL     1      40.126 -15.083   3.494  1.00  0.00     0.028 C 
HETATM    7  C   UNL     1      41.623 -15.307   3.337  1.00  0.00     0.236 C 
ENDROOT
BRANCH   1   8
HETATM    8  C   UNL     1      43.654 -16.188   4.509  1.00  0.00     0.277 C 
BRANCH   8   9
HETATM    9  C   UNL     1      43.841 -17.641   4.744  1.00  0.00     0.012 A 
HETATM   10  C   UNL     1      43.741 -18.751   3.839  1.00  0.00     0.071 A 
HETATM   11  N   UNL     1      43.988 -19.900   4.483  1.00  0.00    -0.178 NA
HETATM   12  N   UNL     1      44.255 -19.559   5.744  1.00  0.00    -0.288 N 
HETATM   13  H   UNL     1      44.475 -20.295   6.411  1.00  0.00     0.188 HD
HETATM   14  C   UNL     1      44.194 -18.217   5.950  1.00  0.00     0.120 A 
BRANCH  10  15
HETATM   15  C   UNL     1      43.443 -18.809   2.335  1.00  0.00    -0.004 C 
HETATM   16  C   UNL     1      41.960 -18.470   2.035  1.00  0.00     0.021 C 
HETATM   17  C   UNL     1      43.716 -20.230   1.803  1.00  0.00     0.021 C 
HETATM   18  C   UNL     1      44.292 -17.802   1.540  1.00  0.00     0.021 C 
ENDBRANCH  10  15
ENDBRANCH   8   9
ENDBRANCH   1   8
BRANCH   3  19
HETATM   19  C   UNL     1      42.740 -13.357   5.577  1.00  0.00     0.156 C 
BRANCH  19  20
HETATM   20  N   UNL     1      42.983 -12.618   6.802  1.00  0.00    -0.355 N 
HETATM   21  C   UNL     1      44.160 -12.779   7.505  1.00  0.00     0.251 C 
HETATM   22  O   UNL     1      45.057 -13.516   7.111  1.00  0.00    -0.268 OA
HETATM   23  H   UNL     1      42.226 -12.091   7.226  1.00  0.00     0.162 HD
BRANCH  21  24
HETATM   24  C   UNL     1      44.239 -12.095   8.821  1.00  0.00     0.032 A 
HETATM   25  C   UNL     1      43.233 -11.181   9.157  1.00  0.00     0.017 A 
HETATM   26  C   UNL     1      43.302 -10.481  10.361  1.00  0.00     0.001 A 
HETATM   27  C   UNL     1      44.364 -10.703  11.238  1.00  0.00     0.000 A 
HETATM   28  C   UNL     1      45.356 -11.631  10.917  1.00  0.00     0.001 A 
HETATM   29  C   UNL     1      45.296 -12.331   9.709  1.00  0.00     0.017 A 
ENDBRANCH  21  24
ENDBRANCH  19  20
ENDBRANCH   3  19
TORSDOF 6
ENDMDL
