MODEL 1
REMARK VINA RESULT:      -9.8      0.000      0.000
REMARK  6 active torsions:
REMARK  status: ('A' for Active; 'I' for Inactive)
REMARK    1  A    between atoms: C_9  and  C_10 
REMARK       I    between atoms: C_10  and  N_11 
REMARK    2  A    between atoms: N_11  and  N_12 
REMARK       I    between atoms: N_12  and  C_13 
REMARK    3  A    between atoms: C_13  and  C_14 
REMARK    4  A    between atoms: C_14  and  O_15 
REMARK    5  A    between atoms: O_15  and  C_16 
REMARK    6  A    between atoms: C_17  and  C_18 
ROOT
HETATM    1  N   UNL     1      44.164 -16.624   6.323  1.00  0.00    -0.265 N 
HETATM    2  C   UNL     1      43.945 -17.817   6.990  1.00  0.00     0.260 C 
HETATM    3  O   UNL     1      44.086 -17.957   8.204  1.00  0.00    -0.269 OA
HETATM    4  H   UNL     1      44.236 -16.582   5.310  1.00  0.00     0.190 HD
ENDROOT
BRANCH   1   5
HETATM    5  N   UNL     1      44.678 -15.542   7.042  1.00  0.00    -0.262 N 
HETATM    6  C   UNL     1      44.514 -14.250   6.567  1.00  0.00     0.291 C 
HETATM    7  O   UNL     1      43.758 -13.958   5.643  1.00  0.00    -0.264 OA
HETATM    8  H   UNL     1      45.479 -15.709   7.653  1.00  0.00     0.190 HD
BRANCH   6   9
HETATM    9  C   UNL     1      45.338 -13.275   7.299  1.00  0.00     0.158 A 
HETATM   10  C   UNL     1      45.003 -12.551   8.482  1.00  0.00     0.029 A 
HETATM   11  C   UNL     1      43.884 -12.452   9.335  1.00  0.00     0.023 A 
HETATM   12  C   UNL     1      46.130 -11.789   8.770  1.00  0.00     0.063 A 
HETATM   13  C   UNL     1      43.938 -11.599  10.452  1.00  0.00    -0.061 A 
HETATM   14  C   UNL     1      42.749 -11.452  11.358  1.00  0.00     0.048 C 
HETATM   15  C   UNL     1      45.095 -10.851  10.703  1.00  0.00     0.009 A 
HETATM   16  C   UNL     1      46.216 -10.933   9.870  1.00  0.00     0.032 A 
HETATM   17  N   UNL     1      47.027 -12.080   7.782  1.00  0.00    -0.277 N 
HETATM   18  H   UNL     1      47.962 -11.705   7.671  1.00  0.00     0.189 HD
HETATM   19  N   UNL     1      46.586 -12.967   6.875  1.00  0.00    -0.168 NA
ENDBRANCH   6   9
ENDBRANCH   1   5
BRANCH   2  20
HETATM   20  C   UNL     1      43.491 -18.949   6.074  1.00  0.00     0.280 C 
BRANCH  20  21
HETATM   21  O   UNL     1      44.165 -18.951   4.826  1.00  0.00    -0.341 OA
BRANCH  21  22
HETATM   22  C   UNL     1      44.265 -20.125   4.120  1.00  0.00     0.080 A 
HETATM   23  C   UNL     1      43.856 -20.079   2.766  1.00  0.00     0.007 A 
HETATM   24  C   UNL     1      43.954 -21.254   1.992  1.00  0.00     0.015 A 
HETATM   25  C   UNL     1      44.434 -22.444   2.536  1.00  0.00     0.001 A 
HETATM   26  C   UNL     1      44.819 -22.482   3.869  1.00  0.00     0.003 A 
HETATM   27  C   UNL     1      44.737 -21.331   4.657  1.00  0.00     0.037 A 
BRANCH  23  28
HETATM   28  C   UNL     1      43.314 -18.858   2.136  1.00  0.00    -0.023 A 
HETATM   29  C   UNL     1      41.939 -18.705   1.897  1.00  0.00     0.012 A 
HETATM   30  C   UNL     1      41.435 -17.537   1.319  1.00  0.00     0.001 A 
HETATM   31  C   UNL     1      42.297 -16.499   0.974  1.00  0.00     0.000 A 
HETATM   32  C   UNL     1      43.665 -16.629   1.204  1.00  0.00     0.001 A 
HETATM   33  C   UNL     1      44.167 -17.798   1.780  1.00  0.00     0.012 A 
ENDBRANCH  23  28
ENDBRANCH  21  22
ENDBRANCH  20  21
ENDBRANCH   2  20
TORSDOF 6
ENDMDL
MODEL 2
REMARK VINA RESULT:      -9.6      1.870      3.750
REMARK  6 active torsions:
REMARK  status: ('A' for Active; 'I' for Inactive)
REMARK    1  A    between atoms: C_9  and  C_10 
REMARK       I    between atoms: C_10  and  N_11 
REMARK    2  A    between atoms: N_11  and  N_12 
REMARK       I    between atoms: N_12  and  C_13 
REMARK    3  A    between atoms: C_13  and  C_14 
REMARK    4  A    between atoms: C_14  and  O_15 
REMARK    5  A    between atoms: O_15  and  C_16 
REMARK    6  A    between atoms: C_17  and  C_18 
ROOT
HETATM    1  N   UNL     1      44.416 -15.365   6.871  1.00  0.00    -0.265 N 
HETATM    2  C   UNL     1      44.023 -16.646   7.216  1.00  0.00     0.260 C 
HETATM    3  O   UNL     1      43.341 -16.910   8.205  1.00  0.00    -0.269 OA
HETATM    4  H   UNL     1      45.136 -15.194   6.175  1.00  0.00     0.190 HD
ENDROOT
BRANCH   1   5
HETATM    5  N   UNL     1      44.116 -14.317   7.746  1.00  0.00    -0.262 N 
HETATM    6  C   UNL     1      45.029 -13.292   7.943  1.00  0.00     0.291 C 
HETATM    7  O   UNL     1      46.020 -13.123   7.236  1.00  0.00    -0.264 OA
HETATM    8  H   UNL     1      43.461 -14.500   8.507  1.00  0.00     0.190 HD
BRANCH   6   9
HETATM    9  C   UNL     1      44.668 -12.432   9.081  1.00  0.00     0.158 A 
HETATM   10  C   UNL     1      43.628 -11.458   9.154  1.00  0.00     0.029 A 
HETATM   11  C   UNL     1      42.641 -10.952   8.282  1.00  0.00     0.023 A 
HETATM   12  C   UNL     1      43.700 -10.949  10.446  1.00  0.00     0.063 A 
HETATM   13  C   UNL     1      41.757  -9.958   8.740  1.00  0.00    -0.061 A 
HETATM   14  C   UNL     1      40.718  -9.381   7.822  1.00  0.00     0.048 C 
HETATM   15  C   UNL     1      41.866  -9.476  10.050  1.00  0.00     0.009 A 
HETATM   16  C   UNL     1      42.838  -9.963  10.931  1.00  0.00     0.032 A 
HETATM   17  N   UNL     1      44.739 -11.610  11.038  1.00  0.00    -0.277 N 
HETATM   18  H   UNL     1      45.081 -11.492  11.985  1.00  0.00     0.189 HD
HETATM   19  N   UNL     1      45.350 -12.507  10.247  1.00  0.00    -0.168 NA
ENDBRANCH   6   9
ENDBRANCH   1   5
BRANCH   2  20
HETATM   20  C   UNL     1      44.506 -17.712   6.236  1.00  0.00     0.280 C 
BRANCH  20  21
HETATM   21  O   UNL     1      43.499 -18.116   5.323  1.00  0.00    -0.341 OA
BRANCH  21  22
HETATM   22  C   UNL     1      43.530 -17.637   4.036  1.00  0.00     0.080 A 
HETATM   23  C   UNL     1      43.864 -18.571   3.027  1.00  0.00     0.007 A 
HETATM   24  C   UNL     1      43.893 -18.133   1.687  1.00  0.00     0.015 A 
HETATM   25  C   UNL     1      43.610 -16.811   1.348  1.00  0.00     0.001 A 
HETATM   26  C   UNL     1      43.297 -15.900   2.347  1.00  0.00     0.003 A 
HETATM   27  C   UNL     1      43.256 -16.308   3.683  1.00  0.00     0.037 A 
BRANCH  23  28
HETATM   28  C   UNL     1      44.200 -19.979   3.321  1.00  0.00    -0.023 A 
HETATM   29  C   UNL     1      44.663 -20.372   4.587  1.00  0.00     0.012 A 
HETATM   30  C   UNL     1      44.958 -21.711   4.860  1.00  0.00     0.001 A 
HETATM   31  C   UNL     1      44.792 -22.679   3.874  1.00  0.00     0.000 A 
HETATM   32  C   UNL     1      44.331 -22.311   2.612  1.00  0.00     0.001 A 
HETATM   33  C   UNL     1      44.039 -20.973   2.339  1.00  0.00     0.012 A 
ENDBRANCH  23  28
ENDBRANCH  21  22
ENDBRANCH  20  21
ENDBRANCH   2  20
TORSDOF 6
ENDMDL
MODEL 3
REMARK VINA RESULT:      -9.5      2.003      2.454
REMARK  6 active torsions:
REMARK  status: ('A' for Active; 'I' for Inactive)
REMARK    1  A    between atoms: C_9  and  C_10 
REMARK       I    between atoms: C_10  and  N_11 
REMARK    2  A    between atoms: N_11  and  N_12 
REMARK       I    between atoms: N_12  and  C_13 
REMARK    3  A    between atoms: C_13  and  C_14 
REMARK    4  A    between atoms: C_14  and  O_15 
REMARK    5  A    between atoms: O_15  and  C_16 
REMARK    6  A    between atoms: C_17  and  C_18 
ROOT
HETATM    1  N   UNL     1      44.305 -15.303   7.002  1.00  0.00    -0.265 N 
HETATM    2  C   UNL     1      44.055 -16.587   7.454  1.00  0.00     0.260 C 
HETATM    3  O   UNL     1      43.536 -16.841   8.540  1.00  0.00    -0.269 OA
HETATM    4  H   UNL     1      44.909 -15.124   6.205  1.00  0.00     0.190 HD
ENDROOT
BRANCH   1   5
HETATM    5  N   UNL     1      44.057 -14.232   7.864  1.00  0.00    -0.262 N 
HETATM    6  C   UNL     1      45.001 -13.229   8.018  1.00  0.00     0.291 C 
HETATM    7  O   UNL     1      45.978 -13.099   7.283  1.00  0.00    -0.264 OA
HETATM    8  H   UNL     1      43.416 -14.384   8.645  1.00  0.00     0.190 HD
BRANCH   6   9
HETATM    9  C   UNL     1      44.693 -12.338   9.148  1.00  0.00     0.158 A 
HETATM   10  C   UNL     1      43.648 -11.372   9.249  1.00  0.00     0.029 A 
HETATM   11  C   UNL     1      42.611 -10.900   8.417  1.00  0.00     0.023 A 
HETATM   12  C   UNL     1      43.784 -10.824  10.520  1.00  0.00     0.063 A 
HETATM   13  C   UNL     1      41.743  -9.900   8.892  1.00  0.00    -0.061 A 
HETATM   14  C   UNL     1      40.651  -9.359   8.015  1.00  0.00     0.048 C 
HETATM   15  C   UNL     1      41.917  -9.379  10.180  1.00  0.00     0.009 A 
HETATM   16  C   UNL     1      42.939  -9.832  11.021  1.00  0.00     0.032 A 
HETATM   17  N   UNL     1      44.859 -11.458  11.074  1.00  0.00    -0.277 N 
HETATM   18  H   UNL     1      45.250 -11.310  11.998  1.00  0.00     0.189 HD
HETATM   19  N   UNL     1      45.437 -12.373  10.278  1.00  0.00    -0.168 NA
ENDBRANCH   6   9
ENDBRANCH   1   5
BRANCH   2  20
HETATM   20  C   UNL     1      44.471 -17.671   6.463  1.00  0.00     0.280 C 
BRANCH  20  21
HETATM   21  O   UNL     1      43.480 -17.930   5.483  1.00  0.00    -0.341 OA
BRANCH  21  22
HETATM   22  C   UNL     1      43.756 -18.814   4.468  1.00  0.00     0.080 A 
HETATM   23  C   UNL     1      43.347 -18.425   3.170  1.00  0.00     0.007 A 
HETATM   24  C   UNL     1      43.622 -19.289   2.090  1.00  0.00     0.015 A 
HETATM   25  C   UNL     1      44.273 -20.506   2.282  1.00  0.00     0.001 A 
HETATM   26  C   UNL     1      44.658 -20.884   3.561  1.00  0.00     0.003 A 
HETATM   27  C   UNL     1      44.403 -20.044   4.648  1.00  0.00     0.037 A 
BRANCH  23  28
HETATM   28  C   UNL     1      42.629 -17.162   2.903  1.00  0.00    -0.023 A 
HETATM   29  C   UNL     1      41.227 -17.111   2.865  1.00  0.00     0.012 A 
HETATM   30  C   UNL     1      40.557 -15.906   2.632  1.00  0.00     0.001 A 
HETATM   31  C   UNL     1      41.279 -14.731   2.437  1.00  0.00     0.000 A 
HETATM   32  C   UNL     1      42.671 -14.760   2.473  1.00  0.00     0.001 A 
HETATM   33  C   UNL     1      43.339 -15.964   2.704  1.00  0.00     0.012 A 
ENDBRANCH  23  28
ENDBRANCH  21  22
ENDBRANCH  20  21
ENDBRANCH   2  20
TORSDOF 6
ENDMDL
MODEL 4
REMARK VINA RESULT:      -9.5      2.487      3.388
REMARK  6 active torsions:
REMARK  status: ('A' for Active; 'I' for Inactive)
REMARK    1  A    between atoms: C_9  and  C_10 
REMARK       I    between atoms: C_10  and  N_11 
REMARK    2  A    between atoms: N_11  and  N_12 
REMARK       I    between atoms: N_12  and  C_13 
REMARK    3  A    between atoms: C_13  and  C_14 
REMARK    4  A    between atoms: C_14  and  O_15 
REMARK    5  A    between atoms: O_15  and  C_16 
REMARK    6  A    between atoms: C_17  and  C_18 
ROOT
HETATM    1  N   UNL     1      44.337 -14.239   7.516  1.00  0.00    -0.265 N 
HETATM    2  C   UNL     1      43.676 -15.105   6.663  1.00  0.00     0.260 C 
HETATM    3  O   UNL     1      42.680 -14.795   6.011  1.00  0.00    -0.269 OA
HETATM    4  H   UNL     1      45.025 -14.569   8.187  1.00  0.00     0.190 HD
ENDROOT
BRANCH   1   5
HETATM    5  N   UNL     1      43.790 -12.973   7.737  1.00  0.00    -0.262 N 
HETATM    6  C   UNL     1      44.043 -12.303   8.923  1.00  0.00     0.291 C 
HETATM    7  O   UNL     1      44.898 -12.657   9.733  1.00  0.00    -0.264 OA
HETATM    8  H   UNL     1      42.926 -12.732   7.248  1.00  0.00     0.190 HD
BRANCH   6   9
HETATM    9  C   UNL     1      43.182 -11.121   9.095  1.00  0.00     0.158 A 
HETATM   10  C   UNL     1      42.974 -10.347  10.275  1.00  0.00     0.029 A 
HETATM   11  C   UNL     1      43.424 -10.382  11.611  1.00  0.00     0.023 A 
HETATM   12  C   UNL     1      42.095  -9.339   9.895  1.00  0.00     0.063 A 
HETATM   13  C   UNL     1      42.983  -9.401  12.517  1.00  0.00    -0.061 A 
HETATM   14  C   UNL     1      43.423  -9.435  13.952  1.00  0.00     0.048 C 
HETATM   15  C   UNL     1      42.097  -8.404  12.089  1.00  0.00     0.009 A 
HETATM   16  C   UNL     1      41.637  -8.350  10.769  1.00  0.00     0.032 A 
HETATM   17  N   UNL     1      41.832  -9.567   8.574  1.00  0.00    -0.277 N 
HETATM   18  H   UNL     1      41.226  -9.026   7.967  1.00  0.00     0.189 HD
HETATM   19  N   UNL     1      42.464 -10.633   8.057  1.00  0.00    -0.168 NA
ENDBRANCH   6   9
ENDBRANCH   1   5
BRANCH   2  20
HETATM   20  C   UNL     1      44.312 -16.491   6.593  1.00  0.00     0.280 C 
BRANCH  20  21
HETATM   21  O   UNL     1      43.412 -17.486   6.132  1.00  0.00    -0.341 OA
BRANCH  21  22
HETATM   22  C   UNL     1      43.869 -18.455   5.272  1.00  0.00     0.080 A 
HETATM   23  C   UNL     1      43.581 -18.261   3.900  1.00  0.00     0.007 A 
HETATM   24  C   UNL     1      44.042 -19.219   2.973  1.00  0.00     0.015 A 
HETATM   25  C   UNL     1      44.759 -20.341   3.385  1.00  0.00     0.001 A 
HETATM   26  C   UNL     1      45.024 -20.528   4.734  1.00  0.00     0.003 A 
HETATM   27  C   UNL     1      44.583 -19.592   5.673  1.00  0.00     0.037 A 
BRANCH  23  28
HETATM   28  C   UNL     1      42.804 -17.108   3.401  1.00  0.00    -0.023 A 
HETATM   29  C   UNL     1      43.436 -15.979   2.858  1.00  0.00     0.012 A 
HETATM   30  C   UNL     1      42.690 -14.902   2.370  1.00  0.00     0.001 A 
HETATM   31  C   UNL     1      41.298 -14.939   2.414  1.00  0.00     0.000 A 
HETATM   32  C   UNL     1      40.651 -16.051   2.947  1.00  0.00     0.001 A 
HETATM   33  C   UNL     1      41.398 -17.125   3.436  1.00  0.00     0.012 A 
ENDBRANCH  23  28
ENDBRANCH  21  22
ENDBRANCH  20  21
ENDBRANCH   2  20
TORSDOF 6
ENDMDL
MODEL 5
REMARK VINA RESULT:      -9.5      2.205      4.165
REMARK  6 active torsions:
REMARK  status: ('A' for Active; 'I' for Inactive)
REMARK    1  A    between atoms: C_9  and  C_10 
REMARK       I    between atoms: C_10  and  N_11 
REMARK    2  A    between atoms: N_11  and  N_12 
REMARK       I    between atoms: N_12  and  C_13 
REMARK    3  A    between atoms: C_13  and  C_14 
REMARK    4  A    between atoms: C_14  and  O_15 
REMARK    5  A    between atoms: O_15  and  C_16 
REMARK    6  A    between atoms: C_17  and  C_18 
ROOT
HETATM    1  N   UNL     1      43.489 -14.045   5.975  1.00  0.00    -0.265 N 
HETATM    2  C   UNL     1      42.560 -13.713   5.004  1.00  0.00     0.260 C 
HETATM    3  O   UNL     1      41.860 -12.703   5.045  1.00  0.00    -0.269 OA
HETATM    4  H   UNL     1      43.906 -14.971   6.023  1.00  0.00     0.190 HD
ENDROOT
BRANCH   1   5
HETATM    5  N   UNL     1      43.568 -13.252   7.122  1.00  0.00    -0.262 N 
HETATM    6  C   UNL     1      44.797 -13.004   7.713  1.00  0.00     0.291 C 
HETATM    7  O   UNL     1      45.872 -13.266   7.178  1.00  0.00    -0.264 OA
HETATM    8  H   UNL     1      42.748 -13.203   7.729  1.00  0.00     0.190 HD
BRANCH   6   9
HETATM    9  C   UNL     1      44.664 -12.385   9.042  1.00  0.00     0.158 A 
HETATM   10  C   UNL     1      43.728 -11.394   9.463  1.00  0.00     0.029 A 
HETATM   11  C   UNL     1      42.681 -10.661   8.867  1.00  0.00     0.023 A 
HETATM   12  C   UNL     1      44.014 -11.174  10.806  1.00  0.00     0.063 A 
HETATM   13  C   UNL     1      41.952  -9.740   9.641  1.00  0.00    -0.061 A 
HETATM   14  C   UNL     1      40.852  -8.926   9.022  1.00  0.00     0.048 C 
HETATM   15  C   UNL     1      42.275  -9.553  10.990  1.00  0.00     0.009 A 
HETATM   16  C   UNL     1      43.310 -10.268  11.602  1.00  0.00     0.032 A 
HETATM   17  N   UNL     1      45.063 -12.001  11.092  1.00  0.00    -0.277 N 
HETATM   18  H   UNL     1      45.537 -12.105  11.983  1.00  0.00     0.189 HD
HETATM   19  N   UNL     1      45.487 -12.742  10.056  1.00  0.00    -0.168 NA
ENDBRANCH   6   9
ENDBRANCH   1   5
BRANCH   2  20
HETATM   20  C   UNL     1      42.496 -14.718   3.857  1.00  0.00     0.280 C 
BRANCH  20  21
HETATM   21  O   UNL     1      43.656 -15.529   3.771  1.00  0.00    -0.341 OA
BRANCH  21  22
HETATM   22  C   UNL     1      43.602 -16.703   3.060  1.00  0.00     0.080 A 
HETATM   23  C   UNL     1      43.576 -17.896   3.822  1.00  0.00     0.007 A 
HETATM   24  C   UNL     1      43.503 -19.128   3.141  1.00  0.00     0.015 A 
HETATM   25  C   UNL     1      43.465 -19.188   1.749  1.00  0.00     0.001 A 
HETATM   26  C   UNL     1      43.504 -18.013   1.011  1.00  0.00     0.003 A 
HETATM   27  C   UNL     1      43.572 -16.778   1.661  1.00  0.00     0.037 A 
BRANCH  23  28
HETATM   28  C   UNL     1      43.640 -17.903   5.298  1.00  0.00    -0.023 A 
HETATM   29  C   UNL     1      44.831 -18.207   5.977  1.00  0.00     0.012 A 
HETATM   30  C   UNL     1      44.885 -18.192   7.373  1.00  0.00     0.001 A 
HETATM   31  C   UNL     1      43.752 -17.867   8.114  1.00  0.00     0.000 A 
HETATM   32  C   UNL     1      42.561 -17.560   7.460  1.00  0.00     0.001 A 
HETATM   33  C   UNL     1      42.507 -17.579   6.064  1.00  0.00     0.012 A 
ENDBRANCH  23  28
ENDBRANCH  21  22
ENDBRANCH  20  21
ENDBRANCH   2  20
TORSDOF 6
ENDMDL
MODEL 6
REMARK VINA RESULT:      -9.4      5.010      8.441
REMARK  6 active torsions:
REMARK  status: ('A' for Active; 'I' for Inactive)
REMARK    1  A    between atoms: C_9  and  C_10 
REMARK       I    between atoms: C_10  and  N_11 
REMARK    2  A    between atoms: N_11  and  N_12 
REMARK       I    between atoms: N_12  and  C_13 
REMARK    3  A    between atoms: C_13  and  C_14 
REMARK    4  A    between atoms: C_14  and  O_15 
REMARK    5  A    between atoms: O_15  and  C_16 
REMARK    6  A    between atoms: C_17  and  C_18 
ROOT
HETATM    1  N   UNL     1      41.165 -16.833   0.492  1.00  0.00    -0.265 N 
HETATM    2  C   UNL     1      42.264 -17.173   1.262  1.00  0.00     0.260 C 
HETATM    3  O   UNL     1      43.369 -16.645   1.146  1.00  0.00    -0.269 OA
HETATM    4  H   UNL     1      40.330 -17.412   0.466  1.00  0.00     0.190 HD
ENDROOT
BRANCH   1   5
HETATM    5  N   UNL     1      41.337 -15.918  -0.549  1.00  0.00    -0.262 N 
HETATM    6  C   UNL     1      40.654 -14.711  -0.535  1.00  0.00     0.291 C 
HETATM    7  O   UNL     1      40.051 -14.286   0.448  1.00  0.00    -0.264 OA
HETATM    8  H   UNL     1      41.613 -16.278  -1.464  1.00  0.00     0.190 HD
BRANCH   6   9
HETATM    9  C   UNL     1      40.745 -14.001  -1.820  1.00  0.00     0.158 A 
HETATM   10  C   UNL     1      41.496 -12.826  -2.126  1.00  0.00     0.029 A 
HETATM   11  C   UNL     1      42.343 -11.945  -1.423  1.00  0.00     0.023 A 
HETATM   12  C   UNL     1      41.255 -12.585  -3.474  1.00  0.00     0.063 A 
HETATM   13  C   UNL     1      42.925 -10.857  -2.098  1.00  0.00    -0.061 A 
HETATM   14  C   UNL     1      43.806  -9.887  -1.365  1.00  0.00     0.048 C 
HETATM   15  C   UNL     1      42.656 -10.654  -3.457  1.00  0.00     0.009 A 
HETATM   16  C   UNL     1      41.818 -11.515  -4.174  1.00  0.00     0.032 A 
HETATM   17  N   UNL     1      40.406 -13.577  -3.874  1.00  0.00    -0.277 N 
HETATM   18  H   UNL     1      40.017 -13.717  -4.800  1.00  0.00     0.189 HD
HETATM   19  N   UNL     1      40.072 -14.447  -2.906  1.00  0.00    -0.168 NA
ENDBRANCH   6   9
ENDBRANCH   1   5
BRANCH   2  20
HETATM   20  C   UNL     1      41.971 -18.262   2.290  1.00  0.00     0.280 C 
BRANCH  20  21
HETATM   21  O   UNL     1      43.112 -18.617   3.054  1.00  0.00    -0.341 OA
BRANCH  21  22
HETATM   22  C   UNL     1      43.636 -19.881   2.928  1.00  0.00     0.080 A 
HETATM   23  C   UNL     1      44.232 -20.430   4.088  1.00  0.00     0.007 A 
HETATM   24  C   UNL     1      44.770 -21.732   4.016  1.00  0.00     0.015 A 
HETATM   25  C   UNL     1      44.730 -22.470   2.835  1.00  0.00     0.001 A 
HETATM   26  C   UNL     1      44.155 -21.916   1.700  1.00  0.00     0.003 A 
HETATM   27  C   UNL     1      43.610 -20.631   1.744  1.00  0.00     0.037 A 
BRANCH  23  28
HETATM   28  C   UNL     1      44.330 -19.691   5.363  1.00  0.00    -0.023 A 
HETATM   29  C   UNL     1      43.646 -20.118   6.511  1.00  0.00     0.012 A 
HETATM   30  C   UNL     1      43.762 -19.423   7.718  1.00  0.00     0.001 A 
HETATM   31  C   UNL     1      44.569 -18.290   7.798  1.00  0.00     0.000 A 
HETATM   32  C   UNL     1      45.258 -17.850   6.670  1.00  0.00     0.001 A 
HETATM   33  C   UNL     1      45.139 -18.545   5.465  1.00  0.00     0.012 A 
ENDBRANCH  23  28
ENDBRANCH  21  22
ENDBRANCH  20  21
ENDBRANCH   2  20
TORSDOF 6
ENDMDL
MODEL 7
REMARK VINA RESULT:      -9.3      3.950      5.296
REMARK  6 active torsions:
REMARK  status: ('A' for Active; 'I' for Inactive)
REMARK    1  A    between atoms: C_9  and  C_10 
REMARK       I    between atoms: C_10  and  N_11 
REMARK    2  A    between atoms: N_11  and  N_12 
REMARK       I    between atoms: N_12  and  C_13 
REMARK    3  A    between atoms: C_13  and  C_14 
REMARK    4  A    between atoms: C_14  and  O_15 
REMARK    5  A    between atoms: O_15  and  C_16 
REMARK    6  A    between atoms: C_17  and  C_18 
ROOT
HETATM    1  N   UNL     1      42.863 -16.323   4.797  1.00  0.00    -0.265 N 
HETATM    2  C   UNL     1      42.277 -17.479   5.281  1.00  0.00     0.260 C 
HETATM    3  O   UNL     1      41.062 -17.652   5.350  1.00  0.00    -0.269 OA
HETATM    4  H   UNL     1      43.851 -16.124   4.935  1.00  0.00     0.190 HD
ENDROOT
BRANCH   1   5
HETATM    5  N   UNL     1      42.039 -15.246   4.463  1.00  0.00    -0.262 N 
HETATM    6  C   UNL     1      42.581 -14.103   3.897  1.00  0.00     0.291 C 
HETATM    7  O   UNL     1      43.731 -14.040   3.467  1.00  0.00    -0.264 OA
HETATM    8  H   UNL     1      41.166 -15.132   4.981  1.00  0.00     0.190 HD
BRANCH   6   9
HETATM    9  C   UNL     1      41.624 -12.986   3.862  1.00  0.00     0.158 A 
HETATM   10  C   UNL     1      40.424 -12.878   3.096  1.00  0.00     0.029 A 
HETATM   11  C   UNL     1      39.739 -13.675   2.155  1.00  0.00     0.023 A 
HETATM   12  C   UNL     1      39.884 -11.645   3.444  1.00  0.00     0.063 A 
HETATM   13  C   UNL     1      38.532 -13.210   1.602  1.00  0.00    -0.061 A 
HETATM   14  C   UNL     1      37.800 -14.025   0.575  1.00  0.00     0.048 C 
HETATM   15  C   UNL     1      38.025 -11.962   1.984  1.00  0.00     0.009 A 
HETATM   16  C   UNL     1      38.688 -11.155   2.914  1.00  0.00     0.032 A 
HETATM   17  N   UNL     1      40.757 -11.109   4.347  1.00  0.00    -0.277 N 
HETATM   18  H   UNL     1      40.683 -10.212   4.815  1.00  0.00     0.189 HD
HETATM   19  N   UNL     1      41.820 -11.883   4.621  1.00  0.00    -0.168 NA
ENDBRANCH   6   9
ENDBRANCH   1   5
BRANCH   2  20
HETATM   20  C   UNL     1      43.289 -18.537   5.713  1.00  0.00     0.280 C 
BRANCH  20  21
HETATM   21  O   UNL     1      44.303 -18.755   4.746  1.00  0.00    -0.341 OA
BRANCH  21  22
HETATM   22  C   UNL     1      44.345 -19.956   4.079  1.00  0.00     0.080 A 
HETATM   23  C   UNL     1      43.854 -19.952   2.751  1.00  0.00     0.007 A 
HETATM   24  C   UNL     1      43.891 -21.156   2.017  1.00  0.00     0.015 A 
HETATM   25  C   UNL     1      44.389 -22.332   2.574  1.00  0.00     0.001 A 
HETATM   26  C   UNL     1      44.856 -22.327   3.881  1.00  0.00     0.003 A 
HETATM   27  C   UNL     1      44.835 -21.147   4.630  1.00  0.00     0.037 A 
BRANCH  23  28
HETATM   28  C   UNL     1      43.289 -18.747   2.111  1.00  0.00    -0.023 A 
HETATM   29  C   UNL     1      41.908 -18.611   1.897  1.00  0.00     0.012 A 
HETATM   30  C   UNL     1      41.382 -17.458   1.309  1.00  0.00     0.001 A 
HETATM   31  C   UNL     1      42.227 -16.419   0.929  1.00  0.00     0.000 A 
HETATM   32  C   UNL     1      43.600 -16.533   1.134  1.00  0.00     0.001 A 
HETATM   33  C   UNL     1      44.125 -17.687   1.719  1.00  0.00     0.012 A 
ENDBRANCH  23  28
ENDBRANCH  21  22
ENDBRANCH  20  21
ENDBRANCH   2  20
TORSDOF 6
ENDMDL
MODEL 8
REMARK VINA RESULT:      -9.3      4.102      7.820
REMARK  6 active torsions:
REMARK  status: ('A' for Active; 'I' for Inactive)
REMARK    1  A    between atoms: C_9  and  C_10 
REMARK       I    between atoms: C_10  and  N_11 
REMARK    2  A    between atoms: N_11  and  N_12 
REMARK       I    between atoms: N_12  and  C_13 
REMARK    3  A    between atoms: C_13  and  C_14 
REMARK    4  A    between atoms: C_14  and  O_15 
REMARK    5  A    between atoms: O_15  and  C_16 
REMARK    6  A    between atoms: C_17  and  C_18 
ROOT
HETATM    1  N   UNL     1      42.052 -15.384   3.310  1.00  0.00    -0.265 N 
HETATM    2  C   UNL     1      41.392 -16.578   3.077  1.00  0.00     0.260 C 
HETATM    3  O   UNL     1      41.158 -17.022   1.954  1.00  0.00    -0.269 OA
HETATM    4  H   UNL     1      42.056 -14.944   4.226  1.00  0.00     0.190 HD
ENDROOT
BRANCH   1   5
HETATM    5  N   UNL     1      42.380 -14.579   2.217  1.00  0.00    -0.262 N 
HETATM    6  C   UNL     1      41.566 -13.512   1.868  1.00  0.00     0.291 C 
HETATM    7  O   UNL     1      40.664 -13.085   2.586  1.00  0.00    -0.264 OA
HETATM    8  H   UNL     1      42.943 -14.989   1.471  1.00  0.00     0.190 HD
BRANCH   6   9
HETATM    9  C   UNL     1      41.912 -12.949   0.553  1.00  0.00     0.158 A 
HETATM   10  C   UNL     1      41.627 -13.486  -0.738  1.00  0.00     0.029 A 
HETATM   11  C   UNL     1      40.995 -14.640  -1.246  1.00  0.00     0.023 A 
HETATM   12  C   UNL     1      42.146 -12.561  -1.636  1.00  0.00     0.063 A 
HETATM   13  C   UNL     1      40.900 -14.822  -2.637  1.00  0.00    -0.061 A 
HETATM   14  C   UNL     1      40.260 -16.056  -3.203  1.00  0.00     0.048 C 
HETATM   15  C   UNL     1      41.437 -13.862  -3.505  1.00  0.00     0.009 A 
HETATM   16  C   UNL     1      42.068 -12.711  -3.023  1.00  0.00     0.032 A 
HETATM   17  N   UNL     1      42.696 -11.576  -0.865  1.00  0.00    -0.277 N 
HETATM   18  H   UNL     1      43.167 -10.738  -1.185  1.00  0.00     0.189 HD
HETATM   19  N   UNL     1      42.580 -11.776   0.458  1.00  0.00    -0.168 NA
ENDBRANCH   6   9
ENDBRANCH   1   5
BRANCH   2  20
HETATM   20  C   UNL     1      40.991 -17.309   4.355  1.00  0.00     0.280 C 
BRANCH  20  21
HETATM   21  O   UNL     1      41.851 -18.394   4.660  1.00  0.00    -0.341 OA
BRANCH  21  22
HETATM   22  C   UNL     1      42.977 -18.166   5.414  1.00  0.00     0.080 A 
HETATM   23  C   UNL     1      44.128 -18.910   5.062  1.00  0.00     0.007 A 
HETATM   24  C   UNL     1      45.315 -18.700   5.795  1.00  0.00     0.015 A 
HETATM   25  C   UNL     1      45.367 -17.790   6.849  1.00  0.00     0.001 A 
HETATM   26  C   UNL     1      44.228 -17.076   7.194  1.00  0.00     0.003 A 
HETATM   27  C   UNL     1      43.040 -17.261   6.482  1.00  0.00     0.037 A 
BRANCH  23  28
HETATM   28  C   UNL     1      44.133 -19.909   3.974  1.00  0.00    -0.023 A 
HETATM   29  C   UNL     1      44.566 -21.226   4.191  1.00  0.00     0.012 A 
HETATM   30  C   UNL     1      44.547 -22.168   3.159  1.00  0.00     0.001 A 
HETATM   31  C   UNL     1      44.091 -21.810   1.893  1.00  0.00     0.000 A 
HETATM   32  C   UNL     1      43.655 -20.508   1.657  1.00  0.00     0.001 A 
HETATM   33  C   UNL     1      43.677 -19.567   2.688  1.00  0.00     0.012 A 
ENDBRANCH  23  28
ENDBRANCH  21  22
ENDBRANCH  20  21
ENDBRANCH   2  20
TORSDOF 6
ENDMDL
MODEL 9
REMARK VINA RESULT:      -9.3      3.863      7.445
REMARK  6 active torsions:
REMARK  status: ('A' for Active; 'I' for Inactive)
REMARK    1  A    between atoms: C_9  and  C_10 
REMARK       I    between atoms: C_10  and  N_11 
REMARK    2  A    between atoms: N_11  and  N_12 
REMARK       I    between atoms: N_12  and  C_13 
REMARK    3  A    between atoms: C_13  and  C_14 
REMARK    4  A    between atoms: C_14  and  O_15 
REMARK    5  A    between atoms: O_15  and  C_16 
REMARK    6  A    between atoms: C_17  and  C_18 
ROOT
HETATM    1  N   UNL     1      42.237 -14.365   3.673  1.00  0.00    -0.265 N 
HETATM    2  C   UNL     1      43.128 -14.272   4.728  1.00  0.00     0.260 C 
HETATM    3  O   UNL     1      44.140 -13.572   4.709  1.00  0.00    -0.269 OA
HETATM    4  H   UNL     1      41.528 -15.093   3.633  1.00  0.00     0.190 HD
ENDROOT
BRANCH   1   5
HETATM    5  N   UNL     1      42.549 -13.715   2.476  1.00  0.00    -0.262 N 
HETATM    6  C   UNL     1      41.598 -12.933   1.841  1.00  0.00     0.291 C 
HETATM    7  O   UNL     1      40.539 -12.592   2.366  1.00  0.00    -0.264 OA
HETATM    8  H   UNL     1      43.279 -14.119   1.888  1.00  0.00     0.190 HD
BRANCH   6   9
HETATM    9  C   UNL     1      42.005 -12.551   0.479  1.00  0.00     0.158 A 
HETATM   10  C   UNL     1      41.746 -13.240  -0.743  1.00  0.00     0.029 A 
HETATM   11  C   UNL     1      41.095 -14.431  -1.124  1.00  0.00     0.023 A 
HETATM   12  C   UNL     1      42.323 -12.451  -1.731  1.00  0.00     0.063 A 
HETATM   13  C   UNL     1      41.040 -14.786  -2.485  1.00  0.00    -0.061 A 
HETATM   14  C   UNL     1      40.380 -16.065  -2.914  1.00  0.00     0.048 C 
HETATM   15  C   UNL     1      41.635 -13.959  -3.446  1.00  0.00     0.009 A 
HETATM   16  C   UNL     1      42.286 -12.774  -3.090  1.00  0.00     0.032 A 
HETATM   17  N   UNL     1      42.878 -11.392  -1.071  1.00  0.00    -0.277 N 
HETATM   18  H   UNL     1      43.386 -10.613  -1.476  1.00  0.00     0.189 HD
HETATM   19  N   UNL     1      42.712 -11.418   0.261  1.00  0.00    -0.168 NA
ENDBRANCH   6   9
ENDBRANCH   1   5
BRANCH   2  20
HETATM   20  C   UNL     1      42.729 -15.115   5.936  1.00  0.00     0.280 C 
BRANCH  20  21
HETATM   21  O   UNL     1      42.126 -16.346   5.572  1.00  0.00    -0.341 OA
BRANCH  21  22
HETATM   22  C   UNL     1      42.772 -17.522   5.866  1.00  0.00     0.080 A 
HETATM   23  C   UNL     1      43.201 -18.295   4.761  1.00  0.00     0.007 A 
HETATM   24  C   UNL     1      43.885 -19.503   5.009  1.00  0.00     0.015 A 
HETATM   25  C   UNL     1      44.134 -19.943   6.307  1.00  0.00     0.001 A 
HETATM   26  C   UNL     1      43.698 -19.184   7.384  1.00  0.00     0.003 A 
HETATM   27  C   UNL     1      43.022 -17.981   7.167  1.00  0.00     0.037 A 
BRANCH  23  28
HETATM   28  C   UNL     1      42.945 -17.898   3.361  1.00  0.00    -0.023 A 
HETATM   29  C   UNL     1      41.639 -17.777   2.862  1.00  0.00     0.012 A 
HETATM   30  C   UNL     1      41.408 -17.382   1.541  1.00  0.00     0.001 A 
HETATM   31  C   UNL     1      42.480 -17.096   0.699  1.00  0.00     0.000 A 
HETATM   32  C   UNL     1      43.784 -17.207   1.176  1.00  0.00     0.001 A 
HETATM   33  C   UNL     1      44.013 -17.605   2.495  1.00  0.00     0.012 A 
ENDBRANCH  23  28
ENDBRANCH  21  22
ENDBRANCH  20  21
ENDBRANCH   2  20
TORSDOF 6
ENDMDL
MODEL 10
REMARK VINA RESULT:      -9.3      5.257      9.259
REMARK  6 active torsions:
REMARK  status: ('A' for Active; 'I' for Inactive)
REMARK    1  A    between atoms: C_9  and  C_10 
REMARK       I    between atoms: C_10  and  N_11 
REMARK    2  A    between atoms: N_11  and  N_12 
REMARK       I    between atoms: N_12  and  C_13 
REMARK    3  A    between atoms: C_13  and  C_14 
REMARK    4  A    between atoms: C_14  and  O_15 
REMARK    5  A    between atoms: O_15  and  C_16 
REMARK    6  A    between atoms: C_17  and  C_18 
ROOT
HETATM    1  N   UNL     1      41.758 -14.693   1.130  1.00  0.00    -0.265 N 
HETATM    2  C   UNL     1      41.963 -13.351   1.395  1.00  0.00     0.260 C 
HETATM    3  O   UNL     1      42.815 -12.930   2.176  1.00  0.00    -0.269 OA
HETATM    4  H   UNL     1      40.929 -15.023   0.644  1.00  0.00     0.190 HD
ENDROOT
BRANCH   1   5
HETATM    5  N   UNL     1      42.480 -15.637   1.866  1.00  0.00    -0.262 N 
HETATM    6  C   UNL     1      41.815 -16.631   2.566  1.00  0.00     0.291 C 
HETATM    7  O   UNL     1      40.618 -16.877   2.422  1.00  0.00    -0.264 OA
HETATM    8  H   UNL     1      43.403 -15.370   2.212  1.00  0.00     0.190 HD
BRANCH   6   9
HETATM    9  C   UNL     1      42.703 -17.359   3.486  1.00  0.00     0.158 A 
HETATM   10  C   UNL     1      43.310 -18.637   3.298  1.00  0.00     0.029 A 
HETATM   11  C   UNL     1      43.308 -19.629   2.296  1.00  0.00     0.023 A 
HETATM   12  C   UNL     1      44.064 -18.850   4.446  1.00  0.00     0.063 A 
HETATM   13  C   UNL     1      44.069 -20.799   2.478  1.00  0.00    -0.061 A 
HETATM   14  C   UNL     1      44.059 -21.884   1.441  1.00  0.00     0.048 C 
HETATM   15  C   UNL     1      44.814 -20.970   3.651  1.00  0.00     0.009 A 
HETATM   16  C   UNL     1      44.830 -19.999   4.658  1.00  0.00     0.032 A 
HETATM   17  N   UNL     1      43.863 -17.745   5.222  1.00  0.00    -0.277 N 
HETATM   18  H   UNL     1      44.259 -17.557   6.137  1.00  0.00     0.189 HD
HETATM   19  N   UNL     1      43.046 -16.826   4.681  1.00  0.00    -0.168 NA
ENDBRANCH   6   9
ENDBRANCH   1   5
BRANCH   2  20
HETATM   20  C   UNL     1      41.037 -12.429   0.607  1.00  0.00     0.280 C 
BRANCH  20  21
HETATM   21  O   UNL     1      40.828 -12.868  -0.725  1.00  0.00    -0.341 OA
BRANCH  21  22
HETATM   22  C   UNL     1      41.373 -12.148  -1.761  1.00  0.00     0.080 A 
HETATM   23  C   UNL     1      40.914 -12.475  -3.060  1.00  0.00     0.007 A 
HETATM   24  C   UNL     1      41.430 -11.754  -4.157  1.00  0.00     0.015 A 
HETATM   25  C   UNL     1      42.376 -10.746  -3.984  1.00  0.00     0.001 A 
HETATM   26  C   UNL     1      42.829 -10.443  -2.707  1.00  0.00     0.003 A 
HETATM   27  C   UNL     1      42.331 -11.138  -1.602  1.00  0.00     0.037 A 
BRANCH  23  28
HETATM   28  C   UNL     1      39.933 -13.550  -3.315  1.00  0.00    -0.023 A 
HETATM   29  C   UNL     1      38.553 -13.296  -3.315  1.00  0.00     0.012 A 
HETATM   30  C   UNL     1      37.634 -14.316  -3.577  1.00  0.00     0.001 A 
HETATM   31  C   UNL     1      38.081 -15.606  -3.849  1.00  0.00     0.000 A 
HETATM   32  C   UNL     1      39.447 -15.879  -3.856  1.00  0.00     0.001 A 
HETATM   33  C   UNL     1      40.363 -14.860  -3.591  1.00  0.00     0.012 A 
ENDBRANCH  23  28
ENDBRANCH  21  22
ENDBRANCH  20  21
ENDBRANCH   2  20
TORSDOF 6
ENDMDL
