MODEL 1
REMARK VINA RESULT:      -8.6      0.000      0.000
REMARK  13 active torsions:
REMARK  status: ('A' for Active; 'I' for Inactive)
REMARK    1  A    between atoms: O_2  and  C_3 
REMARK    2  A    between atoms: C_6  and  C_7 
REMARK    3  A    between atoms: C_7  and  C_8 
REMARK    4  A    between atoms: C_9  and  C_10 
REMARK    5  A    between atoms: N_17  and  C_18 
REMARK    6  A    between atoms: C_18  and  C_19 
REMARK    7  A    between atoms: C_19  and  O_20 
REMARK    8  A    between atoms: C_19  and  C_21 
REMARK    9  A    between atoms: C_21  and  N_22 
REMARK   10  A    between atoms: N_22  and  C_25 
REMARK   11  A    between atoms: C_25  and  C_26 
REMARK   12  A    between atoms: C_26  and  C_27 
REMARK   13  A    between atoms: C_32  and  O_33 
ROOT
HETATM    1  C   UNL     1      44.761 -18.696   6.261  1.00  0.00     0.162 C 
ENDROOT
BRANCH   1   2
HETATM    2  N   UNL     1      44.411 -18.879   4.860  1.00  0.00    -0.353 N 
HETATM    3  C   UNL     1      44.449 -20.077   4.178  1.00  0.00     0.045 A 
HETATM    4  C   UNL     1      43.954 -19.830   2.889  1.00  0.00     0.002 A 
HETATM    5  C   UNL     1      44.854 -21.360   4.590  1.00  0.00     0.030 A 
HETATM    6  C   UNL     1      43.666 -18.429   2.813  1.00  0.00    -0.008 A 
HETATM    7  C   UNL     1      43.833 -20.929   2.007  1.00  0.00     0.014 A 
HETATM    8  C   UNL     1      43.952 -17.880   4.046  1.00  0.00     0.103 A 
HETATM    9  C   UNL     1      44.237 -22.206   2.409  1.00  0.00     0.001 A 
HETATM   10  C   UNL     1      44.747 -22.415   3.684  1.00  0.00     0.002 A 
BRANCH   6  11
HETATM   11  C   UNL     1      43.155 -17.637   1.737  1.00  0.00     0.018 C 
HETATM   12  C   UNL     1      42.016 -16.926   1.740  1.00  0.00     0.056 C 
BRANCH  12  13
HETATM   13  C   UNL     1      41.643 -16.126   0.540  1.00  0.00     0.182 C 
HETATM   14  O   UNL     1      42.350 -16.115  -0.464  1.00  0.00    -0.288 OA
BRANCH  13  15
HETATM   15  C   UNL     1      40.419 -15.275   0.601  1.00  0.00     0.014 A 
HETATM   16  C   UNL     1      40.127 -14.279  -0.338  1.00  0.00     0.018 A 
HETATM   17  C   UNL     1      38.935 -13.552  -0.237  1.00  0.00     0.037 A 
HETATM   18  C   UNL     1      38.029 -13.797   0.796  1.00  0.00     0.068 A 
HETATM   19  C   UNL     1      38.333 -14.764   1.753  1.00  0.00     0.037 A 
HETATM   20  C   UNL     1      39.523 -15.496   1.656  1.00  0.00     0.018 A 
BRANCH  18  21
HETATM   21  O   UNL     1      36.901 -13.026   0.761  1.00  0.00    -0.356 OA
HETATM   22  C   UNL     1      37.072 -11.625   0.936  1.00  0.00     0.210 C 
ENDBRANCH  18  21
ENDBRANCH  13  15
ENDBRANCH  12  13
ENDBRANCH   6  11
ENDBRANCH   1   2
BRANCH   1  23
HETATM   23  C   UNL     1      43.530 -18.785   7.177  1.00  0.00     0.162 C 
BRANCH  23  24
HETATM   24  O   UNL     1      43.688 -19.827   8.143  1.00  0.00    -0.392 OA
HETATM   25  H   UNL     1      44.061 -19.447   8.967  1.00  0.00     0.210 HD
ENDBRANCH  23  24
BRANCH  23  26
HETATM   26  C   UNL     1      43.327 -17.491   7.989  1.00  0.00     0.265 C 
BRANCH  26  27
HETATM   27  N   UNL     1      43.988 -16.293   7.373  1.00  0.00    -0.072 N 
HETATM   28  H   UNL     1      44.409 -15.679   8.081  1.00  0.00     0.277 HD
HETATM   29  H   UNL     1      44.763 -16.618   6.776  1.00  0.00     0.277 HD
BRANCH  27  30
HETATM   30  C   UNL     1      43.083 -15.463   6.493  1.00  0.00     0.237 C 
BRANCH  30  31
HETATM   31  C   UNL     1      43.831 -14.288   5.862  1.00  0.00     0.068 C 
BRANCH  31  32
HETATM   32  C   UNL     1      43.134 -13.776   4.648  1.00  0.00    -0.029 A 
HETATM   33  C   UNL     1      41.897 -13.054   4.617  1.00  0.00     0.001 A 
HETATM   34  C   UNL     1      41.615 -12.769   3.282  1.00  0.00     0.043 A 
HETATM   35  C   UNL     1      40.989 -12.612   5.600  1.00  0.00     0.051 A 
HETATM   36  C   UNL     1      40.469 -12.070   2.886  1.00  0.00     0.033 A 
HETATM   37  N   UNL     1      42.642 -13.282   2.528  1.00  0.00    -0.365 N 
HETATM   38  C   UNL     1      39.581 -11.649   3.885  1.00  0.00     0.039 A 
HETATM   39  C   UNL     1      39.831 -11.913   5.229  1.00  0.00     0.069 A 
HETATM   40  H   UNL     1      42.708 -13.204   1.521  1.00  0.00     0.165 HD
HETATM   41  C   UNL     1      43.560 -13.899   3.339  1.00  0.00     0.096 A 
BRANCH  39  42
HETATM   42  O   UNL     1      39.035 -11.551   6.283  1.00  0.00    -0.356 OA
HETATM   43  C   UNL     1      39.685 -10.988   7.417  1.00  0.00     0.210 C 
ENDBRANCH  39  42
ENDBRANCH  31  32
ENDBRANCH  30  31
ENDBRANCH  27  30
ENDBRANCH  26  27
ENDBRANCH  23  26
ENDBRANCH   1  23
TORSDOF 13
ENDMDL
MODEL 2
REMARK VINA RESULT:      -8.2      2.023      3.098
REMARK  13 active torsions:
REMARK  status: ('A' for Active; 'I' for Inactive)
REMARK    1  A    between atoms: O_2  and  C_3 
REMARK    2  A    between atoms: C_6  and  C_7 
REMARK    3  A    between atoms: C_7  and  C_8 
REMARK    4  A    between atoms: C_9  and  C_10 
REMARK    5  A    between atoms: N_17  and  C_18 
REMARK    6  A    between atoms: C_18  and  C_19 
REMARK    7  A    between atoms: C_19  and  O_20 
REMARK    8  A    between atoms: C_19  and  C_21 
REMARK    9  A    between atoms: C_21  and  N_22 
REMARK   10  A    between atoms: N_22  and  C_25 
REMARK   11  A    between atoms: C_25  and  C_26 
REMARK   12  A    between atoms: C_26  and  C_27 
REMARK   13  A    between atoms: C_32  and  O_33 
ROOT
HETATM    1  C   UNL     1      44.340 -17.828   5.784  1.00  0.00     0.162 C 
ENDROOT
BRANCH   1   2
HETATM    2  N   UNL     1      43.950 -18.152   4.420  1.00  0.00    -0.353 N 
HETATM    3  C   UNL     1      44.109 -19.381   3.815  1.00  0.00     0.045 A 
HETATM    4  C   UNL     1      43.524 -19.290   2.543  1.00  0.00     0.002 A 
HETATM    5  C   UNL     1      44.695 -20.571   4.285  1.00  0.00     0.030 A 
HETATM    6  C   UNL     1      43.055 -17.945   2.394  1.00  0.00    -0.008 A 
HETATM    7  C   UNL     1      43.504 -20.455   1.742  1.00  0.00     0.014 A 
HETATM    8  C   UNL     1      43.327 -17.279   3.572  1.00  0.00     0.103 A 
HETATM    9  C   UNL     1      44.087 -21.640   2.202  1.00  0.00     0.001 A 
HETATM   10  C   UNL     1      44.681 -21.692   3.456  1.00  0.00     0.002 A 
BRANCH   6  11
HETATM   11  C   UNL     1      42.394 -17.301   1.301  1.00  0.00     0.018 C 
HETATM   12  C   UNL     1      42.391 -15.986   1.032  1.00  0.00     0.056 C 
BRANCH  12  13
HETATM   13  C   UNL     1      41.674 -15.481  -0.173  1.00  0.00     0.182 C 
HETATM   14  O   UNL     1      41.305 -16.245  -1.061  1.00  0.00    -0.288 OA
BRANCH  13  15
HETATM   15  C   UNL     1      41.469 -14.011  -0.318  1.00  0.00     0.014 A 
HETATM   16  C   UNL     1      42.057 -13.065   0.530  1.00  0.00     0.018 A 
HETATM   17  C   UNL     1      41.851 -11.700   0.303  1.00  0.00     0.037 A 
HETATM   18  C   UNL     1      41.058 -11.259  -0.758  1.00  0.00     0.068 A 
HETATM   19  C   UNL     1      40.443 -12.199  -1.584  1.00  0.00     0.037 A 
HETATM   20  C   UNL     1      40.646 -13.567  -1.362  1.00  0.00     0.018 A 
BRANCH  18  21
HETATM   21  O   UNL     1      40.960  -9.901  -0.872  1.00  0.00    -0.356 OA
HETATM   22  C   UNL     1      41.791  -9.121  -0.021  1.00  0.00     0.210 C 
ENDBRANCH  18  21
ENDBRANCH  13  15
ENDBRANCH  12  13
ENDBRANCH   6  11
ENDBRANCH   1   2
BRANCH   1  23
HETATM   23  C   UNL     1      43.289 -16.961   6.493  1.00  0.00     0.162 C 
BRANCH  23  24
HETATM   24  O   UNL     1      42.971 -17.494   7.782  1.00  0.00    -0.392 OA
HETATM   25  H   UNL     1      43.600 -17.132   8.442  1.00  0.00     0.210 HD
ENDBRANCH  23  24
BRANCH  23  26
HETATM   26  C   UNL     1      43.804 -15.531   6.749  1.00  0.00     0.265 C 
BRANCH  26  27
HETATM   27  N   UNL     1      43.069 -14.485   5.963  1.00  0.00    -0.072 N 
HETATM   28  H   UNL     1      43.067 -13.575   6.442  1.00  0.00     0.277 HD
HETATM   29  H   UNL     1      43.561 -14.340   5.070  1.00  0.00     0.277 HD
BRANCH  27  30
HETATM   30  C   UNL     1      41.644 -14.850   5.619  1.00  0.00     0.237 C 
BRANCH  30  31
HETATM   31  C   UNL     1      40.968 -13.760   4.785  1.00  0.00     0.068 C 
BRANCH  31  32
HETATM   32  C   UNL     1      40.126 -14.337   3.699  1.00  0.00    -0.029 A 
HETATM   33  C   UNL     1      39.313 -13.607   2.773  1.00  0.00     0.001 A 
HETATM   34  C   UNL     1      38.704 -14.535   1.932  1.00  0.00     0.043 A 
HETATM   35  C   UNL     1      39.038 -12.239   2.569  1.00  0.00     0.051 A 
HETATM   36  C   UNL     1      37.832 -14.163   0.903  1.00  0.00     0.033 A 
HETATM   37  N   UNL     1      39.137 -15.782   2.316  1.00  0.00    -0.365 N 
HETATM   38  C   UNL     1      37.571 -12.797   0.727  1.00  0.00     0.039 A 
HETATM   39  C   UNL     1      38.164 -11.840   1.546  1.00  0.00     0.069 A 
HETATM   40  H   UNL     1      38.867 -16.646   1.863  1.00  0.00     0.165 HD
HETATM   41  C   UNL     1      39.988 -15.675   3.386  1.00  0.00     0.096 A 
BRANCH  39  42
HETATM   42  O   UNL     1      37.981 -10.486   1.465  1.00  0.00    -0.356 OA
HETATM   43  C   UNL     1      36.755  -9.971   1.973  1.00  0.00     0.210 C 
ENDBRANCH  39  42
ENDBRANCH  31  32
ENDBRANCH  30  31
ENDBRANCH  27  30
ENDBRANCH  26  27
ENDBRANCH  23  26
ENDBRANCH   1  23
TORSDOF 13
ENDMDL
MODEL 3
REMARK VINA RESULT:      -7.9      2.960      5.375
REMARK  13 active torsions:
REMARK  status: ('A' for Active; 'I' for Inactive)
REMARK    1  A    between atoms: O_2  and  C_3 
REMARK    2  A    between atoms: C_6  and  C_7 
REMARK    3  A    between atoms: C_7  and  C_8 
REMARK    4  A    between atoms: C_9  and  C_10 
REMARK    5  A    between atoms: N_17  and  C_18 
REMARK    6  A    between atoms: C_18  and  C_19 
REMARK    7  A    between atoms: C_19  and  O_20 
REMARK    8  A    between atoms: C_19  and  C_21 
REMARK    9  A    between atoms: C_21  and  N_22 
REMARK   10  A    between atoms: N_22  and  C_25 
REMARK   11  A    between atoms: C_25  and  C_26 
REMARK   12  A    between atoms: C_26  and  C_27 
REMARK   13  A    between atoms: C_32  and  O_33 
ROOT
HETATM    1  C   UNL     1      41.989 -16.258   5.221  1.00  0.00     0.162 C 
ENDROOT
BRANCH   1   2
HETATM    2  N   UNL     1      42.344 -16.725   3.889  1.00  0.00    -0.353 N 
HETATM    3  C   UNL     1      43.050 -17.876   3.609  1.00  0.00     0.045 A 
HETATM    4  C   UNL     1      43.095 -17.999   2.213  1.00  0.00     0.002 A 
HETATM    5  C   UNL     1      43.633 -18.831   4.463  1.00  0.00     0.030 A 
HETATM    6  C   UNL     1      42.431 -16.852   1.670  1.00  0.00    -0.008 A 
HETATM    7  C   UNL     1      43.719 -19.147   1.672  1.00  0.00     0.014 A 
HETATM    8  C   UNL     1      41.976 -16.097   2.731  1.00  0.00     0.103 A 
HETATM    9  C   UNL     1      44.302 -20.098   2.515  1.00  0.00     0.001 A 
HETATM   10  C   UNL     1      44.264 -19.936   3.893  1.00  0.00     0.002 A 
BRANCH   6  11
HETATM   11  C   UNL     1      42.197 -16.463   0.314  1.00  0.00     0.018 C 
HETATM   12  C   UNL     1      41.393 -15.473  -0.106  1.00  0.00     0.056 C 
BRANCH  12  13
HETATM   13  C   UNL     1      41.285 -15.177  -1.562  1.00  0.00     0.182 C 
HETATM   14  O   UNL     1      40.962 -16.046  -2.366  1.00  0.00    -0.288 OA
BRANCH  13  15
HETATM   15  C   UNL     1      41.645 -13.811  -2.041  1.00  0.00     0.014 A 
HETATM   16  C   UNL     1      42.221 -12.835  -1.220  1.00  0.00     0.018 A 
HETATM   17  C   UNL     1      42.572 -11.590  -1.755  1.00  0.00     0.037 A 
HETATM   18  C   UNL     1      42.348 -11.298  -3.102  1.00  0.00     0.068 A 
HETATM   19  C   UNL     1      41.742 -12.254  -3.914  1.00  0.00     0.037 A 
HETATM   20  C   UNL     1      41.391 -13.503  -3.385  1.00  0.00     0.018 A 
BRANCH  18  21
HETATM   21  O   UNL     1      42.755 -10.052  -3.491  1.00  0.00    -0.356 OA
HETATM   22  C   UNL     1      42.762  -9.036  -2.496  1.00  0.00     0.210 C 
ENDBRANCH  18  21
ENDBRANCH  13  15
ENDBRANCH  12  13
ENDBRANCH   6  11
ENDBRANCH   1   2
BRANCH   1  23
HETATM   23  C   UNL     1      40.639 -15.525   5.233  1.00  0.00     0.162 C 
BRANCH  23  24
HETATM   24  O   UNL     1      39.817 -15.988   6.307  1.00  0.00    -0.392 OA
HETATM   25  H   UNL     1      40.214 -15.708   7.159  1.00  0.00     0.210 HD
ENDBRANCH  23  24
BRANCH  23  26
HETATM   26  C   UNL     1      40.811 -14.011   5.463  1.00  0.00     0.265 C 
BRANCH  26  27
HETATM   27  N   UNL     1      39.841 -13.177   4.680  1.00  0.00    -0.072 N 
HETATM   28  H   UNL     1      38.906 -13.604   4.645  1.00  0.00     0.277 HD
HETATM   29  H   UNL     1      39.726 -12.272   5.158  1.00  0.00     0.277 HD
BRANCH  27  30
HETATM   30  C   UNL     1      40.280 -12.868   3.268  1.00  0.00     0.237 C 
BRANCH  30  31
HETATM   31  C   UNL     1      39.197 -13.227   2.248  1.00  0.00     0.068 C 
BRANCH  31  32
HETATM   32  C   UNL     1      39.167 -12.264   1.111  1.00  0.00    -0.029 A 
HETATM   33  C   UNL     1      38.714 -12.532  -0.221  1.00  0.00     0.001 A 
HETATM   34  C   UNL     1      38.856 -11.356  -0.954  1.00  0.00     0.043 A 
HETATM   35  C   UNL     1      38.193 -13.667  -0.874  1.00  0.00     0.051 A 
HETATM   36  C   UNL     1      38.508 -11.262  -2.306  1.00  0.00     0.033 A 
HETATM   37  N   UNL     1      39.362 -10.402  -0.103  1.00  0.00    -0.365 N 
HETATM   38  C   UNL     1      37.998 -12.409  -2.931  1.00  0.00     0.039 A 
HETATM   39  C   UNL     1      37.839 -13.601  -2.230  1.00  0.00     0.069 A 
HETATM   40  H   UNL     1      39.548  -9.442  -0.366  1.00  0.00     0.165 HD
HETATM   41  C   UNL     1      39.561 -10.940   1.142  1.00  0.00     0.096 A 
BRANCH  39  42
HETATM   42  O   UNL     1      37.354 -14.776  -2.739  1.00  0.00    -0.356 OA
HETATM   43  C   UNL     1      38.026 -15.312  -3.873  1.00  0.00     0.210 C 
ENDBRANCH  39  42
ENDBRANCH  31  32
ENDBRANCH  30  31
ENDBRANCH  27  30
ENDBRANCH  26  27
ENDBRANCH  23  26
ENDBRANCH   1  23
TORSDOF 13
ENDMDL
MODEL 4
REMARK VINA RESULT:      -7.9      2.719      8.102
REMARK  13 active torsions:
REMARK  status: ('A' for Active; 'I' for Inactive)
REMARK    1  A    between atoms: O_2  and  C_3 
REMARK    2  A    between atoms: C_6  and  C_7 
REMARK    3  A    between atoms: C_7  and  C_8 
REMARK    4  A    between atoms: C_9  and  C_10 
REMARK    5  A    between atoms: N_17  and  C_18 
REMARK    6  A    between atoms: C_18  and  C_19 
REMARK    7  A    between atoms: C_19  and  O_20 
REMARK    8  A    between atoms: C_19  and  C_21 
REMARK    9  A    between atoms: C_21  and  N_22 
REMARK   10  A    between atoms: N_22  and  C_25 
REMARK   11  A    between atoms: C_25  and  C_26 
REMARK   12  A    between atoms: C_26  and  C_27 
REMARK   13  A    between atoms: C_32  and  O_33 
ROOT
HETATM    1  C   UNL     1      40.961 -13.697  -2.654  1.00  0.00     0.162 C 
ENDROOT
BRANCH   1   2
HETATM    2  N   UNL     1      40.408 -13.989  -1.340  1.00  0.00    -0.353 N 
HETATM    3  C   UNL     1      39.253 -13.444  -0.821  1.00  0.00     0.045 A 
HETATM    4  C   UNL     1      39.034 -14.056   0.422  1.00  0.00     0.002 A 
HETATM    5  C   UNL     1      38.370 -12.482  -1.347  1.00  0.00     0.030 A 
HETATM    6  C   UNL     1      40.129 -14.951   0.646  1.00  0.00    -0.008 A 
HETATM    7  C   UNL     1      37.862 -13.705   1.132  1.00  0.00     0.014 A 
HETATM    8  C   UNL     1      40.948 -14.889  -0.463  1.00  0.00     0.103 A 
HETATM    9  C   UNL     1      36.982 -12.748   0.616  1.00  0.00     0.001 A 
HETATM   10  C   UNL     1      37.239 -12.141  -0.606  1.00  0.00     0.002 A 
BRANCH   6  11
HETATM   11  C   UNL     1      40.419 -15.815   1.749  1.00  0.00     0.018 C 
HETATM   12  C   UNL     1      41.578 -15.891   2.421  1.00  0.00     0.056 C 
BRANCH  12  13
HETATM   13  C   UNL     1      41.704 -16.828   3.572  1.00  0.00     0.182 C 
HETATM   14  O   UNL     1      41.138 -16.607   4.639  1.00  0.00    -0.288 OA
BRANCH  13  15
HETATM   15  C   UNL     1      42.594 -18.017   3.430  1.00  0.00     0.014 A 
HETATM   16  C   UNL     1      43.308 -18.575   4.497  1.00  0.00     0.018 A 
HETATM   17  C   UNL     1      44.089 -19.719   4.293  1.00  0.00     0.037 A 
HETATM   18  C   UNL     1      44.176 -20.314   3.034  1.00  0.00     0.068 A 
HETATM   19  C   UNL     1      43.494 -19.741   1.961  1.00  0.00     0.037 A 
HETATM   20  C   UNL     1      42.709 -18.597   2.159  1.00  0.00     0.018 A 
BRANCH  18  21
HETATM   21  O   UNL     1      44.958 -21.434   2.985  1.00  0.00    -0.356 OA
HETATM   22  C   UNL     1      44.646 -22.478   3.899  1.00  0.00     0.210 C 
ENDBRANCH  18  21
ENDBRANCH  13  15
ENDBRANCH  12  13
ENDBRANCH   6  11
ENDBRANCH   1   2
BRANCH   1  23
HETATM   23  C   UNL     1      42.273 -12.902  -2.564  1.00  0.00     0.162 C 
BRANCH  23  24
HETATM   24  O   UNL     1      43.343 -13.610  -3.194  1.00  0.00    -0.392 OA
HETATM   25  H   UNL     1      44.196 -13.296  -2.825  1.00  0.00     0.210 HD
ENDBRANCH  23  24
BRANCH  23  26
HETATM   26  C   UNL     1      42.175 -11.552  -3.300  1.00  0.00     0.265 C 
BRANCH  26  27
HETATM   27  N   UNL     1      41.183 -10.610  -2.683  1.00  0.00    -0.072 N 
HETATM   28  H   UNL     1      40.844  -9.911  -3.357  1.00  0.00     0.277 HD
HETATM   29  H   UNL     1      40.356 -11.150  -2.389  1.00  0.00     0.277 HD
BRANCH  27  30
HETATM   30  C   UNL     1      41.687  -9.888  -1.455  1.00  0.00     0.237 C 
BRANCH  30  31
HETATM   31  C   UNL     1      40.644  -9.882  -0.336  1.00  0.00     0.068 C 
BRANCH  31  32
HETATM   32  C   UNL     1      41.022 -10.800   0.776  1.00  0.00    -0.029 A 
HETATM   33  C   UNL     1      40.310 -10.986   2.005  1.00  0.00     0.001 A 
HETATM   34  C   UNL     1      41.009 -11.934   2.750  1.00  0.00     0.043 A 
HETATM   35  C   UNL     1      39.135 -10.438   2.556  1.00  0.00     0.051 A 
HETATM   36  C   UNL     1      40.590 -12.355   4.018  1.00  0.00     0.033 A 
HETATM   37  N   UNL     1      42.094 -12.324   2.003  1.00  0.00    -0.365 N 
HETATM   38  C   UNL     1      39.421 -11.788   4.543  1.00  0.00     0.039 A 
HETATM   39  C   UNL     1      38.696 -10.840   3.826  1.00  0.00     0.069 A 
HETATM   40  H   UNL     1      42.768 -13.021   2.293  1.00  0.00     0.165 HD
HETATM   41  C   UNL     1      42.117 -11.641   0.814  1.00  0.00     0.096 A 
BRANCH  39  42
HETATM   42  O   UNL     1      37.546 -10.223   4.241  1.00  0.00    -0.356 OA
HETATM   43  C   UNL     1      37.578  -8.804   4.343  1.00  0.00     0.210 C 
ENDBRANCH  39  42
ENDBRANCH  31  32
ENDBRANCH  30  31
ENDBRANCH  27  30
ENDBRANCH  26  27
ENDBRANCH  23  26
ENDBRANCH   1  23
TORSDOF 13
ENDMDL
MODEL 5
REMARK VINA RESULT:      -7.8      2.916      8.067
REMARK  13 active torsions:
REMARK  status: ('A' for Active; 'I' for Inactive)
REMARK    1  A    between atoms: O_2  and  C_3 
REMARK    2  A    between atoms: C_6  and  C_7 
REMARK    3  A    between atoms: C_7  and  C_8 
REMARK    4  A    between atoms: C_9  and  C_10 
REMARK    5  A    between atoms: N_17  and  C_18 
REMARK    6  A    between atoms: C_18  and  C_19 
REMARK    7  A    between atoms: C_19  and  O_20 
REMARK    8  A    between atoms: C_19  and  C_21 
REMARK    9  A    between atoms: C_21  and  N_22 
REMARK   10  A    between atoms: N_22  and  C_25 
REMARK   11  A    between atoms: C_25  and  C_26 
REMARK   12  A    between atoms: C_26  and  C_27 
REMARK   13  A    between atoms: C_32  and  O_33 
ROOT
HETATM    1  C   UNL     1      41.219 -14.177  -2.356  1.00  0.00     0.162 C 
ENDROOT
BRANCH   1   2
HETATM    2  N   UNL     1      40.598 -14.364  -1.054  1.00  0.00    -0.353 N 
HETATM    3  C   UNL     1      39.417 -13.783  -0.641  1.00  0.00     0.045 A 
HETATM    4  C   UNL     1      39.133 -14.294   0.634  1.00  0.00     0.002 A 
HETATM    5  C   UNL     1      38.563 -12.871  -1.289  1.00  0.00     0.030 A 
HETATM    6  C   UNL     1      40.215 -15.164   0.987  1.00  0.00    -0.008 A 
HETATM    7  C   UNL     1      37.926 -13.892   1.251  1.00  0.00     0.014 A 
HETATM    8  C   UNL     1      41.091 -15.188  -0.079  1.00  0.00     0.103 A 
HETATM    9  C   UNL     1      37.074 -12.984   0.614  1.00  0.00     0.001 A 
HETATM   10  C   UNL     1      37.395 -12.476  -0.637  1.00  0.00     0.002 A 
BRANCH   6  11
HETATM   11  C   UNL     1      40.447 -15.935   2.169  1.00  0.00     0.018 C 
HETATM   12  C   UNL     1      41.628 -16.408   2.596  1.00  0.00     0.056 C 
BRANCH  12  13
HETATM   13  C   UNL     1      41.700 -17.171   3.873  1.00  0.00     0.182 C 
HETATM   14  O   UNL     1      40.966 -16.900   4.819  1.00  0.00    -0.288 OA
BRANCH  13  15
HETATM   15  C   UNL     1      42.735 -18.236   4.011  1.00  0.00     0.014 A 
HETATM   16  C   UNL     1      43.297 -18.608   5.238  1.00  0.00     0.018 A 
HETATM   17  C   UNL     1      44.232 -19.649   5.291  1.00  0.00     0.037 A 
HETATM   18  C   UNL     1      44.624 -20.323   4.133  1.00  0.00     0.068 A 
HETATM   19  C   UNL     1      44.093 -19.931   2.905  1.00  0.00     0.037 A 
HETATM   20  C   UNL     1      43.155 -18.892   2.845  1.00  0.00     0.018 A 
BRANCH  18  21
HETATM   21  O   UNL     1      45.529 -21.327   4.335  1.00  0.00    -0.356 OA
HETATM   22  C   UNL     1      45.096 -22.436   5.114  1.00  0.00     0.210 C 
ENDBRANCH  18  21
ENDBRANCH  13  15
ENDBRANCH  12  13
ENDBRANCH   6  11
ENDBRANCH   1   2
BRANCH   1  23
HETATM   23  C   UNL     1      42.411 -13.209  -2.292  1.00  0.00     0.162 C 
BRANCH  23  24
HETATM   24  O   UNL     1      43.473 -13.650  -3.142  1.00  0.00    -0.392 OA
HETATM   25  H   UNL     1      44.095 -12.906  -3.289  1.00  0.00     0.210 HD
ENDBRANCH  23  24
BRANCH  23  26
HETATM   26  C   UNL     1      42.032 -11.802  -2.794  1.00  0.00     0.265 C 
BRANCH  26  27
HETATM   27  N   UNL     1      42.825 -10.706  -2.143  1.00  0.00    -0.072 N 
HETATM   28  H   UNL     1      43.765 -11.021  -1.871  1.00  0.00     0.277 HD
HETATM   29  H   UNL     1      42.961  -9.949  -2.828  1.00  0.00     0.277 HD
BRANCH  27  30
HETATM   30  C   UNL     1      42.159 -10.085  -0.938  1.00  0.00     0.237 C 
BRANCH  30  31
HETATM   31  C   UNL     1      42.097 -11.061   0.239  1.00  0.00     0.068 C 
BRANCH  31  32
HETATM   32  C   UNL     1      40.882 -10.845   1.073  1.00  0.00    -0.029 A 
HETATM   33  C   UNL     1      40.585 -11.474   2.326  1.00  0.00     0.001 A 
HETATM   34  C   UNL     1      39.355 -10.981   2.758  1.00  0.00     0.043 A 
HETATM   35  C   UNL     1      41.249 -12.417   3.136  1.00  0.00     0.051 A 
HETATM   36  C   UNL     1      38.758 -11.390   3.956  1.00  0.00     0.033 A 
HETATM   37  N   UNL     1      38.923 -10.077   1.818  1.00  0.00    -0.365 N 
HETATM   38  C   UNL     1      39.438 -12.334   4.738  1.00  0.00     0.039 A 
HETATM   39  C   UNL     1      40.670 -12.846   4.340  1.00  0.00     0.069 A 
HETATM   40  H   UNL     1      38.062  -9.549   1.885  1.00  0.00     0.165 HD
HETATM   41  C   UNL     1      39.831  -9.992   0.794  1.00  0.00     0.096 A 
BRANCH  39  42
HETATM   42  O   UNL     1      41.417 -13.768   5.022  1.00  0.00    -0.356 OA
HETATM   43  C   UNL     1      42.536 -13.278   5.750  1.00  0.00     0.210 C 
ENDBRANCH  39  42
ENDBRANCH  31  32
ENDBRANCH  30  31
ENDBRANCH  27  30
ENDBRANCH  26  27
ENDBRANCH  23  26
ENDBRANCH   1  23
TORSDOF 13
ENDMDL
MODEL 6
REMARK VINA RESULT:      -7.8      3.455      8.158
REMARK  13 active torsions:
REMARK  status: ('A' for Active; 'I' for Inactive)
REMARK    1  A    between atoms: O_2  and  C_3 
REMARK    2  A    between atoms: C_6  and  C_7 
REMARK    3  A    between atoms: C_7  and  C_8 
REMARK    4  A    between atoms: C_9  and  C_10 
REMARK    5  A    between atoms: N_17  and  C_18 
REMARK    6  A    between atoms: C_18  and  C_19 
REMARK    7  A    between atoms: C_19  and  O_20 
REMARK    8  A    between atoms: C_19  and  C_21 
REMARK    9  A    between atoms: C_21  and  N_22 
REMARK   10  A    between atoms: N_22  and  C_25 
REMARK   11  A    between atoms: C_25  and  C_26 
REMARK   12  A    between atoms: C_26  and  C_27 
REMARK   13  A    between atoms: C_32  and  O_33 
ROOT
HETATM    1  C   UNL     1      40.115 -12.692   5.021  1.00  0.00     0.162 C 
ENDROOT
BRANCH   1   2
HETATM    2  N   UNL     1      40.606 -14.051   4.845  1.00  0.00    -0.353 N 
HETATM    3  C   UNL     1      40.365 -14.851   3.748  1.00  0.00     0.045 A 
HETATM    4  C   UNL     1      41.089 -16.037   3.940  1.00  0.00     0.002 A 
HETATM    5  C   UNL     1      39.593 -14.625   2.594  1.00  0.00     0.030 A 
HETATM    6  C   UNL     1      41.730 -15.934   5.217  1.00  0.00    -0.008 A 
HETATM    7  C   UNL     1      41.054 -17.005   2.910  1.00  0.00     0.014 A 
HETATM    8  C   UNL     1      41.417 -14.696   5.738  1.00  0.00     0.103 A 
HETATM    9  C   UNL     1      40.286 -16.787   1.761  1.00  0.00     0.001 A 
HETATM   10  C   UNL     1      39.560 -15.613   1.611  1.00  0.00     0.002 A 
BRANCH   6  11
HETATM   11  C   UNL     1      42.576 -16.853   5.914  1.00  0.00     0.018 C 
HETATM   12  C   UNL     1      42.712 -16.961   7.245  1.00  0.00     0.056 C 
BRANCH  12  13
HETATM   13  C   UNL     1      43.618 -17.998   7.813  1.00  0.00     0.182 C 
HETATM   14  O   UNL     1      44.106 -17.874   8.933  1.00  0.00    -0.288 OA
BRANCH  13  15
HETATM   15  C   UNL     1      43.982 -19.170   6.965  1.00  0.00     0.014 A 
HETATM   16  C   UNL     1      43.621 -20.486   7.275  1.00  0.00     0.018 A 
HETATM   17  C   UNL     1      43.963 -21.528   6.406  1.00  0.00     0.037 A 
HETATM   18  C   UNL     1      44.671 -21.279   5.229  1.00  0.00     0.068 A 
HETATM   19  C   UNL     1      45.063 -19.974   4.934  1.00  0.00     0.037 A 
HETATM   20  C   UNL     1      44.722 -18.927   5.799  1.00  0.00     0.018 A 
BRANCH  18  21
HETATM   21  O   UNL     1      44.920 -22.386   4.467  1.00  0.00    -0.356 OA
HETATM   22  C   UNL     1      44.535 -22.327   3.099  1.00  0.00     0.210 C 
ENDBRANCH  18  21
ENDBRANCH  13  15
ENDBRANCH  12  13
ENDBRANCH   6  11
ENDBRANCH   1   2
BRANCH   1  23
HETATM   23  C   UNL     1      41.179 -11.771   5.638  1.00  0.00     0.162 C 
BRANCH  23  24
HETATM   24  O   UNL     1      41.391 -10.617   4.821  1.00  0.00    -0.392 OA
HETATM   25  H   UNL     1      40.644  -9.994   4.946  1.00  0.00     0.210 HD
ENDBRANCH  23  24
BRANCH  23  26
HETATM   26  C   UNL     1      40.741 -11.233   7.014  1.00  0.00     0.265 C 
BRANCH  26  27
HETATM   27  N   UNL     1      39.692 -12.079   7.676  1.00  0.00    -0.072 N 
HETATM   28  H   UNL     1      38.950 -12.354   7.020  1.00  0.00     0.277 HD
HETATM   29  H   UNL     1      40.131 -12.953   7.997  1.00  0.00     0.277 HD
BRANCH  27  30
HETATM   30  C   UNL     1      39.052 -11.444   8.888  1.00  0.00     0.237 C 
BRANCH  30  31
HETATM   31  C   UNL     1      39.677 -10.085   9.211  1.00  0.00     0.068 C 
BRANCH  31  32
HETATM   32  C   UNL     1      40.470 -10.127  10.472  1.00  0.00    -0.029 A 
HETATM   33  C   UNL     1      41.885 -10.316  10.582  1.00  0.00     0.001 A 
HETATM   34  C   UNL     1      42.205 -10.283  11.938  1.00  0.00     0.043 A 
HETATM   35  C   UNL     1      42.928 -10.509   9.654  1.00  0.00     0.051 A 
HETATM   36  C   UNL     1      43.514 -10.440  12.408  1.00  0.00     0.033 A 
HETATM   37  N   UNL     1      41.037 -10.070  12.629  1.00  0.00    -0.365 N 
HETATM   38  C   UNL     1      44.530 -10.638  11.463  1.00  0.00     0.039 A 
HETATM   39  C   UNL     1      44.249 -10.672  10.100  1.00  0.00     0.069 A 
HETATM   40  H   UNL     1      40.975  -9.982  13.636  1.00  0.00     0.165 HD
HETATM   41  C   UNL     1      39.983  -9.982  11.757  1.00  0.00     0.096 A 
BRANCH  39  42
HETATM   42  O   UNL     1      45.159 -10.859   9.094  1.00  0.00    -0.356 OA
HETATM   43  C   UNL     1      45.689 -12.171   8.942  1.00  0.00     0.210 C 
ENDBRANCH  39  42
ENDBRANCH  31  32
ENDBRANCH  30  31
ENDBRANCH  27  30
ENDBRANCH  26  27
ENDBRANCH  23  26
ENDBRANCH   1  23
TORSDOF 13
ENDMDL
MODEL 7
REMARK VINA RESULT:      -7.8      3.395      4.616
REMARK  13 active torsions:
REMARK  status: ('A' for Active; 'I' for Inactive)
REMARK    1  A    between atoms: O_2  and  C_3 
REMARK    2  A    between atoms: C_6  and  C_7 
REMARK    3  A    between atoms: C_7  and  C_8 
REMARK    4  A    between atoms: C_9  and  C_10 
REMARK    5  A    between atoms: N_17  and  C_18 
REMARK    6  A    between atoms: C_18  and  C_19 
REMARK    7  A    between atoms: C_19  and  O_20 
REMARK    8  A    between atoms: C_19  and  C_21 
REMARK    9  A    between atoms: C_21  and  N_22 
REMARK   10  A    between atoms: N_22  and  C_25 
REMARK   11  A    between atoms: C_25  and  C_26 
REMARK   12  A    between atoms: C_26  and  C_27 
REMARK   13  A    between atoms: C_32  and  O_33 
ROOT
HETATM    1  C   UNL     1      40.745 -17.120   4.957  1.00  0.00     0.162 C 
ENDROOT
BRANCH   1   2
HETATM    2  N   UNL     1      41.373 -17.082   3.645  1.00  0.00    -0.353 N 
HETATM    3  C   UNL     1      42.386 -17.917   3.221  1.00  0.00     0.045 A 
HETATM    4  C   UNL     1      42.636 -17.607   1.876  1.00  0.00     0.002 A 
HETATM    5  C   UNL     1      43.087 -18.933   3.897  1.00  0.00     0.030 A 
HETATM    6  C   UNL     1      41.769 -16.522   1.529  1.00  0.00    -0.008 A 
HETATM    7  C   UNL     1      43.602 -18.379   1.190  1.00  0.00     0.014 A 
HETATM    8  C   UNL     1      41.002 -16.233   2.639  1.00  0.00     0.103 A 
HETATM    9  C   UNL     1      44.304 -19.388   1.857  1.00  0.00     0.001 A 
HETATM   10  C   UNL     1      44.052 -19.655   3.196  1.00  0.00     0.002 A 
BRANCH   6  11
HETATM   11  C   UNL     1      41.612 -15.807   0.300  1.00  0.00     0.018 C 
HETATM   12  C   UNL     1      41.798 -14.491   0.111  1.00  0.00     0.056 C 
BRANCH  12  13
HETATM   13  C   UNL     1      41.622 -13.908  -1.249  1.00  0.00     0.182 C 
HETATM   14  O   UNL     1      42.408 -13.074  -1.690  1.00  0.00    -0.288 OA
BRANCH  13  15
HETATM   15  C   UNL     1      40.426 -14.304  -2.047  1.00  0.00     0.014 A 
HETATM   16  C   UNL     1      39.152 -13.764  -1.843  1.00  0.00     0.018 A 
HETATM   17  C   UNL     1      38.087 -14.156  -2.663  1.00  0.00     0.037 A 
HETATM   18  C   UNL     1      38.272 -15.090  -3.683  1.00  0.00     0.068 A 
HETATM   19  C   UNL     1      39.532 -15.657  -3.866  1.00  0.00     0.037 A 
HETATM   20  C   UNL     1      40.602 -15.268  -3.050  1.00  0.00     0.018 A 
BRANCH  18  21
HETATM   21  O   UNL     1      37.151 -15.365  -4.415  1.00  0.00    -0.356 OA
HETATM   22  C   UNL     1      36.180 -14.331  -4.519  1.00  0.00     0.210 C 
ENDBRANCH  18  21
ENDBRANCH  13  15
ENDBRANCH  12  13
ENDBRANCH   6  11
ENDBRANCH   1   2
BRANCH   1  23
HETATM   23  C   UNL     1      41.283 -16.019   5.885  1.00  0.00     0.162 C 
BRANCH  23  24
HETATM   24  O   UNL     1      40.215 -15.368   6.577  1.00  0.00    -0.392 OA
HETATM   25  H   UNL     1      40.105 -14.462   6.217  1.00  0.00     0.210 HD
ENDBRANCH  23  24
BRANCH  23  26
HETATM   26  C   UNL     1      42.201 -16.595   6.981  1.00  0.00     0.265 C 
BRANCH  26  27
HETATM   27  N   UNL     1      43.595 -16.874   6.502  1.00  0.00    -0.072 N 
HETATM   28  H   UNL     1      43.905 -17.822   6.750  1.00  0.00     0.277 HD
HETATM   29  H   UNL     1      43.603 -16.829   5.472  1.00  0.00     0.277 HD
BRANCH  27  30
HETATM   30  C   UNL     1      44.632 -15.888   6.987  1.00  0.00     0.237 C 
BRANCH  30  31
HETATM   31  C   UNL     1      44.182 -14.442   6.768  1.00  0.00     0.068 C 
BRANCH  31  32
HETATM   32  C   UNL     1      45.159 -13.467   7.330  1.00  0.00    -0.029 A 
HETATM   33  C   UNL     1      44.985 -12.670   8.508  1.00  0.00     0.001 A 
HETATM   34  C   UNL     1      46.140 -11.908   8.668  1.00  0.00     0.043 A 
HETATM   35  C   UNL     1      43.953 -12.526   9.456  1.00  0.00     0.051 A 
HETATM   36  C   UNL     1      46.309 -11.007   9.726  1.00  0.00     0.033 A 
HETATM   37  N   UNL     1      46.992 -12.234   7.641  1.00  0.00    -0.365 N 
HETATM   38  C   UNL     1      45.263 -10.879  10.650  1.00  0.00     0.039 A 
HETATM   39  C   UNL     1      44.095 -11.628  10.524  1.00  0.00     0.069 A 
HETATM   40  H   UNL     1      47.918 -11.843   7.518  1.00  0.00     0.165 HD
HETATM   41  C   UNL     1      46.408 -13.167   6.823  1.00  0.00     0.096 A 
BRANCH  39  42
HETATM   42  O   UNL     1      43.015 -11.582  11.364  1.00  0.00    -0.356 OA
HETATM   43  C   UNL     1      43.148 -10.792  12.540  1.00  0.00     0.210 C 
ENDBRANCH  39  42
ENDBRANCH  31  32
ENDBRANCH  30  31
ENDBRANCH  27  30
ENDBRANCH  26  27
ENDBRANCH  23  26
ENDBRANCH   1  23
TORSDOF 13
ENDMDL
MODEL 8
REMARK VINA RESULT:      -7.8      3.560      8.178
REMARK  13 active torsions:
REMARK  status: ('A' for Active; 'I' for Inactive)
REMARK    1  A    between atoms: O_2  and  C_3 
REMARK    2  A    between atoms: C_6  and  C_7 
REMARK    3  A    between atoms: C_7  and  C_8 
REMARK    4  A    between atoms: C_9  and  C_10 
REMARK    5  A    between atoms: N_17  and  C_18 
REMARK    6  A    between atoms: C_18  and  C_19 
REMARK    7  A    between atoms: C_19  and  O_20 
REMARK    8  A    between atoms: C_19  and  C_21 
REMARK    9  A    between atoms: C_21  and  N_22 
REMARK   10  A    between atoms: N_22  and  C_25 
REMARK   11  A    between atoms: C_25  and  C_26 
REMARK   12  A    between atoms: C_26  and  C_27 
REMARK   13  A    between atoms: C_32  and  O_33 
ROOT
HETATM    1  C   UNL     1      40.880 -16.359   4.294  1.00  0.00     0.162 C 
ENDROOT
BRANCH   1   2
HETATM    2  N   UNL     1      42.055 -16.357   5.152  1.00  0.00    -0.353 N 
HETATM    3  C   UNL     1      42.985 -17.372   5.235  1.00  0.00     0.045 A 
HETATM    4  C   UNL     1      43.994 -16.932   6.104  1.00  0.00     0.002 A 
HETATM    5  C   UNL     1      43.037 -18.628   4.602  1.00  0.00     0.030 A 
HETATM    6  C   UNL     1      43.606 -15.637   6.576  1.00  0.00    -0.008 A 
HETATM    7  C   UNL     1      45.107 -17.782   6.305  1.00  0.00     0.014 A 
HETATM    8  C   UNL     1      42.413 -15.314   5.962  1.00  0.00     0.103 A 
HETATM    9  C   UNL     1      45.163 -19.033   5.681  1.00  0.00     0.001 A 
HETATM   10  C   UNL     1      44.137 -19.450   4.845  1.00  0.00     0.002 A 
BRANCH   6  11
HETATM   11  C   UNL     1      44.252 -14.741   7.484  1.00  0.00     0.018 C 
HETATM   12  C   UNL     1      44.605 -13.470   7.237  1.00  0.00     0.056 C 
BRANCH  12  13
HETATM   13  C   UNL     1      45.246 -12.660   8.311  1.00  0.00     0.182 C 
HETATM   14  O   UNL     1      46.458 -12.463   8.323  1.00  0.00    -0.288 OA
BRANCH  13  15
HETATM   15  C   UNL     1      44.394 -12.143   9.420  1.00  0.00     0.014 A 
HETATM   16  C   UNL     1      44.589 -12.484  10.763  1.00  0.00     0.018 A 
HETATM   17  C   UNL     1      43.774 -11.923  11.753  1.00  0.00     0.037 A 
HETATM   18  C   UNL     1      42.755 -11.027  11.422  1.00  0.00     0.068 A 
HETATM   19  C   UNL     1      42.534 -10.713  10.082  1.00  0.00     0.037 A 
HETATM   20  C   UNL     1      43.348 -11.270   9.087  1.00  0.00     0.018 A 
BRANCH  18  21
HETATM   21  O   UNL     1      42.051 -10.544  12.489  1.00  0.00    -0.356 OA
HETATM   22  C   UNL     1      40.841 -11.215  12.819  1.00  0.00     0.210 C 
ENDBRANCH  18  21
ENDBRANCH  13  15
ENDBRANCH  12  13
ENDBRANCH   6  11
ENDBRANCH   1   2
BRANCH   1  23
HETATM   23  C   UNL     1      40.988 -15.319   3.167  1.00  0.00     0.162 C 
BRANCH  23  24
HETATM   24  O   UNL     1      40.732 -15.917   1.894  1.00  0.00    -0.392 OA
HETATM   25  H   UNL     1      40.592 -15.209   1.230  1.00  0.00     0.210 HD
ENDBRANCH  23  24
BRANCH  23  26
HETATM   26  C   UNL     1      39.941 -14.199   3.320  1.00  0.00     0.265 C 
BRANCH  26  27
HETATM   27  N   UNL     1      39.261 -13.842   2.031  1.00  0.00    -0.072 N 
HETATM   28  H   UNL     1      39.377 -14.573   1.319  1.00  0.00     0.277 HD
HETATM   29  H   UNL     1      38.248 -13.767   2.205  1.00  0.00     0.277 HD
BRANCH  27  30
HETATM   30  C   UNL     1      39.697 -12.522   1.440  1.00  0.00     0.237 C 
BRANCH  30  31
HETATM   31  C   UNL     1      39.333 -12.419  -0.042  1.00  0.00     0.068 C 
BRANCH  31  32
HETATM   32  C   UNL     1      40.022 -13.461  -0.854  1.00  0.00    -0.029 A 
HETATM   33  C   UNL     1      39.449 -14.225  -1.922  1.00  0.00     0.001 A 
HETATM   34  C   UNL     1      40.441 -15.077  -2.403  1.00  0.00     0.043 A 
HETATM   35  C   UNL     1      38.177 -14.272  -2.528  1.00  0.00     0.051 A 
HETATM   36  C   UNL     1      40.220 -15.974  -3.455  1.00  0.00     0.033 A 
HETATM   37  N   UNL     1      41.578 -14.835  -1.672  1.00  0.00    -0.365 N 
HETATM   38  C   UNL     1      38.944 -16.003  -4.034  1.00  0.00     0.039 A 
HETATM   39  C   UNL     1      37.929 -15.164  -3.581  1.00  0.00     0.069 A 
HETATM   40  H   UNL     1      42.465 -15.302  -1.820  1.00  0.00     0.165 HD
HETATM   41  C   UNL     1      41.336 -13.869  -0.729  1.00  0.00     0.096 A 
BRANCH  39  42
HETATM   42  O   UNL     1      36.651 -15.110  -4.070  1.00  0.00    -0.356 OA
HETATM   43  C   UNL     1      36.223 -13.868  -4.616  1.00  0.00     0.210 C 
ENDBRANCH  39  42
ENDBRANCH  31  32
ENDBRANCH  30  31
ENDBRANCH  27  30
ENDBRANCH  26  27
ENDBRANCH  23  26
ENDBRANCH   1  23
TORSDOF 13
ENDMDL
MODEL 9
REMARK VINA RESULT:      -7.6      3.309      8.033
REMARK  13 active torsions:
REMARK  status: ('A' for Active; 'I' for Inactive)
REMARK    1  A    between atoms: O_2  and  C_3 
REMARK    2  A    between atoms: C_6  and  C_7 
REMARK    3  A    between atoms: C_7  and  C_8 
REMARK    4  A    between atoms: C_9  and  C_10 
REMARK    5  A    between atoms: N_17  and  C_18 
REMARK    6  A    between atoms: C_18  and  C_19 
REMARK    7  A    between atoms: C_19  and  O_20 
REMARK    8  A    between atoms: C_19  and  C_21 
REMARK    9  A    between atoms: C_21  and  N_22 
REMARK   10  A    between atoms: N_22  and  C_25 
REMARK   11  A    between atoms: C_25  and  C_26 
REMARK   12  A    between atoms: C_26  and  C_27 
REMARK   13  A    between atoms: C_32  and  O_33 
ROOT
HETATM    1  C   UNL     1      40.327 -10.752   3.940  1.00  0.00     0.162 C 
ENDROOT
BRANCH   1   2
HETATM    2  N   UNL     1      40.674 -12.161   3.821  1.00  0.00    -0.353 N 
HETATM    3  C   UNL     1      40.025 -13.077   3.020  1.00  0.00     0.045 A 
HETATM    4  C   UNL     1      40.727 -14.286   3.131  1.00  0.00     0.002 A 
HETATM    5  C   UNL     1      38.896 -12.940   2.191  1.00  0.00     0.030 A 
HETATM    6  C   UNL     1      41.789 -14.070   4.066  1.00  0.00    -0.008 A 
HETATM    7  C   UNL     1      40.288 -15.378   2.345  1.00  0.00     0.014 A 
HETATM    8  C   UNL     1      41.729 -12.749   4.462  1.00  0.00     0.103 A 
HETATM    9  C   UNL     1      39.165 -15.249   1.521  1.00  0.00     0.001 A 
HETATM   10  C   UNL     1      38.476 -14.046   1.452  1.00  0.00     0.002 A 
BRANCH   6  11
HETATM   11  C   UNL     1      42.797 -14.957   4.558  1.00  0.00     0.018 C 
HETATM   12  C   UNL     1      42.595 -16.120   5.198  1.00  0.00     0.056 C 
BRANCH  12  13
HETATM   13  C   UNL     1      43.763 -16.944   5.618  1.00  0.00     0.182 C 
HETATM   14  O   UNL     1      44.501 -16.584   6.530  1.00  0.00    -0.288 OA
BRANCH  13  15
HETATM   15  C   UNL     1      44.065 -18.193   4.860  1.00  0.00     0.014 A 
HETATM   16  C   UNL     1      44.798 -19.259   5.395  1.00  0.00     0.018 A 
HETATM   17  C   UNL     1      45.002 -20.417   4.636  1.00  0.00     0.037 A 
HETATM   18  C   UNL     1      44.492 -20.527   3.341  1.00  0.00     0.068 A 
HETATM   19  C   UNL     1      43.793 -19.453   2.792  1.00  0.00     0.037 A 
HETATM   20  C   UNL     1      43.583 -18.292   3.547  1.00  0.00     0.018 A 
BRANCH  18  21
HETATM   21  O   UNL     1      44.752 -21.718   2.724  1.00  0.00    -0.356 OA
HETATM   22  C   UNL     1      44.067 -21.975   1.504  1.00  0.00     0.210 C 
ENDBRANCH  18  21
ENDBRANCH  13  15
ENDBRANCH  12  13
ENDBRANCH   6  11
ENDBRANCH   1   2
BRANCH   1  23
HETATM   23  C   UNL     1      39.266 -10.510   5.026  1.00  0.00     0.162 C 
BRANCH  23  24
HETATM   24  O   UNL     1      37.948 -10.649   4.491  1.00  0.00    -0.392 OA
HETATM   25  H   UNL     1      37.932 -11.406   3.868  1.00  0.00     0.210 HD
ENDBRANCH  23  24
BRANCH  23  26
HETATM   26  C   UNL     1      39.366 -11.545   6.163  1.00  0.00     0.265 C 
BRANCH  26  27
HETATM   27  N   UNL     1      40.239 -11.097   7.299  1.00  0.00    -0.072 N 
HETATM   28  H   UNL     1      40.043 -11.618   8.163  1.00  0.00     0.277 HD
HETATM   29  H   UNL     1      41.220 -11.298   7.057  1.00  0.00     0.277 HD
BRANCH  27  30
HETATM   30  C   UNL     1      40.160  -9.619   7.601  1.00  0.00     0.237 C 
BRANCH  30  31
HETATM   31  C   UNL     1      41.476  -9.090   8.177  1.00  0.00     0.068 C 
BRANCH  31  32
HETATM   32  C   UNL     1      41.724  -9.606   9.553  1.00  0.00    -0.029 A 
HETATM   33  C   UNL     1      42.694 -10.589   9.932  1.00  0.00     0.001 A 
HETATM   34  C   UNL     1      42.588 -10.769  11.310  1.00  0.00     0.043 A 
HETATM   35  C   UNL     1      43.657 -11.344   9.232  1.00  0.00     0.051 A 
HETATM   36  C   UNL     1      43.393 -11.668  12.017  1.00  0.00     0.033 A 
HETATM   37  N   UNL     1      41.604  -9.921  11.759  1.00  0.00    -0.365 N 
HETATM   38  C   UNL     1      44.337 -12.410  11.294  1.00  0.00     0.039 A 
HETATM   39  C   UNL     1      44.474 -12.255   9.918  1.00  0.00     0.069 A 
HETATM   40  H   UNL     1      41.327  -9.828  12.728  1.00  0.00     0.165 HD
HETATM   41  C   UNL     1      41.070  -9.221  10.708  1.00  0.00     0.096 A 
BRANCH  39  42
HETATM   42  O   UNL     1      45.358 -12.925   9.115  1.00  0.00    -0.356 OA
HETATM   43  C   UNL     1      44.894 -13.310   7.827  1.00  0.00     0.210 C 
ENDBRANCH  39  42
ENDBRANCH  31  32
ENDBRANCH  30  31
ENDBRANCH  27  30
ENDBRANCH  26  27
ENDBRANCH  23  26
ENDBRANCH   1  23
TORSDOF 13
ENDMDL
MODEL 10
REMARK VINA RESULT:      -7.6      2.511      6.913
REMARK  13 active torsions:
REMARK  status: ('A' for Active; 'I' for Inactive)
REMARK    1  A    between atoms: O_2  and  C_3 
REMARK    2  A    between atoms: C_6  and  C_7 
REMARK    3  A    between atoms: C_7  and  C_8 
REMARK    4  A    between atoms: C_9  and  C_10 
REMARK    5  A    between atoms: N_17  and  C_18 
REMARK    6  A    between atoms: C_18  and  C_19 
REMARK    7  A    between atoms: C_19  and  O_20 
REMARK    8  A    between atoms: C_19  and  C_21 
REMARK    9  A    between atoms: C_21  and  N_22 
REMARK   10  A    between atoms: N_22  and  C_25 
REMARK   11  A    between atoms: C_25  and  C_26 
REMARK   12  A    between atoms: C_26  and  C_27 
REMARK   13  A    between atoms: C_32  and  O_33 
ROOT
HETATM    1  C   UNL     1      41.472 -16.655   4.921  1.00  0.00     0.162 C 
ENDROOT
BRANCH   1   2
HETATM    2  N   UNL     1      40.999 -15.748   3.886  1.00  0.00    -0.353 N 
HETATM    3  C   UNL     1      40.349 -14.553   4.109  1.00  0.00     0.045 A 
HETATM    4  C   UNL     1      40.150 -13.955   2.855  1.00  0.00     0.002 A 
HETATM    5  C   UNL     1      39.939 -13.935   5.305  1.00  0.00     0.030 A 
HETATM    6  C   UNL     1      40.662 -14.863   1.873  1.00  0.00    -0.008 A 
HETATM    7  C   UNL     1      39.551 -12.675   2.823  1.00  0.00     0.014 A 
HETATM    8  C   UNL     1      41.184 -15.949   2.546  1.00  0.00     0.103 A 
HETATM    9  C   UNL     1      39.139 -12.057   4.008  1.00  0.00     0.001 A 
HETATM   10  C   UNL     1      39.326 -12.684   5.232  1.00  0.00     0.002 A 
BRANCH   6  11
HETATM   11  C   UNL     1      40.709 -14.768   0.447  1.00  0.00     0.018 C 
HETATM   12  C   UNL     1      41.259 -13.775  -0.270  1.00  0.00     0.056 C 
BRANCH  12  13
HETATM   13  C   UNL     1      41.249 -13.846  -1.758  1.00  0.00     0.182 C 
HETATM   14  O   UNL     1      42.257 -13.598  -2.414  1.00  0.00    -0.288 OA
BRANCH  13  15
HETATM   15  C   UNL     1      39.965 -14.160  -2.450  1.00  0.00     0.014 A 
HETATM   16  C   UNL     1      38.811 -13.379  -2.321  1.00  0.00     0.018 A 
HETATM   17  C   UNL     1      37.657 -13.714  -3.037  1.00  0.00     0.037 A 
HETATM   18  C   UNL     1      37.631 -14.828  -3.878  1.00  0.00     0.068 A 
HETATM   19  C   UNL     1      38.767 -15.629  -3.981  1.00  0.00     0.037 A 
HETATM   20  C   UNL     1      39.927 -15.297  -3.269  1.00  0.00     0.018 A 
BRANCH  18  21
HETATM   21  O   UNL     1      36.445 -15.026  -4.528  1.00  0.00    -0.356 OA
HETATM   22  C   UNL     1      35.862 -13.894  -5.163  1.00  0.00     0.210 C 
ENDBRANCH  18  21
ENDBRANCH  13  15
ENDBRANCH  12  13
ENDBRANCH   6  11
ENDBRANCH   1   2
BRANCH   1  23
HETATM   23  C   UNL     1      42.968 -16.461   5.217  1.00  0.00     0.162 C 
BRANCH  23  24
HETATM   24  O   UNL     1      43.416 -15.182   4.763  1.00  0.00    -0.392 OA
HETATM   25  H   UNL     1      43.498 -14.579   5.533  1.00  0.00     0.210 HD
ENDBRANCH  23  24
BRANCH  23  26
HETATM   26  C   UNL     1      43.260 -16.493   6.730  1.00  0.00     0.265 C 
BRANCH  26  27
HETATM   27  N   UNL     1      44.552 -17.175   7.072  1.00  0.00    -0.072 N 
HETATM   28  H   UNL     1      45.340 -16.516   7.097  1.00  0.00     0.277 HD
HETATM   29  H   UNL     1      44.475 -17.568   8.021  1.00  0.00     0.277 HD
BRANCH  27  30
HETATM   30  C   UNL     1      44.913 -18.321   6.156  1.00  0.00     0.237 C 
BRANCH  30  31
HETATM   31  C   UNL     1      44.211 -19.616   6.569  1.00  0.00     0.068 C 
BRANCH  31  32
HETATM   32  C   UNL     1      44.397 -20.693   5.555  1.00  0.00    -0.029 A 
HETATM   33  C   UNL     1      44.227 -20.567   4.138  1.00  0.00     0.001 A 
HETATM   34  C   UNL     1      44.503 -21.810   3.574  1.00  0.00     0.043 A 
HETATM   35  C   UNL     1      43.864 -19.509   3.280  1.00  0.00     0.051 A 
HETATM   36  C   UNL     1      44.431 -22.046   2.196  1.00  0.00     0.033 A 
HETATM   37  N   UNL     1      44.843 -22.659   4.599  1.00  0.00    -0.365 N 
HETATM   38  C   UNL     1      44.061 -20.978   1.367  1.00  0.00     0.039 A 
HETATM   39  C   UNL     1      43.780 -19.720   1.895  1.00  0.00     0.069 A 
HETATM   40  H   UNL     1      45.112 -23.627   4.476  1.00  0.00     0.165 HD
HETATM   41  C   UNL     1      44.775 -21.999   5.799  1.00  0.00     0.096 A 
BRANCH  39  42
HETATM   42  O   UNL     1      43.411 -18.612   1.182  1.00  0.00    -0.356 OA
HETATM   43  C   UNL     1      44.204 -17.443   1.353  1.00  0.00     0.210 C 
ENDBRANCH  39  42
ENDBRANCH  31  32
ENDBRANCH  30  31
ENDBRANCH  27  30
ENDBRANCH  26  27
ENDBRANCH  23  26
ENDBRANCH   1  23
TORSDOF 13
ENDMDL
