MODEL 1
REMARK VINA RESULT:      -7.7      0.000      0.000
REMARK  7 active torsions:
REMARK  status: ('A' for Active; 'I' for Inactive)
REMARK    1  A    between atoms: O_2  and  C_3 
REMARK    2  A    between atoms: C_4  and  O_5 
REMARK    3  A    between atoms: C_9  and  C_10 
REMARK    4  A    between atoms: C_10  and  N_11 
REMARK    5  A    between atoms: C_14  and  C_15 
REMARK    6  A    between atoms: C_15  and  N_16 
REMARK    7  A    between atoms: N_16  and  C_17 
ROOT
HETATM    1  N   UNL     1      42.489 -15.205   6.399  1.00  0.00    -0.067 N 
HETATM    2  H   UNL     1      42.132 -14.536   7.097  1.00  0.00     0.280 HD
HETATM    3  C   UNL     1      43.741 -15.813   7.005  1.00  0.00     0.241 C 
HETATM    4  C   UNL     1      43.553 -17.326   6.905  1.00  0.00     0.031 C 
HETATM    5  C   UNL     1      42.040 -17.474   7.041  1.00  0.00     0.035 C 
HETATM    6  C   UNL     1      41.455 -16.305   6.267  1.00  0.00     0.235 C 
ENDROOT
BRANCH   1   7
HETATM    7  C   UNL     1      42.660 -14.400   5.128  1.00  0.00     0.273 C 
BRANCH   7   8
HETATM    8  C   UNL     1      42.142 -15.085   3.893  1.00  0.00    -0.028 A 
HETATM    9  C   UNL     1      42.989 -15.887   3.113  1.00  0.00     0.031 A 
HETATM   10  C   UNL     1      42.488 -16.566   1.999  1.00  0.00     0.047 A 
HETATM   11  C   UNL     1      41.142 -16.443   1.658  1.00  0.00     0.116 A 
HETATM   12 BR   UNL     1      43.675 -17.650   0.999  1.00  0.00    -0.048 Br
HETATM   13  C   UNL     1      40.286 -15.628   2.406  1.00  0.00     0.103 A 
HETATM   14  C   UNL     1      40.789 -14.951   3.521  1.00  0.00     0.048 A 
BRANCH  11  15
HETATM   15  O   UNL     1      40.640 -17.122   0.580  1.00  0.00    -0.357 OA
HETATM   16  H   UNL     1      41.397 -17.350   0.006  1.00  0.00     0.218 HD
ENDBRANCH  11  15
BRANCH  13  17
HETATM   17  O   UNL     1      38.987 -15.597   1.971  1.00  0.00    -0.353 OA
HETATM   18  C   UNL     1      38.495 -14.371   1.442  1.00  0.00     0.210 C 
ENDBRANCH  13  17
ENDBRANCH   7   8
ENDBRANCH   1   7
BRANCH   4  19
HETATM   19  C   UNL     1      44.137 -17.873   5.589  1.00  0.00     0.127 C 
BRANCH  19  20
HETATM   20  N   UNL     1      44.910 -19.097   5.816  1.00  0.00    -0.376 N 
HETATM   21  H   UNL     1      45.847 -18.949   6.182  1.00  0.00     0.161 HD
BRANCH  20  22
HETATM   22  C   UNL     1      44.751 -20.174   4.951  1.00  0.00     0.100 A 
HETATM   23  N   UNL     1      44.637 -19.930   3.632  1.00  0.00    -0.353 N 
HETATM   24  H   UNL     1      44.675 -18.966   3.315  1.00  0.00     0.166 HD
HETATM   25  C   UNL     1      44.487 -20.891   2.705  1.00  0.00     0.089 A 
HETATM   26  C   UNL     1      44.457 -22.223   3.081  1.00  0.00     0.017 A 
HETATM   27  C   UNL     1      44.600 -22.540   4.424  1.00  0.00     0.005 A 
HETATM   28  C   UNL     1      44.756 -21.517   5.358  1.00  0.00     0.048 A 
ENDBRANCH  20  22
ENDBRANCH  19  20
ENDBRANCH   4  19
TORSDOF 7
ENDMDL
MODEL 2
REMARK VINA RESULT:      -7.6      4.160      7.369
REMARK  7 active torsions:
REMARK  status: ('A' for Active; 'I' for Inactive)
REMARK    1  A    between atoms: O_2  and  C_3 
REMARK    2  A    between atoms: C_4  and  O_5 
REMARK    3  A    between atoms: C_9  and  C_10 
REMARK    4  A    between atoms: C_10  and  N_11 
REMARK    5  A    between atoms: C_14  and  C_15 
REMARK    6  A    between atoms: C_15  and  N_16 
REMARK    7  A    between atoms: N_16  and  C_17 
ROOT
HETATM    1  N   UNL     1      41.241 -16.492   2.833  1.00  0.00    -0.067 N 
HETATM    2  H   UNL     1      40.992 -17.298   3.425  1.00  0.00     0.280 HD
HETATM    3  C   UNL     1      40.166 -16.407   1.766  1.00  0.00     0.241 C 
HETATM    4  C   UNL     1      39.663 -14.966   1.801  1.00  0.00     0.031 C 
HETATM    5  C   UNL     1      39.829 -14.601   3.274  1.00  0.00     0.035 C 
HETATM    6  C   UNL     1      41.134 -15.253   3.700  1.00  0.00     0.235 C 
ENDROOT
BRANCH   1   7
HETATM    7  C   UNL     1      42.655 -16.765   2.367  1.00  0.00     0.273 C 
BRANCH   7   8
HETATM    8  C   UNL     1      43.291 -17.970   3.006  1.00  0.00    -0.028 A 
HETATM    9  C   UNL     1      43.439 -19.165   2.286  1.00  0.00     0.031 A 
HETATM   10  C   UNL     1      44.082 -20.262   2.866  1.00  0.00     0.047 A 
HETATM   11  C   UNL     1      44.574 -20.171   4.167  1.00  0.00     0.116 A 
HETATM   12 BR   UNL     1      44.271 -21.839   1.836  1.00  0.00    -0.048 Br
HETATM   13  C   UNL     1      44.413 -18.998   4.913  1.00  0.00     0.103 A 
HETATM   14  C   UNL     1      43.771 -17.901   4.330  1.00  0.00     0.048 A 
BRANCH  11  15
HETATM   15  O   UNL     1      45.222 -21.235   4.734  1.00  0.00    -0.357 OA
HETATM   16  H   UNL     1      44.648 -22.017   4.617  1.00  0.00     0.218 HD
ENDBRANCH  11  15
BRANCH  13  17
HETATM   17  O   UNL     1      44.945 -19.035   6.174  1.00  0.00    -0.353 OA
HETATM   18  C   UNL     1      44.046 -18.974   7.275  1.00  0.00     0.210 C 
ENDBRANCH  13  17
ENDBRANCH   7   8
ENDBRANCH   1   7
BRANCH   4  19
HETATM   19  C   UNL     1      40.454 -14.076   0.825  1.00  0.00     0.127 C 
BRANCH  19  20
HETATM   20  N   UNL     1      39.618 -13.634  -0.293  1.00  0.00    -0.376 N 
HETATM   21  H   UNL     1      38.747 -13.183  -0.024  1.00  0.00     0.161 HD
BRANCH  20  22
HETATM   22  C   UNL     1      39.583 -14.391  -1.459  1.00  0.00     0.100 A 
HETATM   23  N   UNL     1      38.439 -14.430  -2.168  1.00  0.00    -0.353 N 
HETATM   24  H   UNL     1      37.642 -13.900  -1.827  1.00  0.00     0.166 HD
HETATM   25  C   UNL     1      38.292 -15.120  -3.311  1.00  0.00     0.089 A 
HETATM   26  C   UNL     1      39.355 -15.836  -3.835  1.00  0.00     0.017 A 
HETATM   27  C   UNL     1      40.569 -15.811  -3.165  1.00  0.00     0.005 A 
HETATM   28  C   UNL     1      40.687 -15.081  -1.982  1.00  0.00     0.048 A 
ENDBRANCH  20  22
ENDBRANCH  19  20
ENDBRANCH   4  19
TORSDOF 7
ENDMDL
MODEL 3
REMARK VINA RESULT:      -7.5      4.356      7.669
REMARK  7 active torsions:
REMARK  status: ('A' for Active; 'I' for Inactive)
REMARK    1  A    between atoms: O_2  and  C_3 
REMARK    2  A    between atoms: C_4  and  O_5 
REMARK    3  A    between atoms: C_9  and  C_10 
REMARK    4  A    between atoms: C_10  and  N_11 
REMARK    5  A    between atoms: C_14  and  C_15 
REMARK    6  A    between atoms: C_15  and  N_16 
REMARK    7  A    between atoms: N_16  and  C_17 
ROOT
HETATM    1  N   UNL     1      41.687 -16.860   2.341  1.00  0.00    -0.067 N 
HETATM    2  H   UNL     1      41.324 -17.723   2.774  1.00  0.00     0.280 HD
HETATM    3  C   UNL     1      41.350 -16.959   0.865  1.00  0.00     0.241 C 
HETATM    4  C   UNL     1      40.634 -15.655   0.518  1.00  0.00     0.031 C 
HETATM    5  C   UNL     1      39.919 -15.320   1.824  1.00  0.00     0.035 C 
HETATM    6  C   UNL     1      40.897 -15.704   2.922  1.00  0.00     0.235 C 
ENDROOT
BRANCH   1   7
HETATM    7  C   UNL     1      43.154 -16.817   2.712  1.00  0.00     0.273 C 
BRANCH   7   8
HETATM    8  C   UNL     1      43.633 -18.029   3.463  1.00  0.00    -0.028 A 
HETATM    9  C   UNL     1      43.675 -18.029   4.866  1.00  0.00     0.031 A 
HETATM   10  C   UNL     1      44.067 -19.177   5.560  1.00  0.00     0.047 A 
HETATM   11  C   UNL     1      44.424 -20.326   4.856  1.00  0.00     0.116 A 
HETATM   12 BR   UNL     1      44.080 -19.122   7.452  1.00  0.00    -0.048 Br
HETATM   13  C   UNL     1      44.416 -20.340   3.457  1.00  0.00     0.103 A 
HETATM   14  C   UNL     1      44.021 -19.190   2.765  1.00  0.00     0.048 A 
BRANCH  11  15
HETATM   15  O   UNL     1      44.789 -21.461   5.529  1.00  0.00    -0.357 OA
HETATM   16  H   UNL     1      44.619 -21.299   6.478  1.00  0.00     0.218 HD
ENDBRANCH  11  15
BRANCH  13  17
HETATM   17  O   UNL     1      44.781 -21.530   2.886  1.00  0.00    -0.353 OA
HETATM   18  C   UNL     1      44.147 -21.902   1.668  1.00  0.00     0.210 C 
ENDBRANCH  13  17
ENDBRANCH   7   8
ENDBRANCH   1   7
BRANCH   4  19
HETATM   19  C   UNL     1      41.631 -14.584   0.038  1.00  0.00     0.127 C 
BRANCH  19  20
HETATM   20  N   UNL     1      41.758 -14.588  -1.421  1.00  0.00    -0.376 N 
HETATM   21  H   UNL     1      42.422 -13.913  -1.794  1.00  0.00     0.161 HD
BRANCH  20  22
HETATM   22  C   UNL     1      40.637 -14.843  -2.203  1.00  0.00     0.100 A 
HETATM   23  N   UNL     1      39.609 -13.977  -2.159  1.00  0.00    -0.353 N 
HETATM   24  H   UNL     1      39.690 -13.163  -1.556  1.00  0.00     0.166 HD
HETATM   25  C   UNL     1      38.481 -14.118  -2.875  1.00  0.00     0.089 A 
HETATM   26  C   UNL     1      38.331 -15.195  -3.733  1.00  0.00     0.017 A 
HETATM   27  C   UNL     1      39.370 -16.107  -3.846  1.00  0.00     0.005 A 
HETATM   28  C   UNL     1      40.527 -15.927  -3.088  1.00  0.00     0.048 A 
ENDBRANCH  20  22
ENDBRANCH  19  20
ENDBRANCH   4  19
TORSDOF 7
ENDMDL
MODEL 4
REMARK VINA RESULT:      -7.5      3.347      4.185
REMARK  7 active torsions:
REMARK  status: ('A' for Active; 'I' for Inactive)
REMARK    1  A    between atoms: O_2  and  C_3 
REMARK    2  A    between atoms: C_4  and  O_5 
REMARK    3  A    between atoms: C_9  and  C_10 
REMARK    4  A    between atoms: C_10  and  N_11 
REMARK    5  A    between atoms: C_14  and  C_15 
REMARK    6  A    between atoms: C_15  and  N_16 
REMARK    7  A    between atoms: N_16  and  C_17 
ROOT
HETATM    1  N   UNL     1      41.804 -15.153   2.230  1.00  0.00    -0.067 N 
HETATM    2  H   UNL     1      41.785 -14.173   1.912  1.00  0.00     0.280 HD
HETATM    3  C   UNL     1      43.201 -15.390   2.774  1.00  0.00     0.241 C 
HETATM    4  C   UNL     1      43.004 -15.976   4.171  1.00  0.00     0.031 C 
HETATM    5  C   UNL     1      41.709 -15.307   4.624  1.00  0.00     0.035 C 
HETATM    6  C   UNL     1      40.830 -15.266   3.385  1.00  0.00     0.235 C 
ENDROOT
BRANCH   1   7
HETATM    7  C   UNL     1      41.386 -15.969   1.026  1.00  0.00     0.273 C 
BRANCH   7   8
HETATM    8  C   UNL     1      41.410 -15.207  -0.271  1.00  0.00    -0.028 A 
HETATM    9  C   UNL     1      41.948 -13.912  -0.329  1.00  0.00     0.031 A 
HETATM   10  C   UNL     1      42.019 -13.232  -1.548  1.00  0.00     0.047 A 
HETATM   11  C   UNL     1      41.550 -13.839  -2.711  1.00  0.00     0.116 A 
HETATM   12 BR   UNL     1      42.776 -11.496  -1.564  1.00  0.00    -0.048 Br
HETATM   13  C   UNL     1      40.985 -15.119  -2.672  1.00  0.00     0.103 A 
HETATM   14  C   UNL     1      40.916 -15.798  -1.452  1.00  0.00     0.048 A 
BRANCH  11  15
HETATM   15  O   UNL     1      41.635 -13.187  -3.911  1.00  0.00    -0.357 OA
HETATM   16  H   UNL     1      40.891 -13.499  -4.462  1.00  0.00     0.218 HD
ENDBRANCH  11  15
BRANCH  13  17
HETATM   17  O   UNL     1      40.567 -15.605  -3.882  1.00  0.00    -0.353 OA
HETATM   18  C   UNL     1      39.170 -15.794  -4.073  1.00  0.00     0.210 C 
ENDBRANCH  13  17
ENDBRANCH   7   8
ENDBRANCH   1   7
BRANCH   4  19
HETATM   19  C   UNL     1      42.952 -17.514   4.126  1.00  0.00     0.127 C 
BRANCH  19  20
HETATM   20  N   UNL     1      43.773 -18.046   3.035  1.00  0.00    -0.376 N 
HETATM   21  H   UNL     1      43.698 -17.538   2.157  1.00  0.00     0.161 HD
BRANCH  20  22
HETATM   22  C   UNL     1      43.968 -19.419   2.935  1.00  0.00     0.100 A 
HETATM   23  N   UNL     1      44.581 -20.058   3.948  1.00  0.00    -0.353 N 
HETATM   24  H   UNL     1      44.877 -19.514   4.753  1.00  0.00     0.166 HD
HETATM   25  C   UNL     1      44.817 -21.380   3.963  1.00  0.00     0.089 A 
HETATM   26  C   UNL     1      44.410 -22.173   2.903  1.00  0.00     0.017 A 
HETATM   27  C   UNL     1      43.745 -21.576   1.842  1.00  0.00     0.005 A 
HETATM   28  C   UNL     1      43.516 -20.201   1.861  1.00  0.00     0.048 A 
ENDBRANCH  20  22
ENDBRANCH  19  20
ENDBRANCH   4  19
TORSDOF 7
ENDMDL
MODEL 5
REMARK VINA RESULT:      -7.5      3.196      5.794
REMARK  7 active torsions:
REMARK  status: ('A' for Active; 'I' for Inactive)
REMARK    1  A    between atoms: O_2  and  C_3 
REMARK    2  A    between atoms: C_4  and  O_5 
REMARK    3  A    between atoms: C_9  and  C_10 
REMARK    4  A    between atoms: C_10  and  N_11 
REMARK    5  A    between atoms: C_14  and  C_15 
REMARK    6  A    between atoms: C_15  and  N_16 
REMARK    7  A    between atoms: N_16  and  C_17 
ROOT
HETATM    1  N   UNL     1      42.462 -15.032   5.408  1.00  0.00    -0.067 N 
HETATM    2  H   UNL     1      42.900 -15.411   6.262  1.00  0.00     0.280 HD
HETATM    3  C   UNL     1      40.967 -15.219   5.587  1.00  0.00     0.241 C 
HETATM    4  C   UNL     1      40.347 -13.848   5.324  1.00  0.00     0.031 C 
HETATM    5  C   UNL     1      41.438 -12.899   5.815  1.00  0.00     0.035 C 
HETATM    6  C   UNL     1      42.746 -13.544   5.387  1.00  0.00     0.235 C 
ENDROOT
BRANCH   1   7
HETATM    7  C   UNL     1      43.118 -15.774   4.264  1.00  0.00     0.273 C 
BRANCH   7   8
HETATM    8  C   UNL     1      43.452 -17.208   4.571  1.00  0.00    -0.028 A 
HETATM    9  C   UNL     1      43.639 -18.135   3.535  1.00  0.00     0.031 A 
HETATM   10  C   UNL     1      44.006 -19.453   3.826  1.00  0.00     0.047 A 
HETATM   11  C   UNL     1      44.181 -19.849   5.151  1.00  0.00     0.116 A 
HETATM   12 BR   UNL     1      44.266 -20.651   2.383  1.00  0.00    -0.048 Br
HETATM   13  C   UNL     1      43.973 -18.947   6.200  1.00  0.00     0.103 A 
HETATM   14  C   UNL     1      43.608 -17.630   5.907  1.00  0.00     0.048 A 
BRANCH  11  15
HETATM   15  O   UNL     1      44.559 -21.132   5.441  1.00  0.00    -0.357 OA
HETATM   16  H   UNL     1      45.489 -21.229   5.155  1.00  0.00     0.218 HD
ENDBRANCH  11  15
BRANCH  13  17
HETATM   17  O   UNL     1      44.183 -19.459   7.454  1.00  0.00    -0.353 OA
HETATM   18  C   UNL     1      44.181 -18.550   8.548  1.00  0.00     0.210 C 
ENDBRANCH  13  17
ENDBRANCH   7   8
ENDBRANCH   1   7
BRANCH   4  19
HETATM   19  C   UNL     1      39.971 -13.682   3.840  1.00  0.00     0.127 C 
BRANCH  19  20
HETATM   20  N   UNL     1      39.488 -14.941   3.267  1.00  0.00    -0.376 N 
HETATM   21  H   UNL     1      39.019 -15.558   3.925  1.00  0.00     0.161 HD
BRANCH  20  22
HETATM   22  C   UNL     1      40.224 -15.561   2.263  1.00  0.00     0.100 A 
HETATM   23  N   UNL     1      40.940 -14.793   1.421  1.00  0.00    -0.353 N 
HETATM   24  H   UNL     1      40.919 -13.785   1.551  1.00  0.00     0.166 HD
HETATM   25  C   UNL     1      41.692 -15.281   0.421  1.00  0.00     0.089 A 
HETATM   26  C   UNL     1      41.777 -16.648   0.216  1.00  0.00     0.017 A 
HETATM   27  C   UNL     1      41.086 -17.494   1.071  1.00  0.00     0.005 A 
HETATM   28  C   UNL     1      40.316 -16.952   2.100  1.00  0.00     0.048 A 
ENDBRANCH  20  22
ENDBRANCH  19  20
ENDBRANCH   4  19
TORSDOF 7
ENDMDL
MODEL 6
REMARK VINA RESULT:      -7.4      4.785      8.158
REMARK  7 active torsions:
REMARK  status: ('A' for Active; 'I' for Inactive)
REMARK    1  A    between atoms: O_2  and  C_3 
REMARK    2  A    between atoms: C_4  and  O_5 
REMARK    3  A    between atoms: C_9  and  C_10 
REMARK    4  A    between atoms: C_10  and  N_11 
REMARK    5  A    between atoms: C_14  and  C_15 
REMARK    6  A    between atoms: C_15  and  N_16 
REMARK    7  A    between atoms: N_16  and  C_17 
ROOT
HETATM    1  N   UNL     1      41.735 -16.671   1.765  1.00  0.00    -0.067 N 
HETATM    2  H   UNL     1      41.381 -17.603   2.025  1.00  0.00     0.280 HD
HETATM    3  C   UNL     1      41.521 -16.545   0.268  1.00  0.00     0.241 C 
HETATM    4  C   UNL     1      40.774 -15.228   0.068  1.00  0.00     0.031 C 
HETATM    5  C   UNL     1      39.942 -15.130   1.345  1.00  0.00     0.035 C 
HETATM    6  C   UNL     1      40.848 -15.651   2.449  1.00  0.00     0.235 C 
ENDROOT
BRANCH   1   7
HETATM    7  C   UNL     1      43.164 -16.637   2.262  1.00  0.00     0.273 C 
BRANCH   7   8
HETATM    8  C   UNL     1      43.605 -17.899   2.951  1.00  0.00    -0.028 A 
HETATM    9  C   UNL     1      43.697 -19.106   2.241  1.00  0.00     0.031 A 
HETATM   10  C   UNL     1      44.162 -20.262   2.873  1.00  0.00     0.047 A 
HETATM   11  C   UNL     1      44.532 -20.219   4.216  1.00  0.00     0.116 A 
HETATM   12 BR   UNL     1      44.284 -21.854   1.856  1.00  0.00    -0.048 Br
HETATM   13  C   UNL     1      44.423 -19.033   4.950  1.00  0.00     0.103 A 
HETATM   14  C   UNL     1      43.960 -17.876   4.316  1.00  0.00     0.048 A 
BRANCH  11  15
HETATM   15  O   UNL     1      45.008 -21.343   4.836  1.00  0.00    -0.357 OA
HETATM   16  H   UNL     1      45.946 -21.438   4.579  1.00  0.00     0.218 HD
ENDBRANCH  11  15
BRANCH  13  17
HETATM   17  O   UNL     1      44.824 -19.121   6.257  1.00  0.00    -0.353 OA
HETATM   18  C   UNL     1      43.816 -19.102   7.262  1.00  0.00     0.210 C 
ENDBRANCH  13  17
ENDBRANCH   7   8
ENDBRANCH   1   7
BRANCH   4  19
HETATM   19  C   UNL     1      41.753 -14.060  -0.152  1.00  0.00     0.127 C 
BRANCH  19  20
HETATM   20  N   UNL     1      42.132 -13.938  -1.561  1.00  0.00    -0.376 N 
HETATM   21  H   UNL     1      42.740 -14.678  -1.906  1.00  0.00     0.161 HD
BRANCH  20  22
HETATM   22  C   UNL     1      42.333 -12.675  -2.107  1.00  0.00     0.100 A 
HETATM   23  N   UNL     1      42.855 -11.711  -1.328  1.00  0.00    -0.353 N 
HETATM   24  H   UNL     1      43.089 -11.942  -0.366  1.00  0.00     0.166 HD
HETATM   25  C   UNL     1      43.099 -10.459  -1.749  1.00  0.00     0.089 A 
HETATM   26  C   UNL     1      42.825 -10.099  -3.058  1.00  0.00     0.017 A 
HETATM   27  C   UNL     1      42.313 -11.058  -3.919  1.00  0.00     0.005 A 
HETATM   28  C   UNL     1      42.075 -12.349  -3.448  1.00  0.00     0.048 A 
ENDBRANCH  20  22
ENDBRANCH  19  20
ENDBRANCH   4  19
TORSDOF 7
ENDMDL
MODEL 7
REMARK VINA RESULT:      -7.2      3.221      5.779
REMARK  7 active torsions:
REMARK  status: ('A' for Active; 'I' for Inactive)
REMARK    1  A    between atoms: O_2  and  C_3 
REMARK    2  A    between atoms: C_4  and  O_5 
REMARK    3  A    between atoms: C_9  and  C_10 
REMARK    4  A    between atoms: C_10  and  N_11 
REMARK    5  A    between atoms: C_14  and  C_15 
REMARK    6  A    between atoms: C_15  and  N_16 
REMARK    7  A    between atoms: N_16  and  C_17 
ROOT
HETATM    1  N   UNL     1      42.257 -14.716   5.470  1.00  0.00    -0.067 N 
HETATM    2  H   UNL     1      42.646 -15.045   6.367  1.00  0.00     0.280 HD
HETATM    3  C   UNL     1      40.768 -15.001   5.530  1.00  0.00     0.241 C 
HETATM    4  C   UNL     1      40.083 -13.682   5.178  1.00  0.00     0.031 C 
HETATM    5  C   UNL     1      41.063 -12.650   5.730  1.00  0.00     0.035 C 
HETATM    6  C   UNL     1      42.442 -13.213   5.430  1.00  0.00     0.235 C 
ENDROOT
BRANCH   1   7
HETATM    7  C   UNL     1      43.055 -15.437   4.405  1.00  0.00     0.273 C 
BRANCH   7   8
HETATM    8  C   UNL     1      43.471 -16.832   4.787  1.00  0.00    -0.028 A 
HETATM    9  C   UNL     1      43.703 -17.165   6.130  1.00  0.00     0.031 A 
HETATM   10  C   UNL     1      44.033 -18.477   6.484  1.00  0.00     0.047 A 
HETATM   11  C   UNL     1      44.138 -19.457   5.498  1.00  0.00     0.116 A 
HETATM   12 BR   UNL     1      44.312 -18.869   8.315  1.00  0.00    -0.048 Br
HETATM   13  C   UNL     1      43.937 -19.140   4.150  1.00  0.00     0.103 A 
HETATM   14  C   UNL     1      43.604 -17.828   3.799  1.00  0.00     0.048 A 
BRANCH  11  15
HETATM   15  O   UNL     1      44.441 -20.747   5.840  1.00  0.00    -0.357 OA
HETATM   16  H   UNL     1      43.599 -21.243   5.864  1.00  0.00     0.218 HD
ENDBRANCH  11  15
BRANCH  13  17
HETATM   17  O   UNL     1      44.062 -20.193   3.283  1.00  0.00    -0.353 OA
HETATM   18  C   UNL     1      43.575 -20.020   1.957  1.00  0.00     0.210 C 
ENDBRANCH  13  17
ENDBRANCH   7   8
ENDBRANCH   1   7
BRANCH   4  19
HETATM   19  C   UNL     1      39.823 -13.576   3.664  1.00  0.00     0.127 C 
BRANCH  19  20
HETATM   20  N   UNL     1      39.371 -14.854   3.108  1.00  0.00    -0.376 N 
HETATM   21  H   UNL     1      38.859 -15.446   3.759  1.00  0.00     0.161 HD
BRANCH  20  22
HETATM   22  C   UNL     1      40.164 -15.511   2.174  1.00  0.00     0.100 A 
HETATM   23  N   UNL     1      40.923 -14.776   1.341  1.00  0.00    -0.353 N 
HETATM   24  H   UNL     1      40.892 -13.764   1.428  1.00  0.00     0.166 HD
HETATM   25  C   UNL     1      41.732 -15.301   0.407  1.00  0.00     0.089 A 
HETATM   26  C   UNL     1      41.833 -16.675   0.265  1.00  0.00     0.017 A 
HETATM   27  C   UNL     1      41.097 -17.488   1.115  1.00  0.00     0.005 A 
HETATM   28  C   UNL     1      40.269 -16.907   2.076  1.00  0.00     0.048 A 
ENDBRANCH  20  22
ENDBRANCH  19  20
ENDBRANCH   4  19
TORSDOF 7
ENDMDL
MODEL 8
REMARK VINA RESULT:      -7.1      2.829      3.615
REMARK  7 active torsions:
REMARK  status: ('A' for Active; 'I' for Inactive)
REMARK    1  A    between atoms: O_2  and  C_3 
REMARK    2  A    between atoms: C_4  and  O_5 
REMARK    3  A    between atoms: C_9  and  C_10 
REMARK    4  A    between atoms: C_10  and  N_11 
REMARK    5  A    between atoms: C_14  and  C_15 
REMARK    6  A    between atoms: C_15  and  N_16 
REMARK    7  A    between atoms: N_16  and  C_17 
ROOT
HETATM    1  N   UNL     1      42.585 -15.432   6.341  1.00  0.00    -0.067 N 
HETATM    2  H   UNL     1      42.269 -14.683   6.976  1.00  0.00     0.280 HD
HETATM    3  C   UNL     1      44.016 -15.740   6.738  1.00  0.00     0.241 C 
HETATM    4  C   UNL     1      44.069 -17.252   6.949  1.00  0.00     0.031 C 
HETATM    5  C   UNL     1      42.661 -17.557   7.455  1.00  0.00     0.035 C 
HETATM    6  C   UNL     1      41.744 -16.656   6.646  1.00  0.00     0.235 C 
ENDROOT
BRANCH   1   7
HETATM    7  C   UNL     1      42.356 -14.893   4.946  1.00  0.00     0.273 C 
BRANCH   7   8
HETATM    8  C   UNL     1      41.238 -13.892   4.849  1.00  0.00    -0.028 A 
HETATM    9  C   UNL     1      40.621 -13.627   3.617  1.00  0.00     0.031 A 
HETATM   10  C   UNL     1      39.544 -12.738   3.544  1.00  0.00     0.047 A 
HETATM   11  C   UNL     1      39.084 -12.108   4.699  1.00  0.00     0.116 A 
HETATM   12 BR   UNL     1      38.740 -12.440   1.856  1.00  0.00    -0.048 Br
HETATM   13  C   UNL     1      39.701 -12.337   5.933  1.00  0.00     0.103 A 
HETATM   14  C   UNL     1      40.777 -13.228   6.005  1.00  0.00     0.048 A 
BRANCH  11  15
HETATM   15  O   UNL     1      38.017 -11.253   4.638  1.00  0.00    -0.357 OA
HETATM   16  H   UNL     1      38.372 -10.345   4.700  1.00  0.00     0.218 HD
ENDBRANCH  11  15
BRANCH  13  17
HETATM   17  O   UNL     1      39.151 -11.663   6.991  1.00  0.00    -0.353 OA
HETATM   18  C   UNL     1      40.011 -10.845   7.775  1.00  0.00     0.210 C 
ENDBRANCH  13  17
ENDBRANCH   7   8
ENDBRANCH   1   7
BRANCH   4  19
HETATM   19  C   UNL     1      44.457 -17.982   5.650  1.00  0.00     0.127 C 
BRANCH  19  20
HETATM   20  N   UNL     1      44.703 -19.406   5.890  1.00  0.00    -0.376 N 
HETATM   21  H   UNL     1      45.432 -19.605   6.572  1.00  0.00     0.161 HD
BRANCH  20  22
HETATM   22  C   UNL     1      44.585 -20.306   4.837  1.00  0.00     0.100 A 
HETATM   23  N   UNL     1      44.283 -19.832   3.615  1.00  0.00    -0.353 N 
HETATM   24  H   UNL     1      44.154 -18.830   3.504  1.00  0.00     0.166 HD
HETATM   25  C   UNL     1      44.151 -20.606   2.525  1.00  0.00     0.089 A 
HETATM   26  C   UNL     1      44.343 -21.974   2.614  1.00  0.00     0.017 A 
HETATM   27  C   UNL     1      44.686 -22.520   3.843  1.00  0.00     0.005 A 
HETATM   28  C   UNL     1      44.817 -21.686   4.953  1.00  0.00     0.048 A 
ENDBRANCH  20  22
ENDBRANCH  19  20
ENDBRANCH   4  19
TORSDOF 7
ENDMDL
MODEL 9
REMARK VINA RESULT:      -7.1      2.618      3.390
REMARK  7 active torsions:
REMARK  status: ('A' for Active; 'I' for Inactive)
REMARK    1  A    between atoms: O_2  and  C_3 
REMARK    2  A    between atoms: C_4  and  O_5 
REMARK    3  A    between atoms: C_9  and  C_10 
REMARK    4  A    between atoms: C_10  and  N_11 
REMARK    5  A    between atoms: C_14  and  C_15 
REMARK    6  A    between atoms: C_15  and  N_16 
REMARK    7  A    between atoms: N_16  and  C_17 
ROOT
HETATM    1  N   UNL     1      41.617 -15.615   3.744  1.00  0.00    -0.067 N 
HETATM    2  H   UNL     1      41.559 -14.635   3.428  1.00  0.00     0.280 HD
HETATM    3  C   UNL     1      43.096 -15.917   3.901  1.00  0.00     0.241 C 
HETATM    4  C   UNL     1      43.252 -16.490   5.308  1.00  0.00     0.031 C 
HETATM    5  C   UNL     1      42.157 -15.758   6.079  1.00  0.00     0.035 C 
HETATM    6  C   UNL     1      40.982 -15.676   5.119  1.00  0.00     0.235 C 
ENDROOT
BRANCH   1   7
HETATM    7  C   UNL     1      40.856 -16.412   2.707  1.00  0.00     0.273 C 
BRANCH   7   8
HETATM    8  C   UNL     1      40.385 -15.599   1.532  1.00  0.00    -0.028 A 
HETATM    9  C   UNL     1      39.237 -14.799   1.631  1.00  0.00     0.031 A 
HETATM   10  C   UNL     1      38.838 -14.002   0.554  1.00  0.00     0.047 A 
HETATM   11  C   UNL     1      39.579 -14.007  -0.626  1.00  0.00     0.116 A 
HETATM   12 BR   UNL     1      37.293 -12.926   0.758  1.00  0.00    -0.048 Br
HETATM   13  C   UNL     1      40.712 -14.818  -0.756  1.00  0.00     0.103 A 
HETATM   14  C   UNL     1      41.111 -15.612   0.323  1.00  0.00     0.048 A 
BRANCH  11  15
HETATM   15  O   UNL     1      39.205 -13.214  -1.677  1.00  0.00    -0.357 OA
HETATM   16  H   UNL     1      39.965 -12.637  -1.887  1.00  0.00     0.218 HD
ENDBRANCH  11  15
BRANCH  13  17
HETATM   17  O   UNL     1      41.355 -14.727  -1.962  1.00  0.00    -0.353 OA
HETATM   18  C   UNL     1      41.044 -15.699  -2.954  1.00  0.00     0.210 C 
ENDBRANCH  13  17
ENDBRANCH   7   8
ENDBRANCH   1   7
BRANCH   4  19
HETATM   19  C   UNL     1      43.118 -18.024   5.303  1.00  0.00     0.127 C 
BRANCH  19  20
HETATM   20  N   UNL     1      44.312 -18.663   4.744  1.00  0.00    -0.376 N 
HETATM   21  H   UNL     1      45.104 -18.040   4.602  1.00  0.00     0.161 HD
BRANCH  20  22
HETATM   22  C   UNL     1      44.167 -19.691   3.820  1.00  0.00     0.100 A 
HETATM   23  N   UNL     1      43.450 -19.459   2.705  1.00  0.00    -0.353 N 
HETATM   24  H   UNL     1      43.043 -18.537   2.577  1.00  0.00     0.166 HD
HETATM   25  C   UNL     1      43.250 -20.373   1.741  1.00  0.00     0.089 A 
HETATM   26  C   UNL     1      43.806 -21.636   1.853  1.00  0.00     0.017 A 
HETATM   27  C   UNL     1      44.581 -21.927   2.966  1.00  0.00     0.005 A 
HETATM   28  C   UNL     1      44.770 -20.952   3.945  1.00  0.00     0.048 A 
ENDBRANCH  20  22
ENDBRANCH  19  20
ENDBRANCH   4  19
TORSDOF 7
ENDMDL
MODEL 10
REMARK VINA RESULT:      -7.0      3.370      4.907
REMARK  7 active torsions:
REMARK  status: ('A' for Active; 'I' for Inactive)
REMARK    1  A    between atoms: O_2  and  C_3 
REMARK    2  A    between atoms: C_4  and  O_5 
REMARK    3  A    between atoms: C_9  and  C_10 
REMARK    4  A    between atoms: C_10  and  N_11 
REMARK    5  A    between atoms: C_14  and  C_15 
REMARK    6  A    between atoms: C_15  and  N_16 
REMARK    7  A    between atoms: N_16  and  C_17 
ROOT
HETATM    1  N   UNL     1      41.184 -15.145   1.524  1.00  0.00    -0.067 N 
HETATM    2  H   UNL     1      40.306 -14.742   1.164  1.00  0.00     0.280 HD
HETATM    3  C   UNL     1      40.800 -15.971   2.737  1.00  0.00     0.241 C 
HETATM    4  C   UNL     1      41.417 -17.349   2.508  1.00  0.00     0.031 C 
HETATM    5  C   UNL     1      41.370 -17.478   0.988  1.00  0.00     0.035 C 
HETATM    6  C   UNL     1      41.706 -16.092   0.462  1.00  0.00     0.235 C 
ENDROOT
BRANCH   1   7
HETATM    7  C   UNL     1      42.098 -13.961   1.757  1.00  0.00     0.273 C 
BRANCH   7   8
HETATM    8  C   UNL     1      42.097 -13.453   3.173  1.00  0.00    -0.028 A 
HETATM    9  C   UNL     1      41.074 -12.607   3.628  1.00  0.00     0.031 A 
HETATM   10  C   UNL     1      41.047 -12.186   4.960  1.00  0.00     0.047 A 
HETATM   11  C   UNL     1      42.044 -12.603   5.841  1.00  0.00     0.116 A 
HETATM   12 BR   UNL     1      39.629 -11.063   5.519  1.00  0.00    -0.048 Br
HETATM   13  C   UNL     1      43.088 -13.425   5.402  1.00  0.00     0.103 A 
HETATM   14  C   UNL     1      43.111 -13.847   4.069  1.00  0.00     0.048 A 
BRANCH  11  15
HETATM   15  O   UNL     1      42.013 -12.211   7.152  1.00  0.00    -0.357 OA
HETATM   16  H   UNL     1      42.489 -12.891   7.667  1.00  0.00     0.218 HD
ENDBRANCH  11  15
BRANCH  13  17
HETATM   17  O   UNL     1      43.999 -13.769   6.365  1.00  0.00    -0.353 OA
HETATM   18  C   UNL     1      44.070 -15.136   6.751  1.00  0.00     0.210 C 
ENDBRANCH  13  17
ENDBRANCH   7   8
ENDBRANCH   1   7
BRANCH   4  19
HETATM   19  C   UNL     1      42.829 -17.435   3.117  1.00  0.00     0.127 C 
BRANCH  19  20
HETATM   20  N   UNL     1      43.730 -18.220   2.270  1.00  0.00    -0.376 N 
HETATM   21  H   UNL     1      43.673 -18.011   1.276  1.00  0.00     0.161 HD
BRANCH  20  22
HETATM   22  C   UNL     1      44.001 -19.543   2.604  1.00  0.00     0.100 A 
HETATM   23  N   UNL     1      44.541 -19.806   3.808  1.00  0.00    -0.353 N 
HETATM   24  H   UNL     1      44.729 -19.026   4.433  1.00  0.00     0.166 HD
HETATM   25  C   UNL     1      44.838 -21.042   4.240  1.00  0.00     0.089 A 
HETATM   26  C   UNL     1      44.577 -22.141   3.439  1.00  0.00     0.017 A 
HETATM   27  C   UNL     1      43.992 -21.937   2.198  1.00  0.00     0.005 A 
HETATM   28  C   UNL     1      43.695 -20.639   1.783  1.00  0.00     0.048 A 
ENDBRANCH  20  22
ENDBRANCH  19  20
ENDBRANCH   4  19
TORSDOF 7
ENDMDL
