MODEL 1
REMARK VINA RESULT:      -8.1      0.000      0.000
REMARK  7 active torsions:
REMARK  status: ('A' for Active; 'I' for Inactive)
REMARK    1  A    between atoms: C_2  and  N_3 
REMARK    2  A    between atoms: C_2  and  C_17 
REMARK       I    between atoms: N_3  and  C_4 
REMARK    3  A    between atoms: C_4  and  C_5 
REMARK    4  A    between atoms: C_7  and  N_8 
REMARK    5  A    between atoms: C_17  and  O_18 
REMARK    6  A    between atoms: C_17  and  C_19 
REMARK    7  A    between atoms: C_22  and  O_23 
ROOT
HETATM    1  N   UNL     1      43.560 -13.724   7.151  1.00  0.00    -0.349 N 
HETATM    2  C   UNL     1      44.794 -13.229   7.515  1.00  0.00     0.270 C 
HETATM    3  O   UNL     1      45.840 -13.511   6.942  1.00  0.00    -0.266 OA
HETATM    4  H   UNL     1      42.798 -13.539   7.798  1.00  0.00     0.163 HD
ENDROOT
BRANCH   1   5
HETATM    5  C   UNL     1      43.396 -14.732   6.107  1.00  0.00     0.114 C 
HETATM    6  C   UNL     1      42.492 -14.188   5.000  1.00  0.00     0.035 C 
BRANCH   5   7
HETATM    7  C   UNL     1      42.944 -16.113   6.664  1.00  0.00     0.173 C 
BRANCH   7   8
HETATM    8  O   UNL     1      43.356 -16.251   8.029  1.00  0.00    -0.389 OA
HETATM    9  H   UNL     1      43.280 -15.364   8.426  1.00  0.00     0.210 HD
ENDBRANCH   7   8
BRANCH   7  10
HETATM   10  C   UNL     1      43.428 -17.310   5.862  1.00  0.00    -0.028 A 
HETATM   11  C   UNL     1      44.625 -17.950   6.209  1.00  0.00     0.012 A 
HETATM   12  C   UNL     1      45.077 -19.054   5.479  1.00  0.00     0.037 A 
HETATM   13  C   UNL     1      44.347 -19.539   4.393  1.00  0.00     0.068 A 
HETATM   14  C   UNL     1      43.153 -18.914   4.042  1.00  0.00     0.037 A 
HETATM   15  C   UNL     1      42.698 -17.808   4.772  1.00  0.00     0.012 A 
BRANCH  13  16
HETATM   16  O   UNL     1      44.904 -20.620   3.765  1.00  0.00    -0.356 OA
HETATM   17  C   UNL     1      44.428 -20.919   2.458  1.00  0.00     0.210 C 
ENDBRANCH  13  16
ENDBRANCH   7  10
ENDBRANCH   5   7
ENDBRANCH   1   5
BRANCH   2  18
HETATM   18  C   UNL     1      44.773 -12.315   8.702  1.00  0.00     0.126 A 
HETATM   19  N   UNL     1      43.580 -12.201   9.352  1.00  0.00    -0.224 NA
HETATM   20  C   UNL     1      43.554 -11.373  10.433  1.00  0.00     0.151 A 
HETATM   21  C   UNL     1      44.674 -10.665  10.872  1.00  0.00     0.052 A 
HETATM   22  C   UNL     1      45.877 -10.811  10.185  1.00  0.00     0.006 A 
HETATM   23  C   UNL     1      45.933 -11.653   9.080  1.00  0.00     0.037 A 
BRANCH  20  24
HETATM   24  N   UNL     1      42.325 -11.231  11.145  1.00  0.00    -0.227 N 
HETATM   25  N   UNL     1      41.142 -10.976  10.521  1.00  0.00    -0.179 NA
HETATM   26  C   UNL     1      40.251 -10.912  11.512  1.00  0.00     0.141 A 
HETATM   27  C   UNL     1      40.828 -11.121  12.775  1.00  0.00     0.040 A 
HETATM   28  C   UNL     1      42.161 -11.325  12.513  1.00  0.00     0.122 A 
ENDBRANCH  20  24
ENDBRANCH   2  18
TORSDOF 7
ENDMDL
MODEL 2
REMARK VINA RESULT:      -8.1      3.219      5.266
REMARK  7 active torsions:
REMARK  status: ('A' for Active; 'I' for Inactive)
REMARK    1  A    between atoms: C_2  and  N_3 
REMARK    2  A    between atoms: C_2  and  C_17 
REMARK       I    between atoms: N_3  and  C_4 
REMARK    3  A    between atoms: C_4  and  C_5 
REMARK    4  A    between atoms: C_7  and  N_8 
REMARK    5  A    between atoms: C_17  and  O_18 
REMARK    6  A    between atoms: C_17  and  C_19 
REMARK    7  A    between atoms: C_22  and  O_23 
ROOT
HETATM    1  N   UNL     1      41.577 -15.023   3.015  1.00  0.00    -0.349 N 
HETATM    2  C   UNL     1      42.705 -14.351   3.437  1.00  0.00     0.270 C 
HETATM    3  O   UNL     1      43.268 -13.483   2.782  1.00  0.00    -0.266 OA
HETATM    4  H   UNL     1      41.300 -15.824   3.577  1.00  0.00     0.163 HD
ENDROOT
BRANCH   1   5
HETATM    5  C   UNL     1      41.007 -14.838   1.684  1.00  0.00     0.114 C 
HETATM    6  C   UNL     1      39.490 -15.023   1.740  1.00  0.00     0.035 C 
BRANCH   5   7
HETATM    7  C   UNL     1      41.705 -15.709   0.599  1.00  0.00     0.173 C 
BRANCH   7   8
HETATM    8  O   UNL     1      40.762 -16.078  -0.414  1.00  0.00    -0.389 OA
HETATM    9  H   UNL     1      40.373 -15.246  -0.739  1.00  0.00     0.210 HD
ENDBRANCH   7   8
BRANCH   7  10
HETATM   10  C   UNL     1      42.396 -16.953   1.131  1.00  0.00    -0.028 A 
HETATM   11  C   UNL     1      41.641 -18.078   1.489  1.00  0.00     0.012 A 
HETATM   12  C   UNL     1      42.268 -19.228   1.976  1.00  0.00     0.037 A 
HETATM   13  C   UNL     1      43.655 -19.281   2.117  1.00  0.00     0.068 A 
HETATM   14  C   UNL     1      44.416 -18.170   1.759  1.00  0.00     0.037 A 
HETATM   15  C   UNL     1      43.791 -17.016   1.270  1.00  0.00     0.012 A 
BRANCH  13  16
HETATM   16  O   UNL     1      44.138 -20.462   2.609  1.00  0.00    -0.356 OA
HETATM   17  C   UNL     1      43.911 -21.625   1.823  1.00  0.00     0.210 C 
ENDBRANCH  13  16
ENDBRANCH   7  10
ENDBRANCH   5   7
ENDBRANCH   1   5
BRANCH   2  18
HETATM   18  C   UNL     1      43.222 -14.783   4.776  1.00  0.00     0.126 A 
HETATM   19  N   UNL     1      43.945 -13.857   5.468  1.00  0.00    -0.224 NA
HETATM   20  C   UNL     1      44.417 -14.242   6.686  1.00  0.00     0.151 A 
HETATM   21  C   UNL     1      44.189 -15.511   7.220  1.00  0.00     0.052 A 
HETATM   22  C   UNL     1      43.443 -16.429   6.485  1.00  0.00     0.006 A 
HETATM   23  C   UNL     1      42.945 -16.061   5.240  1.00  0.00     0.037 A 
BRANCH  20  24
HETATM   24  N   UNL     1      45.173 -13.299   7.446  1.00  0.00    -0.227 N 
HETATM   25  N   UNL     1      46.409 -12.873   7.065  1.00  0.00    -0.179 NA
HETATM   26  C   UNL     1      46.776 -12.018   8.021  1.00  0.00     0.141 A 
HETATM   27  C   UNL     1      45.802 -11.874   9.022  1.00  0.00     0.040 A 
HETATM   28  C   UNL     1      44.782 -12.706   8.630  1.00  0.00     0.122 A 
ENDBRANCH  20  24
ENDBRANCH   2  18
TORSDOF 7
ENDMDL
MODEL 3
REMARK VINA RESULT:      -8.1      5.441      8.066
REMARK  7 active torsions:
REMARK  status: ('A' for Active; 'I' for Inactive)
REMARK    1  A    between atoms: C_2  and  N_3 
REMARK    2  A    between atoms: C_2  and  C_17 
REMARK       I    between atoms: N_3  and  C_4 
REMARK    3  A    between atoms: C_4  and  C_5 
REMARK    4  A    between atoms: C_7  and  N_8 
REMARK    5  A    between atoms: C_17  and  O_18 
REMARK    6  A    between atoms: C_17  and  C_19 
REMARK    7  A    between atoms: C_22  and  O_23 
ROOT
HETATM    1  N   UNL     1      43.291 -19.611   2.812  1.00  0.00    -0.349 N 
HETATM    2  C   UNL     1      43.337 -18.352   2.252  1.00  0.00     0.270 C 
HETATM    3  O   UNL     1      44.144 -18.016   1.393  1.00  0.00    -0.266 OA
HETATM    4  H   UNL     1      42.683 -19.717   3.620  1.00  0.00     0.163 HD
ENDROOT
BRANCH   1   5
HETATM    5  C   UNL     1      44.282 -20.640   2.512  1.00  0.00     0.114 C 
HETATM    6  C   UNL     1      43.648 -21.737   1.656  1.00  0.00     0.035 C 
BRANCH   5   7
HETATM    7  C   UNL     1      45.004 -21.176   3.783  1.00  0.00     0.173 C 
BRANCH   7   8
HETATM    8  O   UNL     1      44.684 -22.559   3.982  1.00  0.00    -0.389 OA
HETATM    9  H   UNL     1      45.017 -23.030   3.197  1.00  0.00     0.210 HD
ENDBRANCH   7   8
BRANCH   7  10
HETATM   10  C   UNL     1      44.713 -20.397   5.054  1.00  0.00    -0.028 A 
HETATM   11  C   UNL     1      45.246 -19.113   5.229  1.00  0.00     0.012 A 
HETATM   12  C   UNL     1      44.981 -18.387   6.394  1.00  0.00     0.037 A 
HETATM   13  C   UNL     1      44.182 -18.924   7.404  1.00  0.00     0.068 A 
HETATM   14  C   UNL     1      43.642 -20.197   7.238  1.00  0.00     0.037 A 
HETATM   15  C   UNL     1      43.905 -20.927   6.073  1.00  0.00     0.012 A 
BRANCH  13  16
HETATM   16  O   UNL     1      44.007 -18.111   8.491  1.00  0.00    -0.356 OA
HETATM   17  C   UNL     1      43.332 -16.879   8.269  1.00  0.00     0.210 C 
ENDBRANCH  13  16
ENDBRANCH   7  10
ENDBRANCH   5   7
ENDBRANCH   1   5
BRANCH   2  18
HETATM   18  C   UNL     1      42.323 -17.392   2.794  1.00  0.00     0.126 A 
HETATM   19  N   UNL     1      41.605 -16.691   1.871  1.00  0.00    -0.224 NA
HETATM   20  C   UNL     1      40.681 -15.817   2.356  1.00  0.00     0.151 A 
HETATM   21  C   UNL     1      40.461 -15.628   3.722  1.00  0.00     0.052 A 
HETATM   22  C   UNL     1      41.211 -16.366   4.635  1.00  0.00     0.006 A 
HETATM   23  C   UNL     1      42.160 -17.268   4.166  1.00  0.00     0.037 A 
BRANCH  20  24
HETATM   24  N   UNL     1      39.903 -15.068   1.422  1.00  0.00    -0.227 N 
HETATM   25  N   UNL     1      40.394 -14.665   0.218  1.00  0.00    -0.179 NA
HETATM   26  C   UNL     1      39.383 -14.003  -0.348  1.00  0.00     0.141 A 
HETATM   27  C   UNL     1      38.238 -13.966   0.463  1.00  0.00     0.040 A 
HETATM   28  C   UNL     1      38.597 -14.657   1.594  1.00  0.00     0.122 A 
ENDBRANCH  20  24
ENDBRANCH   2  18
TORSDOF 7
ENDMDL
MODEL 4
REMARK VINA RESULT:      -8.0      4.335      6.131
REMARK  7 active torsions:
REMARK  status: ('A' for Active; 'I' for Inactive)
REMARK    1  A    between atoms: C_2  and  N_3 
REMARK    2  A    between atoms: C_2  and  C_17 
REMARK       I    between atoms: N_3  and  C_4 
REMARK    3  A    between atoms: C_4  and  C_5 
REMARK    4  A    between atoms: C_7  and  N_8 
REMARK    5  A    between atoms: C_17  and  O_18 
REMARK    6  A    between atoms: C_17  and  C_19 
REMARK    7  A    between atoms: C_22  and  O_23 
ROOT
HETATM    1  N   UNL     1      41.605 -15.054   3.018  1.00  0.00    -0.349 N 
HETATM    2  C   UNL     1      42.681 -14.302   3.440  1.00  0.00     0.270 C 
HETATM    3  O   UNL     1      43.168 -13.383   2.793  1.00  0.00    -0.266 OA
HETATM    4  H   UNL     1      41.397 -15.882   3.570  1.00  0.00     0.163 HD
ENDROOT
BRANCH   1   5
HETATM    5  C   UNL     1      41.010 -14.897   1.694  1.00  0.00     0.114 C 
HETATM    6  C   UNL     1      39.503 -15.143   1.770  1.00  0.00     0.035 C 
BRANCH   5   7
HETATM    7  C   UNL     1      41.729 -15.744   0.602  1.00  0.00     0.173 C 
BRANCH   7   8
HETATM    8  O   UNL     1      40.803 -16.095  -0.434  1.00  0.00    -0.389 OA
HETATM    9  H   UNL     1      41.341 -16.297  -1.220  1.00  0.00     0.210 HD
ENDBRANCH   7   8
BRANCH   7  10
HETATM   10  C   UNL     1      42.414 -16.997   1.120  1.00  0.00    -0.028 A 
HETATM   11  C   UNL     1      43.805 -17.018   1.291  1.00  0.00     0.012 A 
HETATM   12  C   UNL     1      44.445 -18.165   1.770  1.00  0.00     0.037 A 
HETATM   13  C   UNL     1      43.714 -19.310   2.087  1.00  0.00     0.068 A 
HETATM   14  C   UNL     1      42.330 -19.299   1.926  1.00  0.00     0.037 A 
HETATM   15  C   UNL     1      41.686 -18.152   1.447  1.00  0.00     0.012 A 
BRANCH  13  16
HETATM   16  O   UNL     1      44.463 -20.362   2.540  1.00  0.00    -0.356 OA
HETATM   17  C   UNL     1      44.069 -21.661   2.115  1.00  0.00     0.210 C 
ENDBRANCH  13  16
ENDBRANCH   7  10
ENDBRANCH   5   7
ENDBRANCH   1   5
BRANCH   2  18
HETATM   18  C   UNL     1      43.241 -14.709   4.769  1.00  0.00     0.126 A 
HETATM   19  N   UNL     1      43.245 -16.045   5.036  1.00  0.00    -0.224 NA
HETATM   20  C   UNL     1      43.754 -16.423   6.241  1.00  0.00     0.151 A 
HETATM   21  C   UNL     1      44.250 -15.509   7.174  1.00  0.00     0.052 A 
HETATM   22  C   UNL     1      44.232 -14.152   6.863  1.00  0.00     0.006 A 
HETATM   23  C   UNL     1      43.721 -13.739   5.638  1.00  0.00     0.037 A 
BRANCH  20  24
HETATM   24  N   UNL     1      43.783 -17.815   6.557  1.00  0.00    -0.227 N 
HETATM   25  N   UNL     1      43.781 -18.275   7.838  1.00  0.00    -0.179 NA
HETATM   26  C   UNL     1      43.818 -19.603   7.714  1.00  0.00     0.141 A 
HETATM   27  C   UNL     1      43.843 -20.022   6.375  1.00  0.00     0.040 A 
HETATM   28  C   UNL     1      43.820 -18.855   5.650  1.00  0.00     0.122 A 
ENDBRANCH  20  24
ENDBRANCH   2  18
TORSDOF 7
ENDMDL
MODEL 5
REMARK VINA RESULT:      -7.7      6.407      9.762
REMARK  7 active torsions:
REMARK  status: ('A' for Active; 'I' for Inactive)
REMARK    1  A    between atoms: C_2  and  N_3 
REMARK    2  A    between atoms: C_2  and  C_17 
REMARK       I    between atoms: N_3  and  C_4 
REMARK    3  A    between atoms: C_4  and  C_5 
REMARK    4  A    between atoms: C_7  and  N_8 
REMARK    5  A    between atoms: C_17  and  O_18 
REMARK    6  A    between atoms: C_17  and  C_19 
REMARK    7  A    between atoms: C_22  and  O_23 
ROOT
HETATM    1  N   UNL     1      42.063 -14.514   1.309  1.00  0.00    -0.349 N 
HETATM    2  C   UNL     1      41.891 -13.238   0.816  1.00  0.00     0.270 C 
HETATM    3  O   UNL     1      41.807 -12.239   1.520  1.00  0.00    -0.266 OA
HETATM    4  H   UNL     1      41.961 -15.269   0.636  1.00  0.00     0.163 HD
ENDROOT
BRANCH   1   5
HETATM    5  C   UNL     1      42.049 -14.811   2.738  1.00  0.00     0.114 C 
HETATM    6  C   UNL     1      43.465 -14.700   3.305  1.00  0.00     0.035 C 
BRANCH   5   7
HETATM    7  C   UNL     1      41.345 -16.159   3.071  1.00  0.00     0.173 C 
BRANCH   7   8
HETATM    8  O   UNL     1      40.732 -16.086   4.364  1.00  0.00    -0.389 OA
HETATM    9  H   UNL     1      41.233 -16.694   4.936  1.00  0.00     0.210 HD
ENDBRANCH   7   8
BRANCH   7  10
HETATM   10  C   UNL     1      42.247 -17.380   3.001  1.00  0.00    -0.028 A 
HETATM   11  C   UNL     1      42.762 -17.940   4.177  1.00  0.00     0.012 A 
HETATM   12  C   UNL     1      43.590 -19.066   4.124  1.00  0.00     0.037 A 
HETATM   13  C   UNL     1      43.919 -19.653   2.902  1.00  0.00     0.068 A 
HETATM   14  C   UNL     1      43.407 -19.108   1.726  1.00  0.00     0.037 A 
HETATM   15  C   UNL     1      42.577 -17.981   1.777  1.00  0.00     0.012 A 
BRANCH  13  16
HETATM   16  O   UNL     1      44.739 -20.745   2.992  1.00  0.00    -0.356 OA
HETATM   17  C   UNL     1      44.406 -21.866   2.184  1.00  0.00     0.210 C 
ENDBRANCH  13  16
ENDBRANCH   7  10
ENDBRANCH   5   7
ENDBRANCH   1   5
BRANCH   2  18
HETATM   18  C   UNL     1      41.789 -13.156  -0.677  1.00  0.00     0.126 A 
HETATM   19  N   UNL     1      40.805 -13.902  -1.254  1.00  0.00    -0.224 NA
HETATM   20  C   UNL     1      40.706 -13.832  -2.610  1.00  0.00     0.151 A 
HETATM   21  C   UNL     1      41.555 -13.047  -3.392  1.00  0.00     0.052 A 
HETATM   22  C   UNL     1      42.546 -12.295  -2.766  1.00  0.00     0.006 A 
HETATM   23  C   UNL     1      42.668 -12.345  -1.382  1.00  0.00     0.037 A 
BRANCH  20  24
HETATM   24  N   UNL     1      39.683 -14.592  -3.253  1.00  0.00    -0.227 N 
HETATM   25  N   UNL     1      39.956 -15.679  -4.027  1.00  0.00    -0.179 NA
HETATM   26  C   UNL     1      38.760 -16.101  -4.442  1.00  0.00     0.141 A 
HETATM   27  C   UNL     1      37.708 -15.311  -3.953  1.00  0.00     0.040 A 
HETATM   28  C   UNL     1      38.326 -14.350  -3.192  1.00  0.00     0.122 A 
ENDBRANCH  20  24
ENDBRANCH   2  18
TORSDOF 7
ENDMDL
MODEL 6
REMARK VINA RESULT:      -7.7      5.487      8.997
REMARK  7 active torsions:
REMARK  status: ('A' for Active; 'I' for Inactive)
REMARK    1  A    between atoms: C_2  and  N_3 
REMARK    2  A    between atoms: C_2  and  C_17 
REMARK       I    between atoms: N_3  and  C_4 
REMARK    3  A    between atoms: C_4  and  C_5 
REMARK    4  A    between atoms: C_7  and  N_8 
REMARK    5  A    between atoms: C_17  and  O_18 
REMARK    6  A    between atoms: C_17  and  C_19 
REMARK    7  A    between atoms: C_22  and  O_23 
ROOT
HETATM    1  N   UNL     1      40.543 -15.267   3.348  1.00  0.00    -0.349 N 
HETATM    2  C   UNL     1      40.022 -15.874   2.226  1.00  0.00     0.270 C 
HETATM    3  O   UNL     1      40.009 -17.086   2.049  1.00  0.00    -0.266 OA
HETATM    4  H   UNL     1      40.635 -14.255   3.305  1.00  0.00     0.163 HD
ENDROOT
BRANCH   1   5
HETATM    5  C   UNL     1      41.237 -16.013   4.393  1.00  0.00     0.114 C 
HETATM    6  C   UNL     1      40.809 -15.501   5.768  1.00  0.00     0.035 C 
BRANCH   5   7
HETATM    7  C   UNL     1      42.780 -16.047   4.190  1.00  0.00     0.173 C 
BRANCH   7   8
HETATM    8  O   UNL     1      43.168 -15.075   3.212  1.00  0.00    -0.389 OA
HETATM    9  H   UNL     1      44.141 -15.098   3.179  1.00  0.00     0.210 HD
ENDBRANCH   7   8
BRANCH   7  10
HETATM   10  C   UNL     1      43.340 -17.408   3.808  1.00  0.00    -0.028 A 
HETATM   11  C   UNL     1      43.433 -17.775   2.460  1.00  0.00     0.012 A 
HETATM   12  C   UNL     1      43.950 -19.023   2.098  1.00  0.00     0.037 A 
HETATM   13  C   UNL     1      44.383 -19.926   3.070  1.00  0.00     0.068 A 
HETATM   14  C   UNL     1      44.301 -19.568   4.414  1.00  0.00     0.037 A 
HETATM   15  C   UNL     1      43.784 -18.319   4.779  1.00  0.00     0.012 A 
BRANCH  13  16
HETATM   16  O   UNL     1      44.861 -21.110   2.580  1.00  0.00    -0.356 OA
HETATM   17  C   UNL     1      44.023 -21.817   1.675  1.00  0.00     0.210 C 
ENDBRANCH  13  16
ENDBRANCH   7  10
ENDBRANCH   5   7
ENDBRANCH   1   5
BRANCH   2  18
HETATM   18  C   UNL     1      39.479 -14.926   1.200  1.00  0.00     0.126 A 
HETATM   19  N   UNL     1      40.345 -14.537   0.222  1.00  0.00    -0.224 NA
HETATM   20  C   UNL     1      39.858 -13.676  -0.714  1.00  0.00     0.151 A 
HETATM   21  C   UNL     1      38.545 -13.200  -0.695  1.00  0.00     0.052 A 
HETATM   22  C   UNL     1      37.688 -13.624   0.319  1.00  0.00     0.006 A 
HETATM   23  C   UNL     1      38.159 -14.505   1.285  1.00  0.00     0.037 A 
BRANCH  20  24
HETATM   24  N   UNL     1      40.731 -13.250  -1.759  1.00  0.00    -0.227 N 
HETATM   25  N   UNL     1      40.273 -12.853  -2.979  1.00  0.00    -0.179 NA
HETATM   26  C   UNL     1      41.376 -12.543  -3.663  1.00  0.00     0.141 A 
HETATM   27  C   UNL     1      42.549 -12.728  -2.913  1.00  0.00     0.040 A 
HETATM   28  C   UNL     1      42.108 -13.182  -1.694  1.00  0.00     0.122 A 
ENDBRANCH  20  24
ENDBRANCH   2  18
TORSDOF 7
ENDMDL
MODEL 7
REMARK VINA RESULT:      -7.7      6.286      8.997
REMARK  7 active torsions:
REMARK  status: ('A' for Active; 'I' for Inactive)
REMARK    1  A    between atoms: C_2  and  N_3 
REMARK    2  A    between atoms: C_2  and  C_17 
REMARK       I    between atoms: N_3  and  C_4 
REMARK    3  A    between atoms: C_4  and  C_5 
REMARK    4  A    between atoms: C_7  and  N_8 
REMARK    5  A    between atoms: C_17  and  O_18 
REMARK    6  A    between atoms: C_17  and  C_19 
REMARK    7  A    between atoms: C_22  and  O_23 
ROOT
HETATM    1  N   UNL     1      41.450 -15.322   1.718  1.00  0.00    -0.349 N 
HETATM    2  C   UNL     1      41.289 -16.002   0.529  1.00  0.00     0.270 C 
HETATM    3  O   UNL     1      41.103 -17.210   0.452  1.00  0.00    -0.266 OA
HETATM    4  H   UNL     1      41.751 -14.354   1.640  1.00  0.00     0.163 HD
ENDROOT
BRANCH   1   5
HETATM    5  C   UNL     1      41.527 -16.004   3.007  1.00  0.00     0.114 C 
HETATM    6  C   UNL     1      40.580 -15.336   4.004  1.00  0.00     0.035 C 
BRANCH   5   7
HETATM    7  C   UNL     1      42.986 -16.150   3.529  1.00  0.00     0.173 C 
BRANCH   7   8
HETATM    8  O   UNL     1      43.875 -15.360   2.729  1.00  0.00    -0.389 OA
HETATM    9  H   UNL     1      43.711 -15.621   1.805  1.00  0.00     0.210 HD
ENDBRANCH   7   8
BRANCH   7  10
HETATM   10  C   UNL     1      43.495 -17.580   3.598  1.00  0.00    -0.028 A 
HETATM   11  C   UNL     1      43.714 -18.189   4.840  1.00  0.00     0.012 A 
HETATM   12  C   UNL     1      44.180 -19.505   4.914  1.00  0.00     0.037 A 
HETATM   13  C   UNL     1      44.436 -20.238   3.755  1.00  0.00     0.068 A 
HETATM   14  C   UNL     1      44.217 -19.644   2.513  1.00  0.00     0.037 A 
HETATM   15  C   UNL     1      43.750 -18.326   2.437  1.00  0.00     0.012 A 
BRANCH  13  16
HETATM   16  O   UNL     1      44.891 -21.510   3.969  1.00  0.00    -0.356 OA
HETATM   17  C   UNL     1      44.873 -21.981   5.310  1.00  0.00     0.210 C 
ENDBRANCH  13  16
ENDBRANCH   7  10
ENDBRANCH   5   7
ENDBRANCH   1   5
BRANCH   2  18
HETATM   18  C   UNL     1      41.381 -15.143  -0.696  1.00  0.00     0.126 A 
HETATM   19  N   UNL     1      41.896 -13.894  -0.518  1.00  0.00    -0.224 NA
HETATM   20  C   UNL     1      41.984 -13.109  -1.626  1.00  0.00     0.151 A 
HETATM   21  C   UNL     1      41.572 -13.535  -2.891  1.00  0.00     0.052 A 
HETATM   22  C   UNL     1      41.054 -14.820  -3.034  1.00  0.00     0.006 A 
HETATM   23  C   UNL     1      40.957 -15.644  -1.919  1.00  0.00     0.037 A 
BRANCH  20  24
HETATM   24  N   UNL     1      42.525 -11.796  -1.484  1.00  0.00    -0.227 N 
HETATM   25  N   UNL     1      42.832 -11.258  -0.271  1.00  0.00    -0.179 NA
HETATM   26  C   UNL     1      43.298 -10.041  -0.555  1.00  0.00     0.141 A 
HETATM   27  C   UNL     1      43.303  -9.771  -1.933  1.00  0.00     0.040 A 
HETATM   28  C   UNL     1      42.803 -10.913  -2.508  1.00  0.00     0.122 A 
ENDBRANCH  20  24
ENDBRANCH   2  18
TORSDOF 7
ENDMDL
MODEL 8
REMARK VINA RESULT:      -7.7      4.099      7.150
REMARK  7 active torsions:
REMARK  status: ('A' for Active; 'I' for Inactive)
REMARK    1  A    between atoms: C_2  and  N_3 
REMARK    2  A    between atoms: C_2  and  C_17 
REMARK       I    between atoms: N_3  and  C_4 
REMARK    3  A    between atoms: C_4  and  C_5 
REMARK    4  A    between atoms: C_7  and  N_8 
REMARK    5  A    between atoms: C_17  and  O_18 
REMARK    6  A    between atoms: C_17  and  C_19 
REMARK    7  A    between atoms: C_22  and  O_23 
ROOT
HETATM    1  N   UNL     1      43.443 -19.721   2.658  1.00  0.00    -0.349 N 
HETATM    2  C   UNL     1      43.485 -18.528   1.967  1.00  0.00     0.270 C 
HETATM    3  O   UNL     1      44.309 -18.271   1.097  1.00  0.00    -0.266 OA
HETATM    4  H   UNL     1      42.814 -19.750   3.457  1.00  0.00     0.163 HD
ENDROOT
BRANCH   1   5
HETATM    5  C   UNL     1      44.457 -20.758   2.495  1.00  0.00     0.114 C 
HETATM    6  C   UNL     1      43.932 -21.857   1.572  1.00  0.00     0.035 C 
BRANCH   5   7
HETATM    7  C   UNL     1      45.005 -21.287   3.852  1.00  0.00     0.173 C 
BRANCH   7   8
HETATM    8  O   UNL     1      44.536 -22.622   4.084  1.00  0.00    -0.389 OA
HETATM    9  H   UNL     1      43.582 -22.546   4.266  1.00  0.00     0.210 HD
ENDBRANCH   7   8
BRANCH   7  10
HETATM   10  C   UNL     1      44.677 -20.416   5.053  1.00  0.00    -0.028 A 
HETATM   11  C   UNL     1      43.933 -20.939   6.119  1.00  0.00     0.012 A 
HETATM   12  C   UNL     1      43.629 -20.146   7.230  1.00  0.00     0.037 A 
HETATM   13  C   UNL     1      44.059 -18.821   7.300  1.00  0.00     0.068 A 
HETATM   14  C   UNL     1      44.805 -18.292   6.249  1.00  0.00     0.037 A 
HETATM   15  C   UNL     1      45.111 -19.084   5.135  1.00  0.00     0.012 A 
BRANCH  13  16
HETATM   16  O   UNL     1      43.689 -18.157   8.438  1.00  0.00    -0.356 OA
HETATM   17  C   UNL     1      43.446 -16.762   8.317  1.00  0.00     0.210 C 
ENDBRANCH  13  16
ENDBRANCH   7  10
ENDBRANCH   5   7
ENDBRANCH   1   5
BRANCH   2  18
HETATM   18  C   UNL     1      42.441 -17.534   2.376  1.00  0.00     0.126 A 
HETATM   19  N   UNL     1      42.822 -16.609   3.302  1.00  0.00    -0.224 NA
HETATM   20  C   UNL     1      41.879 -15.702   3.678  1.00  0.00     0.151 A 
HETATM   21  C   UNL     1      40.583 -15.698   3.161  1.00  0.00     0.052 A 
HETATM   22  C   UNL     1      40.231 -16.657   2.213  1.00  0.00     0.006 A 
HETATM   23  C   UNL     1      41.176 -17.593   1.808  1.00  0.00     0.037 A 
BRANCH  20  24
HETATM   24  N   UNL     1      42.240 -14.712   4.641  1.00  0.00    -0.227 N 
HETATM   25  N   UNL     1      43.424 -14.741   5.313  1.00  0.00    -0.179 NA
HETATM   26  C   UNL     1      43.383 -13.670   6.107  1.00  0.00     0.141 A 
HETATM   27  C   UNL     1      42.193 -12.937   5.967  1.00  0.00     0.040 A 
HETATM   28  C   UNL     1      41.476 -13.626   5.019  1.00  0.00     0.122 A 
ENDBRANCH  20  24
ENDBRANCH   2  18
TORSDOF 7
ENDMDL
MODEL 9
REMARK VINA RESULT:      -7.7      5.432      9.121
REMARK  7 active torsions:
REMARK  status: ('A' for Active; 'I' for Inactive)
REMARK    1  A    between atoms: C_2  and  N_3 
REMARK    2  A    between atoms: C_2  and  C_17 
REMARK       I    between atoms: N_3  and  C_4 
REMARK    3  A    between atoms: C_4  and  C_5 
REMARK    4  A    between atoms: C_7  and  N_8 
REMARK    5  A    between atoms: C_17  and  O_18 
REMARK    6  A    between atoms: C_17  and  C_19 
REMARK    7  A    between atoms: C_22  and  O_23 
ROOT
HETATM    1  N   UNL     1      41.384 -15.750   4.052  1.00  0.00    -0.349 N 
HETATM    2  C   UNL     1      42.759 -15.697   3.973  1.00  0.00     0.270 C 
HETATM    3  O   UNL     1      43.380 -14.761   3.483  1.00  0.00    -0.266 OA
HETATM    4  H   UNL     1      40.988 -16.643   4.335  1.00  0.00     0.163 HD
ENDROOT
BRANCH   1   5
HETATM    5  C   UNL     1      40.524 -14.734   3.451  1.00  0.00     0.114 C 
HETATM    6  C   UNL     1      39.863 -13.900   4.549  1.00  0.00     0.035 C 
BRANCH   5   7
HETATM    7  C   UNL     1      39.517 -15.324   2.421  1.00  0.00     0.173 C 
BRANCH   7   8
HETATM    8  O   UNL     1      39.649 -16.750   2.368  1.00  0.00    -0.389 OA
HETATM    9  H   UNL     1      38.884 -17.074   1.859  1.00  0.00     0.210 HD
ENDBRANCH   7   8
BRANCH   7  10
HETATM   10  C   UNL     1      39.633 -14.748   1.019  1.00  0.00    -0.028 A 
HETATM   11  C   UNL     1      40.811 -14.924   0.282  1.00  0.00     0.012 A 
HETATM   12  C   UNL     1      40.925 -14.401  -1.009  1.00  0.00     0.037 A 
HETATM   13  C   UNL     1      39.871 -13.694  -1.589  1.00  0.00     0.068 A 
HETATM   14  C   UNL     1      38.693 -13.518  -0.867  1.00  0.00     0.037 A 
HETATM   15  C   UNL     1      38.575 -14.041   0.426  1.00  0.00     0.012 A 
BRANCH  13  16
HETATM   16  O   UNL     1      40.117 -13.233  -2.854  1.00  0.00    -0.356 OA
HETATM   17  C   UNL     1      41.253 -13.766  -3.522  1.00  0.00     0.210 C 
ENDBRANCH  13  16
ENDBRANCH   7  10
ENDBRANCH   5   7
ENDBRANCH   1   5
BRANCH   2  18
HETATM   18  C   UNL     1      43.461 -16.902   4.520  1.00  0.00     0.126 A 
HETATM   19  N   UNL     1      43.474 -18.006   3.720  1.00  0.00    -0.224 NA
HETATM   20  C   UNL     1      44.111 -19.105   4.210  1.00  0.00     0.151 A 
HETATM   21  C   UNL     1      44.725 -19.128   5.463  1.00  0.00     0.052 A 
HETATM   22  C   UNL     1      44.695 -17.980   6.251  1.00  0.00     0.006 A 
HETATM   23  C   UNL     1      44.054 -16.842   5.773  1.00  0.00     0.037 A 
BRANCH  20  24
HETATM   24  N   UNL     1      44.153 -20.280   3.400  1.00  0.00    -0.227 N 
HETATM   25  N   UNL     1      44.687 -21.453   3.838  1.00  0.00    -0.179 NA
HETATM   26  C   UNL     1      44.543 -22.289   2.808  1.00  0.00     0.141 A 
HETATM   27  C   UNL     1      43.922 -21.685   1.703  1.00  0.00     0.040 A 
HETATM   28  C   UNL     1      43.681 -20.395   2.108  1.00  0.00     0.122 A 
ENDBRANCH  20  24
ENDBRANCH   2  18
TORSDOF 7
ENDMDL
MODEL 10
REMARK VINA RESULT:      -7.3      7.053     10.319
REMARK  7 active torsions:
REMARK  status: ('A' for Active; 'I' for Inactive)
REMARK    1  A    between atoms: C_2  and  N_3 
REMARK    2  A    between atoms: C_2  and  C_17 
REMARK       I    between atoms: N_3  and  C_4 
REMARK    3  A    between atoms: C_4  and  C_5 
REMARK    4  A    between atoms: C_7  and  N_8 
REMARK    5  A    between atoms: C_17  and  O_18 
REMARK    6  A    between atoms: C_17  and  C_19 
REMARK    7  A    between atoms: C_22  and  O_23 
ROOT
HETATM    1  N   UNL     1      41.341 -15.007   1.097  1.00  0.00    -0.349 N 
HETATM    2  C   UNL     1      40.152 -14.586   0.541  1.00  0.00     0.270 C 
HETATM    3  O   UNL     1      39.205 -14.162   1.193  1.00  0.00    -0.266 OA
HETATM    4  H   UNL     1      41.984 -15.480   0.466  1.00  0.00     0.163 HD
ENDROOT
BRANCH   1   5
HETATM    5  C   UNL     1      41.545 -15.094   2.539  1.00  0.00     0.114 C 
HETATM    6  C   UNL     1      42.998 -14.760   2.879  1.00  0.00     0.035 C 
BRANCH   5   7
HETATM    7  C   UNL     1      41.056 -16.444   3.141  1.00  0.00     0.173 C 
BRANCH   7   8
HETATM    8  O   UNL     1      40.644 -16.255   4.500  1.00  0.00    -0.389 OA
HETATM    9  H   UNL     1      41.399 -15.843   4.957  1.00  0.00     0.210 HD
ENDBRANCH   7   8
BRANCH   7  10
HETATM   10  C   UNL     1      42.068 -17.576   3.067  1.00  0.00    -0.028 A 
HETATM   11  C   UNL     1      42.702 -18.028   4.231  1.00  0.00     0.012 A 
HETATM   12  C   UNL     1      43.631 -19.071   4.174  1.00  0.00     0.037 A 
HETATM   13  C   UNL     1      43.947 -19.681   2.959  1.00  0.00     0.068 A 
HETATM   14  C   UNL     1      43.318 -19.242   1.796  1.00  0.00     0.037 A 
HETATM   15  C   UNL     1      42.386 -18.199   1.850  1.00  0.00     0.012 A 
BRANCH  13  16
HETATM   16  O   UNL     1      44.874 -20.683   3.044  1.00  0.00    -0.356 OA
HETATM   17  C   UNL     1      44.449 -21.985   2.662  1.00  0.00     0.210 C 
ENDBRANCH  13  16
ENDBRANCH   7  10
ENDBRANCH   5   7
ENDBRANCH   1   5
BRANCH   2  18
HETATM   18  C   UNL     1      40.085 -14.705  -0.951  1.00  0.00     0.126 A 
HETATM   19  N   UNL     1      38.955 -14.225  -1.543  1.00  0.00    -0.224 NA
HETATM   20  C   UNL     1      38.888 -14.328  -2.899  1.00  0.00     0.151 A 
HETATM   21  C   UNL     1      39.907 -14.895  -3.667  1.00  0.00     0.052 A 
HETATM   22  C   UNL     1      41.049 -15.371  -3.026  1.00  0.00     0.006 A 
HETATM   23  C   UNL     1      41.145 -15.274  -1.643  1.00  0.00     0.037 A 
BRANCH  20  24
HETATM   24  N   UNL     1      37.724 -13.830  -3.558  1.00  0.00    -0.227 N 
HETATM   25  N   UNL     1      37.401 -12.507  -3.575  1.00  0.00    -0.179 NA
HETATM   26  C   UNL     1      36.266 -12.450  -4.273  1.00  0.00     0.141 A 
HETATM   27  C   UNL     1      35.838 -13.712  -4.715  1.00  0.00     0.040 A 
HETATM   28  C   UNL     1      36.792 -14.582  -4.245  1.00  0.00     0.122 A 
ENDBRANCH  20  24
ENDBRANCH   2  18
TORSDOF 7
ENDMDL
