MODEL 1
REMARK VINA RESULT:      -8.5      0.000      0.000
REMARK  5 active torsions:
REMARK  status: ('A' for Active; 'I' for Inactive)
REMARK    1  A    between atoms: C_3  and  C_4 
REMARK       I    between atoms: C_4  and  N_5 
REMARK    2  A    between atoms: N_5  and  C_6 
REMARK    3  A    between atoms: C_6  and  C_7 
REMARK    4  A    between atoms: C_10  and  O_11 
REMARK    5  A    between atoms: O_11  and  C_12 
ROOT
HETATM    1  C   UNL     1      39.492 -10.576   9.060  1.00  0.00     0.052 C 
HETATM    2  C   UNL     1      40.976 -10.650   8.992  1.00  0.00    -0.009 A 
HETATM    3  C   UNL     1      41.747 -10.990   7.880  1.00  0.00     0.150 A 
HETATM    4  O   UNL     1      43.064 -11.038   8.237  1.00  0.00    -0.304 OA
HETATM    5  C   UNL     1      43.161 -10.702   9.542  1.00  0.00     0.088 A 
HETATM    6  C   UNL     1      41.906 -10.433  10.080  1.00  0.00     0.020 A 
HETATM    7  C   UNL     1      41.867 -10.058  11.449  1.00  0.00     0.011 A 
HETATM    8  C   UNL     1      43.072  -9.979  12.174  1.00  0.00     0.081 A 
HETATM    9  O   UNL     1      43.131  -9.641  13.499  1.00  0.00    -0.336 OA
HETATM   10  C   UNL     1      41.967  -9.042  14.104  1.00  0.00     0.078 C 
HETATM   11  C   UNL     1      42.232  -7.535  14.209  1.00  0.00     0.051 C 
HETATM   12  C   UNL     1      41.873  -9.646  15.510  1.00  0.00     0.051 C 
HETATM   13  C   UNL     1      40.669  -9.281  13.367  1.00  0.00     0.012 C 
HETATM   14  C   UNL     1      40.612  -9.762  12.120  1.00  0.00     0.014 C 
HETATM   15  C   UNL     1      44.296 -10.278  11.581  1.00  0.00     0.040 A 
HETATM   16  C   UNL     1      44.366 -10.642  10.238  1.00  0.00     0.041 A 
ENDROOT
BRANCH   3  17
HETATM   17  C   UNL     1      41.457 -11.308   6.493  1.00  0.00     0.276 C 
HETATM   18  N   UNL     1      41.179 -12.636   6.224  1.00  0.00    -0.351 N 
HETATM   19  H   UNL     1      40.941 -13.237   7.001  1.00  0.00     0.163 HD
HETATM   20  O   UNL     1      41.409 -10.460   5.604  1.00  0.00    -0.265 OA
BRANCH  18  21
HETATM   21  C   UNL     1      40.689 -13.003   4.916  1.00  0.00     0.161 C 
BRANCH  21  22
HETATM   22  C   UNL     1      41.254 -14.315   4.439  1.00  0.00    -0.040 A 
HETATM   23  C   UNL     1      42.447 -14.813   4.973  1.00  0.00     0.011 A 
HETATM   24  C   UNL     1      42.924 -16.069   4.589  1.00  0.00     0.037 A 
HETATM   25  C   UNL     1      42.217 -16.853   3.677  1.00  0.00     0.069 A 
HETATM   26  C   UNL     1      41.044 -16.349   3.114  1.00  0.00     0.037 A 
HETATM   27  C   UNL     1      40.561 -15.093   3.500  1.00  0.00     0.011 A 
BRANCH  25  28
HETATM   28  O   UNL     1      42.781 -18.066   3.404  1.00  0.00    -0.347 OA
BRANCH  28  29
HETATM   29  C   UNL     1      42.937 -18.449   2.033  1.00  0.00     0.120 C 
HETATM   30  C   UNL     1      44.047 -17.614   1.405  1.00  0.00     0.040 C 
HETATM   31  C   UNL     1      43.317 -19.928   2.023  1.00  0.00     0.040 C 
ENDBRANCH  28  29
ENDBRANCH  25  28
ENDBRANCH  21  22
ENDBRANCH  18  21
ENDBRANCH   3  17
TORSDOF 5
ENDMDL
MODEL 2
REMARK VINA RESULT:      -8.5      7.682     10.370
REMARK  5 active torsions:
REMARK  status: ('A' for Active; 'I' for Inactive)
REMARK    1  A    between atoms: C_3  and  C_4 
REMARK       I    between atoms: C_4  and  N_5 
REMARK    2  A    between atoms: N_5  and  C_6 
REMARK    3  A    between atoms: C_6  and  C_7 
REMARK    4  A    between atoms: C_10  and  O_11 
REMARK    5  A    between atoms: O_11  and  C_12 
ROOT
HETATM    1  C   UNL     1      40.206 -15.374   3.269  1.00  0.00     0.052 C 
HETATM    2  C   UNL     1      41.129 -16.065   2.328  1.00  0.00    -0.009 A 
HETATM    3  C   UNL     1      41.181 -15.912   0.943  1.00  0.00     0.150 A 
HETATM    4  O   UNL     1      42.093 -16.783   0.423  1.00  0.00    -0.304 OA
HETATM    5  C   UNL     1      42.656 -17.466   1.443  1.00  0.00     0.088 A 
HETATM    6  C   UNL     1      42.118 -17.067   2.663  1.00  0.00     0.020 A 
HETATM    7  C   UNL     1      42.629 -17.706   3.824  1.00  0.00     0.011 A 
HETATM    8  C   UNL     1      43.631 -18.686   3.684  1.00  0.00     0.081 A 
HETATM    9  O   UNL     1      44.173 -19.364   4.743  1.00  0.00    -0.336 OA
HETATM   10  C   UNL     1      43.946 -18.850   6.070  1.00  0.00     0.078 C 
HETATM   11  C   UNL     1      45.227 -18.128   6.505  1.00  0.00     0.051 C 
HETATM   12  C   UNL     1      43.724 -20.080   6.959  1.00  0.00     0.051 C 
HETATM   13  C   UNL     1      42.765 -17.916   6.201  1.00  0.00     0.012 C 
HETATM   14  C   UNL     1      42.137 -17.376   5.151  1.00  0.00     0.014 C 
HETATM   15  C   UNL     1      44.116 -19.053   2.431  1.00  0.00     0.040 A 
HETATM   16  C   UNL     1      43.638 -18.440   1.275  1.00  0.00     0.041 A 
ENDROOT
BRANCH   3  17
HETATM   17  C   UNL     1      40.488 -15.074  -0.020  1.00  0.00     0.276 C 
HETATM   18  N   UNL     1      40.696 -15.387  -1.351  1.00  0.00    -0.351 N 
HETATM   19  H   UNL     1      41.082 -16.295  -1.570  1.00  0.00     0.163 HD
HETATM   20  O   UNL     1      39.721 -14.169   0.303  1.00  0.00    -0.265 OA
BRANCH  18  21
HETATM   21  C   UNL     1      39.895 -14.736  -2.362  1.00  0.00     0.161 C 
BRANCH  21  22
HETATM   22  C   UNL     1      40.596 -13.553  -2.976  1.00  0.00    -0.040 A 
HETATM   23  C   UNL     1      39.861 -12.506  -3.544  1.00  0.00     0.011 A 
HETATM   24  C   UNL     1      40.511 -11.372  -4.037  1.00  0.00     0.037 A 
HETATM   25  C   UNL     1      41.899 -11.255  -3.962  1.00  0.00     0.069 A 
HETATM   26  C   UNL     1      42.642 -12.308  -3.427  1.00  0.00     0.037 A 
HETATM   27  C   UNL     1      41.993 -13.444  -2.928  1.00  0.00     0.011 A 
BRANCH  25  28
HETATM   28  O   UNL     1      42.405 -10.088  -4.460  1.00  0.00    -0.347 OA
BRANCH  28  29
HETATM   29  C   UNL     1      42.069  -8.866  -3.795  1.00  0.00     0.120 C 
HETATM   30  C   UNL     1      42.870  -8.763  -2.502  1.00  0.00     0.040 C 
HETATM   31  C   UNL     1      42.442  -7.726  -4.741  1.00  0.00     0.040 C 
ENDBRANCH  28  29
ENDBRANCH  25  28
ENDBRANCH  21  22
ENDBRANCH  18  21
ENDBRANCH   3  17
TORSDOF 5
ENDMDL
MODEL 3
REMARK VINA RESULT:      -8.3      1.653     10.160
REMARK  5 active torsions:
REMARK  status: ('A' for Active; 'I' for Inactive)
REMARK    1  A    between atoms: C_3  and  C_4 
REMARK       I    between atoms: C_4  and  N_5 
REMARK    2  A    between atoms: N_5  and  C_6 
REMARK    3  A    between atoms: C_6  and  C_7 
REMARK    4  A    between atoms: C_10  and  O_11 
REMARK    5  A    between atoms: O_11  and  C_12 
ROOT
HETATM    1  C   UNL     1      43.093 -13.645   2.902  1.00  0.00     0.052 C 
HETATM    2  C   UNL     1      42.392 -14.328   4.022  1.00  0.00    -0.009 A 
HETATM    3  C   UNL     1      41.598 -13.732   5.001  1.00  0.00     0.150 A 
HETATM    4  O   UNL     1      41.208 -14.674   5.908  1.00  0.00    -0.304 OA
HETATM    5  C   UNL     1      41.702 -15.869   5.515  1.00  0.00     0.088 A 
HETATM    6  C   UNL     1      42.439 -15.739   4.342  1.00  0.00     0.020 A 
HETATM    7  C   UNL     1      43.011 -16.928   3.815  1.00  0.00     0.011 A 
HETATM    8  C   UNL     1      42.807 -18.146   4.490  1.00  0.00     0.081 A 
HETATM    9  O   UNL     1      43.329 -19.339   4.066  1.00  0.00    -0.336 OA
HETATM   10  C   UNL     1      43.846 -19.417   2.722  1.00  0.00     0.078 C 
HETATM   11  C   UNL     1      42.792 -20.134   1.870  1.00  0.00     0.051 C 
HETATM   12  C   UNL     1      45.109 -20.284   2.813  1.00  0.00     0.051 C 
HETATM   13  C   UNL     1      44.193 -18.088   2.092  1.00  0.00     0.012 C 
HETATM   14  C   UNL     1      43.808 -16.912   2.600  1.00  0.00     0.014 C 
HETATM   15  C   UNL     1      42.071 -18.207   5.671  1.00  0.00     0.040 A 
HETATM   16  C   UNL     1      41.493 -17.059   6.209  1.00  0.00     0.041 A 
ENDROOT
BRANCH   3  17
HETATM   17  C   UNL     1      41.135 -12.379   5.258  1.00  0.00     0.276 C 
HETATM   18  N   UNL     1      40.069 -12.262   6.131  1.00  0.00    -0.351 N 
HETATM   19  H   UNL     1      39.849 -13.054   6.719  1.00  0.00     0.163 HD
HETATM   20  O   UNL     1      41.672 -11.382   4.780  1.00  0.00    -0.265 OA
BRANCH  18  21
HETATM   21  C   UNL     1      39.676 -10.951   6.593  1.00  0.00     0.161 C 
BRANCH  21  22
HETATM   22  C   UNL     1      40.182 -10.655   7.980  1.00  0.00    -0.040 A 
HETATM   23  C   UNL     1      39.530 -11.176   9.102  1.00  0.00     0.011 A 
HETATM   24  C   UNL     1      40.049 -10.968  10.383  1.00  0.00     0.037 A 
HETATM   25  C   UNL     1      41.232 -10.250  10.565  1.00  0.00     0.069 A 
HETATM   26  C   UNL     1      41.871  -9.700   9.454  1.00  0.00     0.037 A 
HETATM   27  C   UNL     1      41.354  -9.909   8.170  1.00  0.00     0.011 A 
BRANCH  25  28
HETATM   28  O   UNL     1      41.641 -10.139  11.863  1.00  0.00    -0.347 OA
BRANCH  28  29
HETATM   29  C   UNL     1      43.041 -10.244  12.144  1.00  0.00     0.120 C 
HETATM   30  C   UNL     1      43.339  -9.544  13.466  1.00  0.00     0.040 C 
HETATM   31  C   UNL     1      43.366 -11.733  12.249  1.00  0.00     0.040 C 
ENDBRANCH  28  29
ENDBRANCH  25  28
ENDBRANCH  21  22
ENDBRANCH  18  21
ENDBRANCH   3  17
TORSDOF 5
ENDMDL
MODEL 4
REMARK VINA RESULT:      -8.2      2.024     10.136
REMARK  5 active torsions:
REMARK  status: ('A' for Active; 'I' for Inactive)
REMARK    1  A    between atoms: C_3  and  C_4 
REMARK       I    between atoms: C_4  and  N_5 
REMARK    2  A    between atoms: N_5  and  C_6 
REMARK    3  A    between atoms: C_6  and  C_7 
REMARK    4  A    between atoms: C_10  and  O_11 
REMARK    5  A    between atoms: O_11  and  C_12 
ROOT
HETATM    1  C   UNL     1      44.221 -14.243   7.078  1.00  0.00     0.052 C 
HETATM    2  C   UNL     1      43.117 -14.551   6.129  1.00  0.00    -0.009 A 
HETATM    3  C   UNL     1      42.160 -13.661   5.641  1.00  0.00     0.150 A 
HETATM    4  O   UNL     1      41.261 -14.338   4.869  1.00  0.00    -0.304 OA
HETATM    5  C   UNL     1      41.638 -15.634   4.818  1.00  0.00     0.088 A 
HETATM    6  C   UNL     1      42.793 -15.844   5.566  1.00  0.00     0.020 A 
HETATM    7  C   UNL     1      43.303 -17.170   5.592  1.00  0.00     0.011 A 
HETATM    8  C   UNL     1      42.631 -18.178   4.875  1.00  0.00     0.081 A 
HETATM    9  O   UNL     1      43.039 -19.485   4.852  1.00  0.00    -0.336 OA
HETATM   10  C   UNL     1      44.369 -19.792   5.316  1.00  0.00     0.078 C 
HETATM   11  C   UNL     1      45.246 -20.005   4.076  1.00  0.00     0.051 C 
HETATM   12  C   UNL     1      44.245 -21.110   6.090  1.00  0.00     0.051 C 
HETATM   13  C   UNL     1      44.993 -18.743   6.208  1.00  0.00     0.012 C 
HETATM   14  C   UNL     1      44.497 -17.509   6.347  1.00  0.00     0.014 C 
HETATM   15  C   UNL     1      41.468 -17.906   4.157  1.00  0.00     0.040 A 
HETATM   16  C   UNL     1      40.948 -16.614   4.109  1.00  0.00     0.041 A 
ENDROOT
BRANCH   3  17
HETATM   17  C   UNL     1      41.917 -12.237   5.791  1.00  0.00     0.276 C 
HETATM   18  N   UNL     1      41.763 -11.785   7.088  1.00  0.00    -0.351 N 
HETATM   19  H   UNL     1      42.075 -12.384   7.839  1.00  0.00     0.163 HD
HETATM   20  O   UNL     1      41.894 -11.455   4.842  1.00  0.00    -0.265 OA
BRANCH  18  21
HETATM   21  C   UNL     1      41.716 -10.363   7.339  1.00  0.00     0.161 C 
BRANCH  21  22
HETATM   22  C   UNL     1      42.069 -10.018   8.761  1.00  0.00    -0.040 A 
HETATM   23  C   UNL     1      41.363  -9.025   9.450  1.00  0.00     0.011 A 
HETATM   24  C   UNL     1      41.638  -8.765  10.795  1.00  0.00     0.037 A 
HETATM   25  C   UNL     1      42.611  -9.496  11.478  1.00  0.00     0.069 A 
HETATM   26  C   UNL     1      43.342 -10.464  10.791  1.00  0.00     0.037 A 
HETATM   27  C   UNL     1      43.066 -10.729   9.444  1.00  0.00     0.011 A 
BRANCH  25  28
HETATM   28  O   UNL     1      42.764  -9.156  12.793  1.00  0.00    -0.347 OA
BRANCH  28  29
HETATM   29  C   UNL     1      42.501 -10.153  13.786  1.00  0.00     0.120 C 
HETATM   30  C   UNL     1      42.481  -9.496  15.161  1.00  0.00     0.040 C 
HETATM   31  C   UNL     1      41.133 -10.752  13.466  1.00  0.00     0.040 C 
ENDBRANCH  28  29
ENDBRANCH  25  28
ENDBRANCH  21  22
ENDBRANCH  18  21
ENDBRANCH   3  17
TORSDOF 5
ENDMDL
MODEL 5
REMARK VINA RESULT:      -8.2      1.590      2.592
REMARK  5 active torsions:
REMARK  status: ('A' for Active; 'I' for Inactive)
REMARK    1  A    between atoms: C_3  and  C_4 
REMARK       I    between atoms: C_4  and  N_5 
REMARK    2  A    between atoms: N_5  and  C_6 
REMARK    3  A    between atoms: C_6  and  C_7 
REMARK    4  A    between atoms: C_10  and  O_11 
REMARK    5  A    between atoms: O_11  and  C_12 
ROOT
HETATM    1  C   UNL     1      42.384 -10.898   8.361  1.00  0.00     0.052 C 
HETATM    2  C   UNL     1      40.958 -10.713   8.741  1.00  0.00    -0.009 A 
HETATM    3  C   UNL     1      39.838 -11.062   7.986  1.00  0.00     0.150 A 
HETATM    4  O   UNL     1      38.708 -10.649   8.630  1.00  0.00    -0.304 OA
HETATM    5  C   UNL     1      39.072 -10.075   9.797  1.00  0.00     0.088 A 
HETATM    6  C   UNL     1      40.455 -10.088   9.946  1.00  0.00     0.020 A 
HETATM    7  C   UNL     1      40.973  -9.518  11.140  1.00  0.00     0.011 A 
HETATM    8  C   UNL     1      40.080  -8.983  12.088  1.00  0.00     0.081 A 
HETATM    9  O   UNL     1      40.486  -8.402  13.259  1.00  0.00    -0.336 OA
HETATM   10  C   UNL     1      41.845  -8.616  13.692  1.00  0.00     0.078 C 
HETATM   11  C   UNL     1      41.809  -9.676  14.798  1.00  0.00     0.051 C 
HETATM   12  C   UNL     1      42.309  -7.276  14.279  1.00  0.00     0.051 C 
HETATM   13  C   UNL     1      42.802  -9.045  12.604  1.00  0.00     0.012 C 
HETATM   14  C   UNL     1      42.402  -9.468  11.400  1.00  0.00     0.014 C 
HETATM   15  C   UNL     1      38.704  -8.986  11.872  1.00  0.00     0.040 A 
HETATM   16  C   UNL     1      38.167  -9.543  10.713  1.00  0.00     0.041 A 
ENDROOT
BRANCH   3  17
HETATM   17  C   UNL     1      39.631 -11.725   6.710  1.00  0.00     0.276 C 
HETATM   18  N   UNL     1      40.130 -13.011   6.611  1.00  0.00    -0.351 N 
HETATM   19  H   UNL     1      40.362 -13.496   7.466  1.00  0.00     0.163 HD
HETATM   20  O   UNL     1      39.013 -11.214   5.778  1.00  0.00    -0.265 OA
BRANCH  18  21
HETATM   21  C   UNL     1      39.797 -13.810   5.454  1.00  0.00     0.161 C 
BRANCH  21  22
HETATM   22  C   UNL     1      40.918 -14.730   5.049  1.00  0.00    -0.040 A 
HETATM   23  C   UNL     1      40.782 -16.116   5.176  1.00  0.00     0.011 A 
HETATM   24  C   UNL     1      41.790 -16.971   4.722  1.00  0.00     0.037 A 
HETATM   25  C   UNL     1      42.943 -16.459   4.125  1.00  0.00     0.069 A 
HETATM   26  C   UNL     1      43.101 -15.078   4.025  1.00  0.00     0.037 A 
HETATM   27  C   UNL     1      42.091 -14.219   4.476  1.00  0.00     0.011 A 
BRANCH  25  28
HETATM   28  O   UNL     1      43.839 -17.403   3.707  1.00  0.00    -0.347 OA
BRANCH  28  29
HETATM   29  C   UNL     1      43.510 -18.185   2.554  1.00  0.00     0.120 C 
HETATM   30  C   UNL     1      44.046 -17.489   1.308  1.00  0.00     0.040 C 
HETATM   31  C   UNL     1      44.183 -19.545   2.731  1.00  0.00     0.040 C 
ENDBRANCH  28  29
ENDBRANCH  25  28
ENDBRANCH  21  22
ENDBRANCH  18  21
ENDBRANCH   3  17
TORSDOF 5
ENDMDL
MODEL 6
REMARK VINA RESULT:      -8.0      5.123     11.297
REMARK  5 active torsions:
REMARK  status: ('A' for Active; 'I' for Inactive)
REMARK    1  A    between atoms: C_3  and  C_4 
REMARK       I    between atoms: C_4  and  N_5 
REMARK    2  A    between atoms: N_5  and  C_6 
REMARK    3  A    between atoms: C_6  and  C_7 
REMARK    4  A    between atoms: C_10  and  O_11 
REMARK    5  A    between atoms: O_11  and  C_12 
ROOT
HETATM    1  C   UNL     1      42.168 -13.499   1.574  1.00  0.00     0.052 C 
HETATM    2  C   UNL     1      41.699 -14.451   0.532  1.00  0.00    -0.009 A 
HETATM    3  C   UNL     1      41.391 -15.800   0.707  1.00  0.00     0.150 A 
HETATM    4  O   UNL     1      41.088 -16.358  -0.501  1.00  0.00    -0.304 OA
HETATM    5  C   UNL     1      41.158 -15.392  -1.443  1.00  0.00     0.088 A 
HETATM    6  C   UNL     1      41.520 -14.173  -0.878  1.00  0.00     0.020 A 
HETATM    7  C   UNL     1      41.623 -13.067  -1.762  1.00  0.00     0.011 A 
HETATM    8  C   UNL     1      41.360 -13.256  -3.133  1.00  0.00     0.081 A 
HETATM    9  O   UNL     1      41.448 -12.254  -4.061  1.00  0.00    -0.336 OA
HETATM   10  C   UNL     1      41.507 -10.892  -3.591  1.00  0.00     0.078 C 
HETATM   11  C   UNL     1      40.113 -10.283  -3.782  1.00  0.00     0.051 C 
HETATM   12  C   UNL     1      42.509 -10.179  -4.509  1.00  0.00     0.051 C 
HETATM   13  C   UNL     1      41.941 -10.730  -2.152  1.00  0.00     0.012 C 
HETATM   14  C   UNL     1      42.002 -11.747  -1.286  1.00  0.00     0.014 C 
HETATM   15  C   UNL     1      41.018 -14.508  -3.640  1.00  0.00     0.040 A 
HETATM   16  C   UNL     1      40.903 -15.610  -2.796  1.00  0.00     0.041 A 
ENDROOT
BRANCH   3  17
HETATM   17  C   UNL     1      41.345 -16.699   1.847  1.00  0.00     0.276 C 
HETATM   18  N   UNL     1      42.569 -17.143   2.313  1.00  0.00    -0.351 N 
HETATM   19  H   UNL     1      43.397 -16.640   2.026  1.00  0.00     0.163 HD
HETATM   20  O   UNL     1      40.301 -17.020   2.409  1.00  0.00    -0.265 OA
BRANCH  18  21
HETATM   21  C   UNL     1      42.626 -17.876   3.556  1.00  0.00     0.161 C 
BRANCH  21  22
HETATM   22  C   UNL     1      43.185 -17.051   4.685  1.00  0.00    -0.040 A 
HETATM   23  C   UNL     1      42.817 -15.710   4.836  1.00  0.00     0.011 A 
HETATM   24  C   UNL     1      43.272 -14.971   5.931  1.00  0.00     0.037 A 
HETATM   25  C   UNL     1      44.089 -15.558   6.899  1.00  0.00     0.069 A 
HETATM   26  C   UNL     1      44.486 -16.885   6.739  1.00  0.00     0.037 A 
HETATM   27  C   UNL     1      44.029 -17.629   5.644  1.00  0.00     0.011 A 
BRANCH  25  28
HETATM   28  O   UNL     1      44.444 -14.732   7.927  1.00  0.00    -0.347 OA
BRANCH  28  29
HETATM   29  C   UNL     1      44.692 -13.352   7.634  1.00  0.00     0.120 C 
HETATM   30  C   UNL     1      44.620 -12.547   8.926  1.00  0.00     0.040 C 
HETATM   31  C   UNL     1      46.095 -13.268   7.036  1.00  0.00     0.040 C 
ENDBRANCH  28  29
ENDBRANCH  25  28
ENDBRANCH  21  22
ENDBRANCH  18  21
ENDBRANCH   3  17
TORSDOF 5
ENDMDL
MODEL 7
REMARK VINA RESULT:      -8.0      6.468     10.218
REMARK  5 active torsions:
REMARK  status: ('A' for Active; 'I' for Inactive)
REMARK    1  A    between atoms: C_3  and  C_4 
REMARK       I    between atoms: C_4  and  N_5 
REMARK    2  A    between atoms: N_5  and  C_6 
REMARK    3  A    between atoms: C_6  and  C_7 
REMARK    4  A    between atoms: C_10  and  O_11 
REMARK    5  A    between atoms: O_11  and  C_12 
ROOT
HETATM    1  C   UNL     1      42.006 -15.418   0.755  1.00  0.00     0.052 C 
HETATM    2  C   UNL     1      41.082 -14.470   1.434  1.00  0.00    -0.009 A 
HETATM    3  C   UNL     1      41.105 -14.096   2.777  1.00  0.00     0.150 A 
HETATM    4  O   UNL     1      40.041 -13.283   3.041  1.00  0.00    -0.304 OA
HETATM    5  C   UNL     1      39.356 -13.095   1.892  1.00  0.00     0.088 A 
HETATM    6  C   UNL     1      39.949 -13.791   0.842  1.00  0.00     0.020 A 
HETATM    7  C   UNL     1      39.329 -13.673  -0.430  1.00  0.00     0.011 A 
HETATM    8  C   UNL     1      38.175 -12.877  -0.561  1.00  0.00     0.081 A 
HETATM    9  O   UNL     1      37.502 -12.716  -1.742  1.00  0.00    -0.336 OA
HETATM   10  C   UNL     1      38.159 -13.114  -2.962  1.00  0.00     0.078 C 
HETATM   11  C   UNL     1      38.671 -11.839  -3.642  1.00  0.00     0.051 C 
HETATM   12  C   UNL     1      37.070 -13.758  -3.829  1.00  0.00     0.051 C 
HETATM   13  C   UNL     1      39.300 -14.090  -2.784  1.00  0.00     0.012 C 
HETATM   14  C   UNL     1      39.854 -14.362  -1.597  1.00  0.00     0.014 C 
HETATM   15  C   UNL     1      37.620 -12.218   0.534  1.00  0.00     0.040 A 
HETATM   16  C   UNL     1      38.210 -12.310   1.793  1.00  0.00     0.041 A 
ENDROOT
BRANCH   3  17
HETATM   17  C   UNL     1      41.969 -14.391   3.906  1.00  0.00     0.276 C 
HETATM   18  N   UNL     1      41.516 -15.368   4.774  1.00  0.00    -0.351 N 
HETATM   19  H   UNL     1      40.780 -15.981   4.454  1.00  0.00     0.163 HD
HETATM   20  O   UNL     1      43.062 -13.853   4.076  1.00  0.00    -0.265 OA
BRANCH  18  21
HETATM   21  C   UNL     1      42.399 -15.860   5.806  1.00  0.00     0.161 C 
BRANCH  21  22
HETATM   22  C   UNL     1      43.119 -17.117   5.395  1.00  0.00    -0.040 A 
HETATM   23  C   UNL     1      42.698 -17.846   4.278  1.00  0.00     0.011 A 
HETATM   24  C   UNL     1      43.418 -18.965   3.851  1.00  0.00     0.037 A 
HETATM   25  C   UNL     1      44.574 -19.368   4.521  1.00  0.00     0.069 A 
HETATM   26  C   UNL     1      44.982 -18.666   5.655  1.00  0.00     0.037 A 
HETATM   27  C   UNL     1      44.265 -17.542   6.083  1.00  0.00     0.011 A 
BRANCH  25  28
HETATM   28  O   UNL     1      45.193 -20.462   3.988  1.00  0.00    -0.347 OA
BRANCH  28  29
HETATM   29  C   UNL     1      44.378 -21.548   3.532  1.00  0.00     0.120 C 
HETATM   30  C   UNL     1      44.721 -21.854   2.079  1.00  0.00     0.040 C 
HETATM   31  C   UNL     1      44.701 -22.750   4.417  1.00  0.00     0.040 C 
ENDBRANCH  28  29
ENDBRANCH  25  28
ENDBRANCH  21  22
ENDBRANCH  18  21
ENDBRANCH   3  17
TORSDOF 5
ENDMDL
MODEL 8
REMARK VINA RESULT:      -7.8      5.426      7.242
REMARK  5 active torsions:
REMARK  status: ('A' for Active; 'I' for Inactive)
REMARK    1  A    between atoms: C_3  and  C_4 
REMARK       I    between atoms: C_4  and  N_5 
REMARK    2  A    between atoms: N_5  and  C_6 
REMARK    3  A    between atoms: C_6  and  C_7 
REMARK    4  A    between atoms: C_10  and  O_11 
REMARK    5  A    between atoms: O_11  and  C_12 
ROOT
HETATM    1  C   UNL     1      39.895 -12.942   0.691  1.00  0.00     0.052 C 
HETATM    2  C   UNL     1      40.005 -13.437   2.090  1.00  0.00    -0.009 A 
HETATM    3  C   UNL     1      40.400 -14.711   2.499  1.00  0.00     0.150 A 
HETATM    4  O   UNL     1      40.283 -14.811   3.855  1.00  0.00    -0.304 OA
HETATM    5  C   UNL     1      39.858 -13.621   4.332  1.00  0.00     0.088 A 
HETATM    6  C   UNL     1      39.674 -12.709   3.296  1.00  0.00     0.020 A 
HETATM    7  C   UNL     1      39.233 -11.410   3.663  1.00  0.00     0.011 A 
HETATM    8  C   UNL     1      39.010 -11.118   5.023  1.00  0.00     0.081 A 
HETATM    9  O   UNL     1      38.572  -9.900   5.469  1.00  0.00    -0.336 OA
HETATM   10  C   UNL     1      38.634  -8.780   4.564  1.00  0.00     0.078 C 
HETATM   11  C   UNL     1      39.854  -7.940   4.962  1.00  0.00     0.051 C 
HETATM   12  C   UNL     1      37.352  -7.974   4.814  1.00  0.00     0.051 C 
HETATM   13  C   UNL     1      38.721  -9.144   3.100  1.00  0.00     0.012 C 
HETATM   14  C   UNL     1      38.999 -10.378   2.666  1.00  0.00     0.014 C 
HETATM   15  C   UNL     1      39.197 -12.082   6.011  1.00  0.00     0.040 A 
HETATM   16  C   UNL     1      39.635 -13.363   5.682  1.00  0.00     0.041 A 
ENDROOT
BRANCH   3  17
HETATM   17  C   UNL     1      40.869 -15.905   1.816  1.00  0.00     0.276 C 
HETATM   18  N   UNL     1      42.185 -15.879   1.393  1.00  0.00    -0.351 N 
HETATM   19  H   UNL     1      42.798 -15.181   1.791  1.00  0.00     0.163 HD
HETATM   20  O   UNL     1      40.173 -16.905   1.655  1.00  0.00    -0.265 OA
BRANCH  18  21
HETATM   21  C   UNL     1      42.786 -17.090   0.885  1.00  0.00     0.161 C 
BRANCH  21  22
HETATM   22  C   UNL     1      43.415 -17.919   1.973  1.00  0.00    -0.040 A 
HETATM   23  C   UNL     1      43.534 -17.416   3.273  1.00  0.00     0.011 A 
HETATM   24  C   UNL     1      44.042 -18.218   4.299  1.00  0.00     0.037 A 
HETATM   25  C   UNL     1      44.428 -19.536   4.050  1.00  0.00     0.069 A 
HETATM   26  C   UNL     1      44.344 -20.034   2.750  1.00  0.00     0.037 A 
HETATM   27  C   UNL     1      43.832 -19.234   1.721  1.00  0.00     0.011 A 
BRANCH  25  28
HETATM   28  O   UNL     1      44.886 -20.215   5.142  1.00  0.00    -0.347 OA
BRANCH  28  29
HETATM   29  C   UNL     1      44.241 -21.443   5.496  1.00  0.00     0.120 C 
HETATM   30  C   UNL     1      45.231 -22.592   5.336  1.00  0.00     0.040 C 
HETATM   31  C   UNL     1      43.810 -21.317   6.956  1.00  0.00     0.040 C 
ENDBRANCH  28  29
ENDBRANCH  25  28
ENDBRANCH  21  22
ENDBRANCH  18  21
ENDBRANCH   3  17
TORSDOF 5
ENDMDL
MODEL 9
REMARK VINA RESULT:      -7.7      6.501     10.006
REMARK  5 active torsions:
REMARK  status: ('A' for Active; 'I' for Inactive)
REMARK    1  A    between atoms: C_3  and  C_4 
REMARK       I    between atoms: C_4  and  N_5 
REMARK    2  A    between atoms: N_5  and  C_6 
REMARK    3  A    between atoms: C_6  and  C_7 
REMARK    4  A    between atoms: C_10  and  O_11 
REMARK    5  A    between atoms: O_11  and  C_12 
ROOT
HETATM    1  C   UNL     1      40.325 -15.119   3.356  1.00  0.00     0.052 C 
HETATM    2  C   UNL     1      41.212 -15.817   2.388  1.00  0.00    -0.009 A 
HETATM    3  C   UNL     1      41.253 -15.632   1.006  1.00  0.00     0.150 A 
HETATM    4  O   UNL     1      42.130 -16.521   0.453  1.00  0.00    -0.304 OA
HETATM    5  C   UNL     1      42.680 -17.248   1.450  1.00  0.00     0.088 A 
HETATM    6  C   UNL     1      42.170 -16.860   2.686  1.00  0.00     0.020 A 
HETATM    7  C   UNL     1      42.673 -17.544   3.825  1.00  0.00     0.011 A 
HETATM    8  C   UNL     1      43.639 -18.554   3.648  1.00  0.00     0.081 A 
HETATM    9  O   UNL     1      44.171 -19.275   4.683  1.00  0.00    -0.336 OA
HETATM   10  C   UNL     1      43.977 -18.787   6.026  1.00  0.00     0.078 C 
HETATM   11  C   UNL     1      45.286 -18.119   6.461  1.00  0.00     0.051 C 
HETATM   12  C   UNL     1      43.723 -20.031   6.887  1.00  0.00     0.051 C 
HETATM   13  C   UNL     1      42.829 -17.818   6.194  1.00  0.00     0.012 C 
HETATM   14  C   UNL     1      42.208 -17.231   5.165  1.00  0.00     0.014 C 
HETATM   15  C   UNL     1      44.098 -18.906   2.381  1.00  0.00     0.040 A 
HETATM   16  C   UNL     1      43.627 -18.249   1.246  1.00  0.00     0.041 A 
ENDROOT
BRANCH   3  17
HETATM   17  C   UNL     1      40.577 -14.749   0.072  1.00  0.00     0.276 C 
HETATM   18  N   UNL     1      39.205 -14.656   0.215  1.00  0.00    -0.351 N 
HETATM   19  H   UNL     1      38.796 -14.980   1.080  1.00  0.00     0.163 HD
HETATM   20  O   UNL     1      41.171 -14.077  -0.770  1.00  0.00    -0.265 OA
BRANCH  18  21
HETATM   21  C   UNL     1      38.483 -13.657  -0.538  1.00  0.00     0.161 C 
BRANCH  21  22
HETATM   22  C   UNL     1      38.171 -12.434   0.283  1.00  0.00    -0.040 A 
HETATM   23  C   UNL     1      38.414 -12.420   1.661  1.00  0.00     0.011 A 
HETATM   24  C   UNL     1      38.201 -11.257   2.406  1.00  0.00     0.037 A 
HETATM   25  C   UNL     1      37.755 -10.087   1.790  1.00  0.00     0.069 A 
HETATM   26  C   UNL     1      37.479 -10.101   0.423  1.00  0.00     0.037 A 
HETATM   27  C   UNL     1      37.695 -11.264  -0.327  1.00  0.00     0.011 A 
BRANCH  25  28
HETATM   28  O   UNL     1      37.609  -9.018   2.627  1.00  0.00    -0.347 OA
BRANCH  28  29
HETATM   29  C   UNL     1      37.128  -9.257   3.954  1.00  0.00     0.120 C 
HETATM   30  C   UNL     1      38.078  -8.608   4.955  1.00  0.00     0.040 C 
HETATM   31  C   UNL     1      35.743  -8.619   4.049  1.00  0.00     0.040 C 
ENDBRANCH  28  29
ENDBRANCH  25  28
ENDBRANCH  21  22
ENDBRANCH  18  21
ENDBRANCH   3  17
TORSDOF 5
ENDMDL
MODEL 10
REMARK VINA RESULT:      -7.7      2.160     10.546
REMARK  5 active torsions:
REMARK  status: ('A' for Active; 'I' for Inactive)
REMARK    1  A    between atoms: C_3  and  C_4 
REMARK       I    between atoms: C_4  and  N_5 
REMARK    2  A    between atoms: N_5  and  C_6 
REMARK    3  A    between atoms: C_6  and  C_7 
REMARK    4  A    between atoms: C_10  and  O_11 
REMARK    5  A    between atoms: O_11  and  C_12 
ROOT
HETATM    1  C   UNL     1      42.077 -16.660   6.979  1.00  0.00     0.052 C 
HETATM    2  C   UNL     1      41.944 -16.539   5.502  1.00  0.00    -0.009 A 
HETATM    3  C   UNL     1      41.305 -15.517   4.800  1.00  0.00     0.150 A 
HETATM    4  O   UNL     1      41.313 -15.807   3.466  1.00  0.00    -0.304 OA
HETATM    5  C   UNL     1      41.973 -16.972   3.290  1.00  0.00     0.088 A 
HETATM    6  C   UNL     1      42.409 -17.484   4.509  1.00  0.00     0.020 A 
HETATM    7  C   UNL     1      43.127 -18.708   4.464  1.00  0.00     0.011 A 
HETATM    8  C   UNL     1      43.356 -19.326   3.220  1.00  0.00     0.081 A 
HETATM    9  O   UNL     1      44.025 -20.512   3.080  1.00  0.00    -0.336 OA
HETATM   10  C   UNL     1      44.794 -20.998   4.199  1.00  0.00     0.078 C 
HETATM   11  C   UNL     1      46.268 -20.693   3.906  1.00  0.00     0.051 C 
HETATM   12  C   UNL     1      44.578 -22.516   4.223  1.00  0.00     0.051 C 
HETATM   13  C   UNL     1      44.410 -20.415   5.540  1.00  0.00     0.012 C 
HETATM   14  C   UNL     1      43.624 -19.341   5.675  1.00  0.00     0.014 C 
HETATM   15  C   UNL     1      42.878 -18.770   2.035  1.00  0.00     0.040 A 
HETATM   16  C   UNL     1      42.176 -17.567   2.047  1.00  0.00     0.041 A 
ENDROOT
BRANCH   3  17
HETATM   17  C   UNL     1      40.647 -14.277   5.173  1.00  0.00     0.276 C 
HETATM   18  N   UNL     1      41.472 -13.176   5.317  1.00  0.00    -0.351 N 
HETATM   19  H   UNL     1      42.399 -13.223   4.918  1.00  0.00     0.163 HD
HETATM   20  O   UNL     1      39.429 -14.176   5.310  1.00  0.00    -0.265 OA
BRANCH  18  21
HETATM   21  C   UNL     1      40.880 -11.870   5.491  1.00  0.00     0.161 C 
BRANCH  21  22
HETATM   22  C   UNL     1      40.859 -11.436   6.932  1.00  0.00    -0.040 A 
HETATM   23  C   UNL     1      42.021 -10.960   7.550  1.00  0.00     0.011 A 
HETATM   24  C   UNL     1      41.979 -10.481   8.862  1.00  0.00     0.037 A 
HETATM   25  C   UNL     1      40.779 -10.457   9.575  1.00  0.00     0.069 A 
HETATM   26  C   UNL     1      39.624 -10.960   8.978  1.00  0.00     0.037 A 
HETATM   27  C   UNL     1      39.662 -11.438   7.662  1.00  0.00     0.011 A 
BRANCH  25  28
HETATM   28  O   UNL     1      40.873  -9.944  10.838  1.00  0.00    -0.347 OA
BRANCH  28  29
HETATM   29  C   UNL     1      39.924 -10.379  11.818  1.00  0.00     0.120 C 
HETATM   30  C   UNL     1      40.567 -11.449  12.694  1.00  0.00     0.040 C 
HETATM   31  C   UNL     1      39.558  -9.157  12.658  1.00  0.00     0.040 C 
ENDBRANCH  28  29
ENDBRANCH  25  28
ENDBRANCH  21  22
ENDBRANCH  18  21
ENDBRANCH   3  17
TORSDOF 5
ENDMDL
