MODEL 1
REMARK VINA RESULT:      -8.2      0.000      0.000
REMARK  9 active torsions:
REMARK  status: ('A' for Active; 'I' for Inactive)
REMARK    1  A    between atoms: C_6  and  C_7 
REMARK       I    between atoms: C_7  and  N_8 
REMARK    2  A    between atoms: N_8  and  C_9 
REMARK    3  A    between atoms: C_9  and  C_10 
REMARK    4  A    between atoms: N_15  and  C_17 
REMARK    5  A    between atoms: C_17  and  C_18 
REMARK    6  A    between atoms: C_21  and  C_22 
REMARK    7  A    between atoms: C_22  and  C_23 
REMARK    8  A    between atoms: C_23  and  C_24 
REMARK    9  A    between atoms: C_24  and  O_25 
ROOT
HETATM    1  C   UNL     1      41.510 -16.472   5.738  1.00  0.00     0.140 C 
HETATM    2  O   UNL     1      41.311 -16.638   4.319  1.00  0.00    -0.373 OA
HETATM    3  C   UNL     1      41.841 -15.497   3.616  1.00  0.00     0.064 C 
HETATM    4  C   UNL     1      40.674 -14.869   2.845  1.00  0.00     0.066 C 
HETATM    5  C   UNL     1      40.117 -15.841   1.812  1.00  0.00     0.238 C 
HETATM    6  N   UNL     1      41.198 -16.309   0.866  1.00  0.00    -0.067 N 
HETATM    7  H   UNL     1      40.766 -17.070   0.329  1.00  0.00     0.280 HD
HETATM    8  C   UNL     1      42.344 -16.949   1.617  1.00  0.00     0.238 C 
HETATM    9  C   UNL     1      42.918 -15.977   2.638  1.00  0.00     0.066 C 
HETATM   10  C   UNL     1      42.414 -14.555   4.677  1.00  0.00     0.041 C 
HETATM   11  C   UNL     1      41.693 -14.977   5.937  1.00  0.00     0.036 C 
ENDROOT
BRANCH   1  12
HETATM   12  C   UNL     1      42.725 -17.298   6.206  1.00  0.00     0.155 C 
BRANCH  12  13
HETATM   13  N   UNL     1      42.959 -18.454   5.357  1.00  0.00    -0.353 N 
HETATM   14  C   UNL     1      44.217 -18.958   5.110  1.00  0.00     0.270 C 
HETATM   15  O   UNL     1      45.224 -18.492   5.639  1.00  0.00    -0.266 OA
HETATM   16  H   UNL     1      42.162 -18.890   4.915  1.00  0.00     0.162 HD
BRANCH  14  17
HETATM   17  C   UNL     1      44.258 -20.065   4.183  1.00  0.00     0.122 A 
HETATM   18  N   UNL     1      44.523 -21.368   4.541  1.00  0.00    -0.269 N 
HETATM   19  N   UNL     1      44.566 -22.220   3.501  1.00  0.00    -0.177 NA
HETATM   20  C   UNL     1      44.730 -21.893   5.871  1.00  0.00     0.180 C 
HETATM   21  C   UNL     1      44.275 -21.464   2.440  1.00  0.00     0.053 A 
HETATM   22  C   UNL     1      44.206 -22.057   1.083  1.00  0.00     0.072 C 
HETATM   23  C   UNL     1      44.077 -20.116   2.809  1.00  0.00     0.065 A 
ENDBRANCH  14  17
ENDBRANCH  12  13
ENDBRANCH   1  12
BRANCH   6  24
HETATM   24  C   UNL     1      41.646 -15.308  -0.175  1.00  0.00     0.273 C 
BRANCH  24  25
HETATM   25  C   UNL     1      40.558 -14.928  -1.144  1.00  0.00    -0.033 A 
HETATM   26  C   UNL     1      39.565 -14.009  -0.768  1.00  0.00     0.010 A 
HETATM   27  C   UNL     1      38.520 -13.700  -1.641  1.00  0.00     0.021 A 
HETATM   28  C   UNL     1      38.460 -14.301  -2.898  1.00  0.00     0.017 A 
HETATM   29  C   UNL     1      39.452 -15.202  -3.288  1.00  0.00     0.021 A 
HETATM   30  C   UNL     1      40.498 -15.513  -2.417  1.00  0.00     0.010 A 
BRANCH  28  31
HETATM   31  C   UNL     1      37.378 -14.006  -3.780  1.00  0.00    -0.064 C 
BRANCH  31  32
HETATM   32  C   UNL     1      36.369 -13.745  -4.565  1.00  0.00    -0.064 C 
BRANCH  32  33
HETATM   33  C   UNL     1      35.194 -13.441  -5.480  1.00  0.00     0.114 C 
HETATM   34  C   UNL     1      34.002 -12.955  -4.661  1.00  0.00     0.060 C 
HETATM   35  C   UNL     1      35.602 -12.410  -6.527  1.00  0.00     0.060 C 
BRANCH  33  36
HETATM   36  O   UNL     1      34.832 -14.640  -6.157  1.00  0.00    -0.378 OA
HETATM   37  H   UNL     1      34.188 -14.400  -6.843  1.00  0.00     0.211 HD
ENDBRANCH  33  36
ENDBRANCH  32  33
ENDBRANCH  31  32
ENDBRANCH  28  31
ENDBRANCH  24  25
ENDBRANCH   6  24
TORSDOF 9
ENDMDL
MODEL 2
REMARK VINA RESULT:      -7.7      4.816     10.042
REMARK  9 active torsions:
REMARK  status: ('A' for Active; 'I' for Inactive)
REMARK    1  A    between atoms: C_6  and  C_7 
REMARK       I    between atoms: C_7  and  N_8 
REMARK    2  A    between atoms: N_8  and  C_9 
REMARK    3  A    between atoms: C_9  and  C_10 
REMARK    4  A    between atoms: N_15  and  C_17 
REMARK    5  A    between atoms: C_17  and  C_18 
REMARK    6  A    between atoms: C_21  and  C_22 
REMARK    7  A    between atoms: C_22  and  C_23 
REMARK    8  A    between atoms: C_23  and  C_24 
REMARK    9  A    between atoms: C_24  and  O_25 
ROOT
HETATM    1  C   UNL     1      41.616 -15.432   0.588  1.00  0.00     0.140 C 
HETATM    2  O   UNL     1      41.695 -14.767   1.866  1.00  0.00    -0.373 OA
HETATM    3  C   UNL     1      40.419 -14.182   2.191  1.00  0.00     0.064 C 
HETATM    4  C   UNL     1      40.649 -12.674   2.349  1.00  0.00     0.066 C 
HETATM    5  C   UNL     1      41.607 -12.386   3.499  1.00  0.00     0.238 C 
HETATM    6  N   UNL     1      41.105 -12.992   4.789  1.00  0.00    -0.067 N 
HETATM    7  H   UNL     1      41.885 -12.888   5.449  1.00  0.00     0.280 HD
HETATM    8  C   UNL     1      40.895 -14.483   4.649  1.00  0.00     0.238 C 
HETATM    9  C   UNL     1      39.926 -14.778   3.513  1.00  0.00     0.066 C 
HETATM   10  C   UNL     1      39.478 -14.510   1.031  1.00  0.00     0.041 C 
HETATM   11  C   UNL     1      40.426 -14.797  -0.111  1.00  0.00     0.036 C 
ENDROOT
BRANCH   1  12
HETATM   12  C   UNL     1      41.460 -16.952   0.787  1.00  0.00     0.155 C 
BRANCH  12  13
HETATM   13  N   UNL     1      42.086 -17.409   2.017  1.00  0.00    -0.353 N 
HETATM   14  C   UNL     1      43.415 -17.764   2.093  1.00  0.00     0.270 C 
HETATM   15  O   UNL     1      44.175 -17.664   1.131  1.00  0.00    -0.266 OA
HETATM   16  H   UNL     1      41.511 -17.488   2.844  1.00  0.00     0.162 HD
BRANCH  14  17
HETATM   17  C   UNL     1      43.839 -18.263   3.380  1.00  0.00     0.122 A 
HETATM   18  N   UNL     1      44.225 -19.562   3.621  1.00  0.00    -0.269 N 
HETATM   19  N   UNL     1      44.523 -19.813   4.909  1.00  0.00    -0.177 NA
HETATM   20  C   UNL     1      44.357 -20.635   2.662  1.00  0.00     0.180 C 
HETATM   21  C   UNL     1      44.374 -18.635   5.518  1.00  0.00     0.053 A 
HETATM   22  C   UNL     1      44.633 -18.495   6.972  1.00  0.00     0.072 C 
HETATM   23  C   UNL     1      43.947 -17.638   4.613  1.00  0.00     0.065 A 
ENDBRANCH  14  17
ENDBRANCH  12  13
ENDBRANCH   1  12
BRANCH   6  24
HETATM   24  C   UNL     1      39.945 -12.280   5.448  1.00  0.00     0.273 C 
BRANCH  24  25
HETATM   25  C   UNL     1      40.312 -11.620   6.750  1.00  0.00    -0.033 A 
HETATM   26  C   UNL     1      41.600 -11.094   6.939  1.00  0.00     0.010 A 
HETATM   27  C   UNL     1      41.964 -10.535   8.166  1.00  0.00     0.021 A 
HETATM   28  C   UNL     1      41.044 -10.493   9.213  1.00  0.00     0.017 A 
HETATM   29  C   UNL     1      39.755 -10.996   9.030  1.00  0.00     0.021 A 
HETATM   30  C   UNL     1      39.388 -11.556   7.804  1.00  0.00     0.010 A 
BRANCH  28  31
HETATM   31  C   UNL     1      41.423  -9.947  10.476  1.00  0.00    -0.064 C 
BRANCH  31  32
HETATM   32  C   UNL     1      41.765  -9.420  11.619  1.00  0.00    -0.064 C 
BRANCH  32  33
HETATM   33  C   UNL     1      42.163  -8.806  12.951  1.00  0.00     0.114 C 
HETATM   34  C   UNL     1      43.430  -9.471  13.479  1.00  0.00     0.060 C 
HETATM   35  C   UNL     1      42.352  -7.302  12.796  1.00  0.00     0.060 C 
BRANCH  33  36
HETATM   36  O   UNL     1      41.104  -9.026  13.878  1.00  0.00    -0.378 OA
HETATM   37  H   UNL     1      41.347  -8.576  14.705  1.00  0.00     0.211 HD
ENDBRANCH  33  36
ENDBRANCH  32  33
ENDBRANCH  31  32
ENDBRANCH  28  31
ENDBRANCH  24  25
ENDBRANCH   6  24
TORSDOF 9
ENDMDL
MODEL 3
REMARK VINA RESULT:      -7.5      4.106      6.662
REMARK  9 active torsions:
REMARK  status: ('A' for Active; 'I' for Inactive)
REMARK    1  A    between atoms: C_6  and  C_7 
REMARK       I    between atoms: C_7  and  N_8 
REMARK    2  A    between atoms: N_8  and  C_9 
REMARK    3  A    between atoms: C_9  and  C_10 
REMARK    4  A    between atoms: N_15  and  C_17 
REMARK    5  A    between atoms: C_17  and  C_18 
REMARK    6  A    between atoms: C_21  and  C_22 
REMARK    7  A    between atoms: C_22  and  C_23 
REMARK    8  A    between atoms: C_23  and  C_24 
REMARK    9  A    between atoms: C_24  and  O_25 
ROOT
HETATM    1  C   UNL     1      44.497 -15.946   6.812  1.00  0.00     0.140 C 
HETATM    2  O   UNL     1      44.168 -16.353   5.467  1.00  0.00    -0.373 OA
HETATM    3  C   UNL     1      42.738 -16.351   5.292  1.00  0.00     0.064 C 
HETATM    4  C   UNL     1      42.335 -17.782   4.915  1.00  0.00     0.066 C 
HETATM    5  C   UNL     1      42.971 -18.197   3.594  1.00  0.00     0.238 C 
HETATM    6  N   UNL     1      42.614 -17.229   2.490  1.00  0.00    -0.067 N 
HETATM    7  H   UNL     1      43.213 -17.497   1.701  1.00  0.00     0.280 HD
HETATM    8  C   UNL     1      43.027 -15.817   2.845  1.00  0.00     0.238 C 
HETATM    9  C   UNL     1      42.382 -15.389   4.155  1.00  0.00     0.066 C 
HETATM   10  C   UNL     1      42.134 -15.908   6.626  1.00  0.00     0.041 C 
HETATM   11  C   UNL     1      43.235 -16.203   7.618  1.00  0.00     0.036 C 
ENDROOT
BRANCH   1  12
HETATM   12  C   UNL     1      44.934 -14.468   6.829  1.00  0.00     0.155 C 
BRANCH  12  13
HETATM   13  N   UNL     1      44.286 -13.719   7.892  1.00  0.00    -0.353 N 
HETATM   14  C   UNL     1      44.911 -12.701   8.579  1.00  0.00     0.270 C 
HETATM   15  O   UNL     1      46.046 -12.322   8.296  1.00  0.00    -0.266 OA
HETATM   16  H   UNL     1      43.343 -13.975   8.149  1.00  0.00     0.162 HD
BRANCH  14  17
HETATM   17  C   UNL     1      44.134 -12.123   9.651  1.00  0.00     0.122 A 
HETATM   18  N   UNL     1      43.084 -11.252   9.466  1.00  0.00    -0.269 N 
HETATM   19  N   UNL     1      42.546 -10.797  10.612  1.00  0.00    -0.177 NA
HETATM   20  C   UNL     1      42.512 -10.813   8.214  1.00  0.00     0.180 C 
HETATM   21  C   UNL     1      43.232 -11.423  11.572  1.00  0.00     0.053 A 
HETATM   22  C   UNL     1      42.915 -11.193  13.002  1.00  0.00     0.072 C 
HETATM   23  C   UNL     1      44.233 -12.257  11.027  1.00  0.00     0.065 A 
ENDBRANCH  14  17
ENDBRANCH  12  13
ENDBRANCH   1  12
BRANCH   6  24
HETATM   24  C   UNL     1      41.203 -17.325   1.954  1.00  0.00     0.273 C 
BRANCH  24  25
HETATM   25  C   UNL     1      40.864 -16.239   0.970  1.00  0.00    -0.033 A 
HETATM   26  C   UNL     1      39.949 -15.231   1.315  1.00  0.00     0.010 A 
HETATM   27  C   UNL     1      39.586 -14.255   0.383  1.00  0.00     0.021 A 
HETATM   28  C   UNL     1      40.135 -14.275  -0.897  1.00  0.00     0.017 A 
HETATM   29  C   UNL     1      41.059 -15.261  -1.245  1.00  0.00     0.021 A 
HETATM   30  C   UNL     1      41.425 -16.239  -0.317  1.00  0.00     0.010 A 
BRANCH  28  31
HETATM   31  C   UNL     1      39.743 -13.295  -1.859  1.00  0.00    -0.064 C 
BRANCH  31  32
HETATM   32  C   UNL     1      39.413 -12.387  -2.734  1.00  0.00    -0.064 C 
BRANCH  32  33
HETATM   33  C   UNL     1      39.028 -11.329  -3.755  1.00  0.00     0.114 C 
HETATM   34  C   UNL     1      38.481 -10.092  -3.051  1.00  0.00     0.060 C 
HETATM   35  C   UNL     1      40.230 -10.982  -4.626  1.00  0.00     0.060 C 
BRANCH  33  36
HETATM   36  O   UNL     1      38.013 -11.869  -4.597  1.00  0.00    -0.378 OA
HETATM   37  H   UNL     1      37.204 -11.354  -4.440  1.00  0.00     0.211 HD
ENDBRANCH  33  36
ENDBRANCH  32  33
ENDBRANCH  31  32
ENDBRANCH  28  31
ENDBRANCH  24  25
ENDBRANCH   6  24
TORSDOF 9
ENDMDL
MODEL 4
REMARK VINA RESULT:      -7.4      6.500     10.279
REMARK  9 active torsions:
REMARK  status: ('A' for Active; 'I' for Inactive)
REMARK    1  A    between atoms: C_6  and  C_7 
REMARK       I    between atoms: C_7  and  N_8 
REMARK    2  A    between atoms: N_8  and  C_9 
REMARK    3  A    between atoms: C_9  and  C_10 
REMARK    4  A    between atoms: N_15  and  C_17 
REMARK    5  A    between atoms: C_17  and  C_18 
REMARK    6  A    between atoms: C_21  and  C_22 
REMARK    7  A    between atoms: C_22  and  C_23 
REMARK    8  A    between atoms: C_23  and  C_24 
REMARK    9  A    between atoms: C_24  and  O_25 
ROOT
HETATM    1  C   UNL     1      38.702  -8.936   7.914  1.00  0.00     0.140 C 
HETATM    2  O   UNL     1      39.253 -10.167   7.403  1.00  0.00    -0.373 OA
HETATM    3  C   UNL     1      39.836  -9.940   6.105  1.00  0.00     0.064 C 
HETATM    4  C   UNL     1      39.098 -10.854   5.120  1.00  0.00     0.066 C 
HETATM    5  C   UNL     1      39.305 -12.321   5.478  1.00  0.00     0.238 C 
HETATM    6  N   UNL     1      40.776 -12.665   5.534  1.00  0.00    -0.067 N 
HETATM    7  H   UNL     1      40.809 -13.609   5.939  1.00  0.00     0.280 HD
HETATM    8  C   UNL     1      41.508 -11.781   6.520  1.00  0.00     0.238 C 
HETATM    9  C   UNL     1      41.320 -10.315   6.158  1.00  0.00     0.066 C 
HETATM   10  C   UNL     1      39.634  -8.457   5.788  1.00  0.00     0.041 C 
HETATM   11  C   UNL     1      38.484  -8.066   6.688  1.00  0.00     0.036 C 
ENDROOT
BRANCH   1  12
HETATM   12  C   UNL     1      39.665  -8.306   8.940  1.00  0.00     0.155 C 
BRANCH  12  13
HETATM   13  N   UNL     1      40.623  -9.270   9.453  1.00  0.00    -0.353 N 
HETATM   14  C   UNL     1      41.438  -9.013  10.534  1.00  0.00     0.270 C 
HETATM   15  O   UNL     1      41.366  -7.964  11.172  1.00  0.00    -0.266 OA
HETATM   16  H   UNL     1      40.706 -10.158   8.979  1.00  0.00     0.162 HD
BRANCH  14  17
HETATM   17  C   UNL     1      42.377 -10.063  10.852  1.00  0.00     0.122 A 
HETATM   18  N   UNL     1      42.200 -10.986  11.858  1.00  0.00    -0.269 N 
HETATM   19  N   UNL     1      43.233 -11.834  12.008  1.00  0.00    -0.177 NA
HETATM   20  C   UNL     1      41.050 -11.140  12.720  1.00  0.00     0.180 C 
HETATM   21  C   UNL     1      44.089 -11.487  11.044  1.00  0.00     0.053 A 
HETATM   22  C   UNL     1      45.369 -12.216  10.869  1.00  0.00     0.072 C 
HETATM   23  C   UNL     1      43.606 -10.390  10.298  1.00  0.00     0.065 A 
ENDBRANCH  14  17
ENDBRANCH  12  13
ENDBRANCH   1  12
BRANCH   6  24
HETATM   24  C   UNL     1      41.478 -12.790   4.202  1.00  0.00     0.273 C 
BRANCH  24  25
HETATM   25  C   UNL     1      41.939 -14.191   3.900  1.00  0.00    -0.033 A 
HETATM   26  C   UNL     1      41.295 -15.291   4.490  1.00  0.00     0.010 A 
HETATM   27  C   UNL     1      41.758 -16.589   4.261  1.00  0.00     0.021 A 
HETATM   28  C   UNL     1      42.862 -16.800   3.438  1.00  0.00     0.017 A 
HETATM   29  C   UNL     1      43.498 -15.715   2.831  1.00  0.00     0.021 A 
HETATM   30  C   UNL     1      43.039 -14.416   3.059  1.00  0.00     0.010 A 
BRANCH  28  31
HETATM   31  C   UNL     1      43.353 -18.123   3.224  1.00  0.00    -0.064 C 
BRANCH  31  32
HETATM   32  C   UNL     1      43.825 -19.326   3.047  1.00  0.00    -0.064 C 
BRANCH  32  33
HETATM   33  C   UNL     1      44.375 -20.727   2.839  1.00  0.00     0.114 C 
HETATM   34  C   UNL     1      44.578 -21.418   4.185  1.00  0.00     0.060 C 
HETATM   35  C   UNL     1      43.438 -21.529   1.943  1.00  0.00     0.060 C 
BRANCH  33  36
HETATM   36  O   UNL     1      45.633 -20.620   2.181  1.00  0.00    -0.378 OA
HETATM   37  H   UNL     1      45.849 -21.499   1.827  1.00  0.00     0.211 HD
ENDBRANCH  33  36
ENDBRANCH  32  33
ENDBRANCH  31  32
ENDBRANCH  28  31
ENDBRANCH  24  25
ENDBRANCH   6  24
TORSDOF 9
ENDMDL
MODEL 5
REMARK VINA RESULT:      -7.4      5.459     10.358
REMARK  9 active torsions:
REMARK  status: ('A' for Active; 'I' for Inactive)
REMARK    1  A    between atoms: C_6  and  C_7 
REMARK       I    between atoms: C_7  and  N_8 
REMARK    2  A    between atoms: N_8  and  C_9 
REMARK    3  A    between atoms: C_9  and  C_10 
REMARK    4  A    between atoms: N_15  and  C_17 
REMARK    5  A    between atoms: C_17  and  C_18 
REMARK    6  A    between atoms: C_21  and  C_22 
REMARK    7  A    between atoms: C_22  and  C_23 
REMARK    8  A    between atoms: C_23  and  C_24 
REMARK    9  A    between atoms: C_24  and  O_25 
ROOT
HETATM    1  C   UNL     1      42.254 -14.489   2.426  1.00  0.00     0.140 C 
HETATM    2  O   UNL     1      41.886 -13.238   3.043  1.00  0.00    -0.373 OA
HETATM    3  C   UNL     1      40.780 -13.444   3.943  1.00  0.00     0.064 C 
HETATM    4  C   UNL     1      39.631 -12.560   3.446  1.00  0.00     0.066 C 
HETATM    5  C   UNL     1      40.014 -11.086   3.500  1.00  0.00     0.238 C 
HETATM    6  N   UNL     1      40.436 -10.685   4.895  1.00  0.00    -0.067 N 
HETATM    7  H   UNL     1      40.826  -9.741   4.790  1.00  0.00     0.280 HD
HETATM    8  C   UNL     1      41.585 -11.539   5.386  1.00  0.00     0.238 C 
HETATM    9  C   UNL     1      41.203 -13.012   5.351  1.00  0.00     0.066 C 
HETATM   10  C   UNL     1      40.439 -14.934   3.883  1.00  0.00     0.041 C 
HETATM   11  C   UNL     1      41.022 -15.369   2.558  1.00  0.00     0.036 C 
ENDROOT
BRANCH   1  12
HETATM   12  C   UNL     1      43.497 -15.081   3.121  1.00  0.00     0.155 C 
BRANCH  12  13
HETATM   13  N   UNL     1      43.652 -16.499   2.846  1.00  0.00    -0.353 N 
HETATM   14  C   UNL     1      43.399 -17.475   3.786  1.00  0.00     0.270 C 
HETATM   15  O   UNL     1      42.971 -17.208   4.907  1.00  0.00    -0.266 OA
HETATM   16  H   UNL     1      43.980 -16.775   1.932  1.00  0.00     0.162 HD
BRANCH  14  17
HETATM   17  C   UNL     1      43.681 -18.824   3.353  1.00  0.00     0.122 A 
HETATM   18  N   UNL     1      44.390 -19.744   4.091  1.00  0.00    -0.269 N 
HETATM   19  N   UNL     1      44.579 -20.918   3.461  1.00  0.00    -0.177 NA
HETATM   20  C   UNL     1      44.914 -19.587   5.429  1.00  0.00     0.180 C 
HETATM   21  C   UNL     1      43.934 -20.780   2.301  1.00  0.00     0.053 A 
HETATM   22  C   UNL     1      43.896 -21.889   1.318  1.00  0.00     0.072 C 
HETATM   23  C   UNL     1      43.360 -19.495   2.183  1.00  0.00     0.065 A 
ENDBRANCH  14  17
ENDBRANCH  12  13
ENDBRANCH   1  12
BRANCH   6  24
HETATM   24  C   UNL     1      39.324 -10.534   5.907  1.00  0.00     0.273 C 
BRANCH  24  25
HETATM   25  C   UNL     1      39.819 -10.252   7.299  1.00  0.00    -0.033 A 
HETATM   26  C   UNL     1      39.523 -11.136   8.350  1.00  0.00     0.010 A 
HETATM   27  C   UNL     1      39.928 -10.847   9.654  1.00  0.00     0.021 A 
HETATM   28  C   UNL     1      40.636  -9.676   9.921  1.00  0.00     0.017 A 
HETATM   29  C   UNL     1      40.952  -8.799   8.882  1.00  0.00     0.021 A 
HETATM   30  C   UNL     1      40.547  -9.085   7.576  1.00  0.00     0.010 A 
BRANCH  28  31
HETATM   31  C   UNL     1      41.027  -9.366  11.259  1.00  0.00    -0.064 C 
BRANCH  31  32
HETATM   32  C   UNL     1      41.409  -9.069  12.469  1.00  0.00    -0.064 C 
BRANCH  32  33
HETATM   33  C   UNL     1      41.854  -8.722  13.881  1.00  0.00     0.114 C 
HETATM   34  C   UNL     1      40.672  -8.200  14.692  1.00  0.00     0.060 C 
HETATM   35  C   UNL     1      42.482  -9.942  14.544  1.00  0.00     0.060 C 
BRANCH  33  36
HETATM   36  O   UNL     1      42.845  -7.703  13.799  1.00  0.00    -0.378 OA
HETATM   37  H   UNL     1      42.681  -7.081  14.528  1.00  0.00     0.211 HD
ENDBRANCH  33  36
ENDBRANCH  32  33
ENDBRANCH  31  32
ENDBRANCH  28  31
ENDBRANCH  24  25
ENDBRANCH   6  24
TORSDOF 9
ENDMDL
MODEL 6
REMARK VINA RESULT:      -7.3      6.267     10.810
REMARK  9 active torsions:
REMARK  status: ('A' for Active; 'I' for Inactive)
REMARK    1  A    between atoms: C_6  and  C_7 
REMARK       I    between atoms: C_7  and  N_8 
REMARK    2  A    between atoms: N_8  and  C_9 
REMARK    3  A    between atoms: C_9  and  C_10 
REMARK    4  A    between atoms: N_15  and  C_17 
REMARK    5  A    between atoms: C_17  and  C_18 
REMARK    6  A    between atoms: C_21  and  C_22 
REMARK    7  A    between atoms: C_22  and  C_23 
REMARK    8  A    between atoms: C_23  and  C_24 
REMARK    9  A    between atoms: C_24  and  O_25 
ROOT
HETATM    1  C   UNL     1      39.330 -10.476   8.474  1.00  0.00     0.140 C 
HETATM    2  O   UNL     1      39.151 -11.267   7.281  1.00  0.00    -0.373 OA
HETATM    3  C   UNL     1      40.330 -11.182   6.457  1.00  0.00     0.064 C 
HETATM    4  C   UNL     1      39.890 -10.596   5.110  1.00  0.00     0.066 C 
HETATM    5  C   UNL     1      38.896 -11.517   4.414  1.00  0.00     0.238 C 
HETATM    6  N   UNL     1      39.470 -12.903   4.236  1.00  0.00    -0.067 N 
HETATM    7  H   UNL     1      38.679 -13.476   3.919  1.00  0.00     0.280 HD
HETATM    8  C   UNL     1      39.888 -13.497   5.563  1.00  0.00     0.238 C 
HETATM    9  C   UNL     1      40.895 -12.591   6.256  1.00  0.00     0.066 C 
HETATM   10  C   UNL     1      41.315 -10.273   7.195  1.00  0.00     0.041 C 
HETATM   11  C   UNL     1      40.423  -9.481   8.124  1.00  0.00     0.036 C 
ENDROOT
BRANCH   1  12
HETATM   12  C   UNL     1      39.696 -11.383   9.665  1.00  0.00     0.155 C 
BRANCH  12  13
HETATM   13  N   UNL     1      40.100 -10.617  10.831  1.00  0.00    -0.353 N 
HETATM   14  C   UNL     1      41.380 -10.649  11.341  1.00  0.00     0.270 C 
HETATM   15  O   UNL     1      42.282 -11.290  10.805  1.00  0.00    -0.266 OA
HETATM   16  H   UNL     1      39.403 -10.054  11.297  1.00  0.00     0.162 HD
BRANCH  14  17
HETATM   17  C   UNL     1      41.574  -9.879  12.548  1.00  0.00     0.122 A 
HETATM   18  N   UNL     1      41.753  -8.514  12.578  1.00  0.00    -0.269 N 
HETATM   19  N   UNL     1      41.973  -8.021  13.810  1.00  0.00    -0.177 NA
HETATM   20  C   UNL     1      41.709  -7.594  11.465  1.00  0.00     0.180 C 
HETATM   21  C   UNL     1      41.889  -9.084  14.613  1.00  0.00     0.053 A 
HETATM   22  C   UNL     1      42.059  -8.942  16.079  1.00  0.00     0.072 C 
HETATM   23  C   UNL     1      41.644 -10.265  13.878  1.00  0.00     0.065 A 
ENDBRANCH  14  17
ENDBRANCH  12  13
ENDBRANCH   1  12
BRANCH   6  24
HETATM   24  C   UNL     1      40.515 -13.054   3.154  1.00  0.00     0.273 C 
BRANCH  24  25
HETATM   25  C   UNL     1      41.173 -14.407   3.146  1.00  0.00    -0.033 A 
HETATM   26  C   UNL     1      42.524 -14.540   3.507  1.00  0.00     0.010 A 
HETATM   27  C   UNL     1      43.155 -15.784   3.442  1.00  0.00     0.021 A 
HETATM   28  C   UNL     1      42.443 -16.906   3.020  1.00  0.00     0.017 A 
HETATM   29  C   UNL     1      41.095 -16.788   2.676  1.00  0.00     0.021 A 
HETATM   30  C   UNL     1      40.461 -15.546   2.740  1.00  0.00     0.010 A 
BRANCH  28  31
HETATM   31  C   UNL     1      43.094 -18.173   2.927  1.00  0.00    -0.064 C 
BRANCH  31  32
HETATM   32  C   UNL     1      43.684 -19.335   2.871  1.00  0.00    -0.064 C 
BRANCH  32  33
HETATM   33  C   UNL     1      44.371 -20.689   2.806  1.00  0.00     0.114 C 
HETATM   34  C   UNL     1      44.540 -21.262   4.210  1.00  0.00     0.060 C 
HETATM   35  C   UNL     1      43.575 -21.635   1.915  1.00  0.00     0.060 C 
BRANCH  33  36
HETATM   36  O   UNL     1      45.657 -20.509   2.222  1.00  0.00    -0.378 OA
HETATM   37  H   UNL     1      46.250 -21.166   2.623  1.00  0.00     0.211 HD
ENDBRANCH  33  36
ENDBRANCH  32  33
ENDBRANCH  31  32
ENDBRANCH  28  31
ENDBRANCH  24  25
ENDBRANCH   6  24
TORSDOF 9
ENDMDL
MODEL 7
REMARK VINA RESULT:      -7.2      4.145     10.379
REMARK  9 active torsions:
REMARK  status: ('A' for Active; 'I' for Inactive)
REMARK    1  A    between atoms: C_6  and  C_7 
REMARK       I    between atoms: C_7  and  N_8 
REMARK    2  A    between atoms: N_8  and  C_9 
REMARK    3  A    between atoms: C_9  and  C_10 
REMARK    4  A    between atoms: N_15  and  C_17 
REMARK    5  A    between atoms: C_17  and  C_18 
REMARK    6  A    between atoms: C_21  and  C_22 
REMARK    7  A    between atoms: C_22  and  C_23 
REMARK    8  A    between atoms: C_23  and  C_24 
REMARK    9  A    between atoms: C_24  and  O_25 
ROOT
HETATM    1  C   UNL     1      40.798 -10.678  -3.204  1.00  0.00     0.140 C 
HETATM    2  O   UNL     1      40.437 -11.857  -2.456  1.00  0.00    -0.373 OA
HETATM    3  C   UNL     1      41.431 -12.883  -2.652  1.00  0.00     0.064 C 
HETATM    4  C   UNL     1      40.711 -14.088  -3.268  1.00  0.00     0.066 C 
HETATM    5  C   UNL     1      39.652 -14.634  -2.318  1.00  0.00     0.238 C 
HETATM    6  N   UNL     1      40.254 -14.993  -0.980  1.00  0.00    -0.067 N 
HETATM    7  H   UNL     1      39.449 -15.188  -0.372  1.00  0.00     0.280 HD
HETATM    8  C   UNL     1      40.949 -13.803  -0.355  1.00  0.00     0.238 C 
HETATM    9  C   UNL     1      42.020 -13.264  -1.291  1.00  0.00     0.066 C 
HETATM   10  C   UNL     1      42.488 -12.294  -3.587  1.00  0.00     0.041 C 
HETATM   11  C   UNL     1      41.750 -11.171  -4.279  1.00  0.00     0.036 C 
ENDROOT
BRANCH   1  12
HETATM   12  C   UNL     1      41.433  -9.629  -2.269  1.00  0.00     0.155 C 
BRANCH  12  13
HETATM   13  N   UNL     1      40.895  -9.701  -0.921  1.00  0.00    -0.353 N 
HETATM   14  C   UNL     1      41.676  -9.963   0.184  1.00  0.00     0.270 C 
HETATM   15  O   UNL     1      42.895 -10.098   0.105  1.00  0.00    -0.266 OA
HETATM   16  H   UNL     1      39.900  -9.575  -0.798  1.00  0.00     0.162 HD
BRANCH  14  17
HETATM   17  C   UNL     1      40.953 -10.069   1.429  1.00  0.00     0.122 A 
HETATM   18  N   UNL     1      40.941  -9.099   2.406  1.00  0.00    -0.269 N 
HETATM   19  N   UNL     1      40.246  -9.441   3.505  1.00  0.00    -0.177 NA
HETATM   20  C   UNL     1      41.559  -7.793   2.359  1.00  0.00     0.180 C 
HETATM   21  C   UNL     1      39.750 -10.648   3.222  1.00  0.00     0.053 A 
HETATM   22  C   UNL     1      38.896 -11.364   4.200  1.00  0.00     0.072 C 
HETATM   23  C   UNL     1      40.162 -11.085   1.944  1.00  0.00     0.065 A 
ENDBRANCH  14  17
ENDBRANCH  12  13
ENDBRANCH   1  12
BRANCH   6  24
HETATM   24  C   UNL     1      41.080 -16.259  -0.943  1.00  0.00     0.273 C 
BRANCH  24  25
HETATM   25  C   UNL     1      41.553 -16.622   0.439  1.00  0.00    -0.033 A 
HETATM   26  C   UNL     1      42.921 -16.820   0.690  1.00  0.00     0.010 A 
HETATM   27  C   UNL     1      43.358 -17.216   1.956  1.00  0.00     0.021 A 
HETATM   28  C   UNL     1      42.436 -17.414   2.982  1.00  0.00     0.017 A 
HETATM   29  C   UNL     1      41.076 -17.203   2.748  1.00  0.00     0.021 A 
HETATM   30  C   UNL     1      40.635 -16.807   1.483  1.00  0.00     0.010 A 
BRANCH  28  31
HETATM   31  C   UNL     1      42.879 -17.846   4.268  1.00  0.00    -0.064 C 
BRANCH  31  32
HETATM   32  C   UNL     1      43.287 -18.211   5.451  1.00  0.00    -0.064 C 
BRANCH  32  33
HETATM   33  C   UNL     1      43.764 -18.637   6.830  1.00  0.00     0.114 C 
HETATM   34  C   UNL     1      43.683 -20.154   6.971  1.00  0.00     0.060 C 
HETATM   35  C   UNL     1      45.183 -18.136   7.070  1.00  0.00     0.060 C 
BRANCH  33  36
HETATM   36  O   UNL     1      42.913 -18.037   7.802  1.00  0.00    -0.378 OA
HETATM   37  H   UNL     1      42.311 -18.728   8.125  1.00  0.00     0.211 HD
ENDBRANCH  33  36
ENDBRANCH  32  33
ENDBRANCH  31  32
ENDBRANCH  28  31
ENDBRANCH  24  25
ENDBRANCH   6  24
TORSDOF 9
ENDMDL
MODEL 8
REMARK VINA RESULT:      -7.2      4.199      9.857
REMARK  9 active torsions:
REMARK  status: ('A' for Active; 'I' for Inactive)
REMARK    1  A    between atoms: C_6  and  C_7 
REMARK       I    between atoms: C_7  and  N_8 
REMARK    2  A    between atoms: N_8  and  C_9 
REMARK    3  A    between atoms: C_9  and  C_10 
REMARK    4  A    between atoms: N_15  and  C_17 
REMARK    5  A    between atoms: C_17  and  C_18 
REMARK    6  A    between atoms: C_21  and  C_22 
REMARK    7  A    between atoms: C_22  and  C_23 
REMARK    8  A    between atoms: C_23  and  C_24 
REMARK    9  A    between atoms: C_24  and  O_25 
ROOT
HETATM    1  C   UNL     1      40.809 -10.255  -1.259  1.00  0.00     0.140 C 
HETATM    2  O   UNL     1      40.419 -11.629  -1.055  1.00  0.00    -0.373 OA
HETATM    3  C   UNL     1      41.567 -12.488  -1.191  1.00  0.00     0.064 C 
HETATM    4  C   UNL     1      41.261 -13.461  -2.336  1.00  0.00     0.066 C 
HETATM    5  C   UNL     1      40.057 -14.334  -2.003  1.00  0.00     0.238 C 
HETATM    6  N   UNL     1      40.267 -15.079  -0.705  1.00  0.00    -0.067 N 
HETATM    7  H   UNL     1      39.353 -15.496  -0.491  1.00  0.00     0.280 HD
HETATM    8  C   UNL     1      40.549 -14.125   0.435  1.00  0.00     0.238 C 
HETATM    9  C   UNL     1      41.761 -13.262   0.117  1.00  0.00     0.066 C 
HETATM   10  C   UNL     1      42.759 -11.581  -1.499  1.00  0.00     0.041 C 
HETATM   11  C   UNL     1      42.109 -10.330  -2.043  1.00  0.00     0.036 C 
ENDROOT
BRANCH   1  12
HETATM   12  C   UNL     1      40.961  -9.537   0.097  1.00  0.00     0.155 C 
BRANCH  12  13
HETATM   13  N   UNL     1      40.444 -10.334   1.197  1.00  0.00    -0.353 N 
HETATM   14  C   UNL     1      40.547  -9.945   2.515  1.00  0.00     0.270 C 
HETATM   15  O   UNL     1      41.037  -8.866   2.842  1.00  0.00    -0.266 OA
HETATM   16  H   UNL     1      40.011 -11.220   0.981  1.00  0.00     0.162 HD
BRANCH  14  17
HETATM   17  C   UNL     1      40.041 -10.901   3.473  1.00  0.00     0.122 A 
HETATM   18  N   UNL     1      38.894 -10.726   4.212  1.00  0.00    -0.269 N 
HETATM   19  N   UNL     1      38.650 -11.722   5.083  1.00  0.00    -0.177 NA
HETATM   20  C   UNL     1      37.951  -9.634   4.133  1.00  0.00     0.180 C 
HETATM   21  C   UNL     1      39.639 -12.594   4.875  1.00  0.00     0.053 A 
HETATM   22  C   UNL     1      39.711 -13.857   5.648  1.00  0.00     0.072 C 
HETATM   23  C   UNL     1      40.533 -12.130   3.886  1.00  0.00     0.065 A 
ENDBRANCH  14  17
ENDBRANCH  12  13
ENDBRANCH   1  12
BRANCH   6  24
HETATM   24  C   UNL     1      41.223 -16.249  -0.760  1.00  0.00     0.273 C 
BRANCH  24  25
HETATM   25  C   UNL     1      41.660 -16.725   0.599  1.00  0.00    -0.033 A 
HETATM   26  C   UNL     1      40.725 -16.858   1.638  1.00  0.00     0.010 A 
HETATM   27  C   UNL     1      41.136 -17.241   2.916  1.00  0.00     0.021 A 
HETATM   28  C   UNL     1      42.483 -17.500   3.167  1.00  0.00     0.017 A 
HETATM   29  C   UNL     1      43.418 -17.389   2.137  1.00  0.00     0.021 A 
HETATM   30  C   UNL     1      43.010 -17.005   0.858  1.00  0.00     0.010 A 
BRANCH  28  31
HETATM   31  C   UNL     1      42.908 -17.865   4.480  1.00  0.00    -0.064 C 
BRANCH  31  32
HETATM   32  C   UNL     1      43.311 -18.222   5.667  1.00  0.00    -0.064 C 
BRANCH  32  33
HETATM   33  C   UNL     1      43.781 -18.640   7.051  1.00  0.00     0.114 C 
HETATM   34  C   UNL     1      43.669 -20.153   7.211  1.00  0.00     0.060 C 
HETATM   35  C   UNL     1      45.211 -18.164   7.282  1.00  0.00     0.060 C 
BRANCH  33  36
HETATM   36  O   UNL     1      42.944 -18.009   8.016  1.00  0.00    -0.378 OA
HETATM   37  H   UNL     1      42.289 -17.481   7.529  1.00  0.00     0.211 HD
ENDBRANCH  33  36
ENDBRANCH  32  33
ENDBRANCH  31  32
ENDBRANCH  28  31
ENDBRANCH  24  25
ENDBRANCH   6  24
TORSDOF 9
ENDMDL
MODEL 9
REMARK VINA RESULT:      -7.0      4.909      9.255
REMARK  9 active torsions:
REMARK  status: ('A' for Active; 'I' for Inactive)
REMARK    1  A    between atoms: C_6  and  C_7 
REMARK       I    between atoms: C_7  and  N_8 
REMARK    2  A    between atoms: N_8  and  C_9 
REMARK    3  A    between atoms: C_9  and  C_10 
REMARK    4  A    between atoms: N_15  and  C_17 
REMARK    5  A    between atoms: C_17  and  C_18 
REMARK    6  A    between atoms: C_21  and  C_22 
REMARK    7  A    between atoms: C_22  and  C_23 
REMARK    8  A    between atoms: C_23  and  C_24 
REMARK    9  A    between atoms: C_24  and  O_25 
ROOT
HETATM    1  C   UNL     1      41.824 -11.818   5.598  1.00  0.00     0.140 C 
HETATM    2  O   UNL     1      41.301 -11.872   4.254  1.00  0.00    -0.373 OA
HETATM    3  C   UNL     1      40.954 -13.230   3.919  1.00  0.00     0.064 C 
HETATM    4  C   UNL     1      41.797 -13.617   2.698  1.00  0.00     0.066 C 
HETATM    5  C   UNL     1      41.458 -12.736   1.502  1.00  0.00     0.238 C 
HETATM    6  N   UNL     1      39.983 -12.798   1.180  1.00  0.00    -0.067 N 
HETATM    7  H   UNL     1      39.834 -12.059   0.483  1.00  0.00     0.280 HD
HETATM    8  C   UNL     1      39.144 -12.398   2.374  1.00  0.00     0.238 C 
HETATM    9  C   UNL     1      39.464 -13.286   3.568  1.00  0.00     0.066 C 
HETATM   10  C   UNL     1      41.282 -14.081   5.148  1.00  0.00     0.041 C 
HETATM   11  C   UNL     1      42.286 -13.234   5.896  1.00  0.00     0.036 C 
ENDROOT
BRANCH   1  12
HETATM   12  C   UNL     1      40.738 -11.319   6.572  1.00  0.00     0.155 C 
BRANCH  12  13
HETATM   13  N   UNL     1      41.187 -11.353   7.954  1.00  0.00    -0.353 N 
HETATM   14  C   UNL     1      41.918 -10.336   8.528  1.00  0.00     0.270 C 
HETATM   15  O   UNL     1      42.191  -9.304   7.921  1.00  0.00    -0.266 OA
HETATM   16  H   UNL     1      40.968 -12.171   8.505  1.00  0.00     0.162 HD
BRANCH  14  17
HETATM   17  C   UNL     1      42.336 -10.582   9.889  1.00  0.00     0.122 A 
HETATM   18  N   UNL     1      43.427 -11.344  10.241  1.00  0.00    -0.269 N 
HETATM   19  N   UNL     1      43.590 -11.482  11.569  1.00  0.00    -0.177 NA
HETATM   20  C   UNL     1      44.388 -11.967   9.359  1.00  0.00     0.180 C 
HETATM   21  C   UNL     1      42.608 -10.752  12.101  1.00  0.00     0.053 A 
HETATM   22  C   UNL     1      42.460 -10.637  13.572  1.00  0.00     0.072 C 
HETATM   23  C   UNL     1      41.797 -10.173  11.100  1.00  0.00     0.065 A 
ENDBRANCH  14  17
ENDBRANCH  12  13
ENDBRANCH   1  12
BRANCH   6  24
HETATM   24  C   UNL     1      39.505 -14.065   0.506  1.00  0.00     0.273 C 
BRANCH  24  25
HETATM   25  C   UNL     1      40.337 -15.271   0.846  1.00  0.00    -0.033 A 
HETATM   26  C   UNL     1      39.985 -16.092   1.930  1.00  0.00     0.010 A 
HETATM   27  C   UNL     1      40.788 -17.178   2.287  1.00  0.00     0.021 A 
HETATM   28  C   UNL     1      41.946 -17.456   1.562  1.00  0.00     0.017 A 
HETATM   29  C   UNL     1      42.296 -16.658   0.472  1.00  0.00     0.021 A 
HETATM   30  C   UNL     1      41.495 -15.571   0.113  1.00  0.00     0.010 A 
BRANCH  28  31
HETATM   31  C   UNL     1      42.782 -18.548   1.943  1.00  0.00    -0.064 C 
BRANCH  31  32
HETATM   32  C   UNL     1      43.544 -19.537   2.319  1.00  0.00    -0.064 C 
BRANCH  32  33
HETATM   33  C   UNL     1      44.433 -20.690   2.757  1.00  0.00     0.114 C 
HETATM   34  C   UNL     1      44.454 -20.789   4.279  1.00  0.00     0.060 C 
HETATM   35  C   UNL     1      43.948 -21.991   2.126  1.00  0.00     0.060 C 
BRANCH  33  36
HETATM   36  O   UNL     1      45.755 -20.438   2.291  1.00  0.00    -0.378 OA
HETATM   37  H   UNL     1      45.687 -20.185   1.355  1.00  0.00     0.211 HD
ENDBRANCH  33  36
ENDBRANCH  32  33
ENDBRANCH  31  32
ENDBRANCH  28  31
ENDBRANCH  24  25
ENDBRANCH   6  24
TORSDOF 9
ENDMDL
MODEL 10
REMARK VINA RESULT:      -7.0      3.912      6.115
REMARK  9 active torsions:
REMARK  status: ('A' for Active; 'I' for Inactive)
REMARK    1  A    between atoms: C_6  and  C_7 
REMARK       I    between atoms: C_7  and  N_8 
REMARK    2  A    between atoms: N_8  and  C_9 
REMARK    3  A    between atoms: C_9  and  C_10 
REMARK    4  A    between atoms: N_15  and  C_17 
REMARK    5  A    between atoms: C_17  and  C_18 
REMARK    6  A    between atoms: C_21  and  C_22 
REMARK    7  A    between atoms: C_22  and  C_23 
REMARK    8  A    between atoms: C_23  and  C_24 
REMARK    9  A    between atoms: C_24  and  O_25 
ROOT
HETATM    1  C   UNL     1      43.892 -17.299   5.981  1.00  0.00     0.140 C 
HETATM    2  O   UNL     1      43.633 -16.559   4.770  1.00  0.00    -0.373 OA
HETATM    3  C   UNL     1      42.654 -17.252   3.973  1.00  0.00     0.064 C 
HETATM    4  C   UNL     1      43.319 -17.569   2.628  1.00  0.00     0.066 C 
HETATM    5  C   UNL     1      43.702 -16.289   1.895  1.00  0.00     0.238 C 
HETATM    6  N   UNL     1      42.502 -15.392   1.703  1.00  0.00    -0.067 N 
HETATM    7  H   UNL     1      42.889 -14.505   1.359  1.00  0.00     0.280 HD
HETATM    8  C   UNL     1      41.852 -15.057   3.028  1.00  0.00     0.238 C 
HETATM    9  C   UNL     1      41.450 -16.331   3.758  1.00  0.00     0.066 C 
HETATM   10  C   UNL     1      42.274 -18.516   4.747  1.00  0.00     0.041 C 
HETATM   11  C   UNL     1      43.452 -18.720   5.672  1.00  0.00     0.036 C 
ENDROOT
BRANCH   1  12
HETATM   12  C   UNL     1      43.125 -16.673   7.163  1.00  0.00     0.155 C 
BRANCH  12  13
HETATM   13  N   UNL     1      43.840 -15.547   7.742  1.00  0.00    -0.353 N 
HETATM   14  C   UNL     1      43.794 -14.277   7.208  1.00  0.00     0.270 C 
HETATM   15  O   UNL     1      43.097 -14.002   6.234  1.00  0.00    -0.266 OA
HETATM   16  H   UNL     1      44.410 -15.714   8.558  1.00  0.00     0.162 HD
BRANCH  14  17
HETATM   17  C   UNL     1      44.627 -13.306   7.878  1.00  0.00     0.122 A 
HETATM   18  N   UNL     1      45.905 -12.978   7.488  1.00  0.00    -0.269 N 
HETATM   19  N   UNL     1      46.512 -12.091   8.296  1.00  0.00    -0.177 NA
HETATM   20  C   UNL     1      46.624 -13.458   6.329  1.00  0.00     0.180 C 
HETATM   21  C   UNL     1      45.589 -11.794   9.214  1.00  0.00     0.053 A 
HETATM   22  C   UNL     1      45.878 -10.817  10.291  1.00  0.00     0.072 C 
HETATM   23  C   UNL     1      44.399 -12.524   9.001  1.00  0.00     0.065 A 
ENDBRANCH  14  17
ENDBRANCH  12  13
ENDBRANCH   1  12
BRANCH   6  24
HETATM   24  C   UNL     1      41.516 -15.821   0.641  1.00  0.00     0.273 C 
BRANCH  24  25
HETATM   25  C   UNL     1      40.295 -14.945   0.572  1.00  0.00    -0.033 A 
HETATM   26  C   UNL     1      40.294 -13.793  -0.232  1.00  0.00     0.010 A 
HETATM   27  C   UNL     1      39.185 -12.944  -0.252  1.00  0.00     0.021 A 
HETATM   28  C   UNL     1      38.067 -13.239   0.526  1.00  0.00     0.017 A 
HETATM   29  C   UNL     1      38.050 -14.391   1.314  1.00  0.00     0.021 A 
HETATM   30  C   UNL     1      39.157 -15.242   1.337  1.00  0.00     0.010 A 
BRANCH  28  31
HETATM   31  C   UNL     1      36.944 -12.358   0.527  1.00  0.00    -0.064 C 
BRANCH  31  32
HETATM   32  C   UNL     1      35.929 -11.540   0.553  1.00  0.00    -0.064 C 
BRANCH  32  33
HETATM   33  C   UNL     1      34.746 -10.587   0.584  1.00  0.00     0.114 C 
HETATM   34  C   UNL     1      35.222  -9.164   0.859  1.00  0.00     0.060 C 
HETATM   35  C   UNL     1      33.978 -10.667  -0.730  1.00  0.00     0.060 C 
BRANCH  33  36
HETATM   36  O   UNL     1      33.872 -10.993   1.633  1.00  0.00    -0.378 OA
HETATM   37  H   UNL     1      33.838 -10.267   2.278  1.00  0.00     0.211 HD
ENDBRANCH  33  36
ENDBRANCH  32  33
ENDBRANCH  31  32
ENDBRANCH  28  31
ENDBRANCH  24  25
ENDBRANCH   6  24
TORSDOF 9
ENDMDL
