MODEL 1
REMARK VINA RESULT:      -9.0      0.000      0.000
REMARK  4 active torsions:
REMARK  status: ('A' for Active; 'I' for Inactive)
REMARK    1  A    between atoms: C_3  and  N_4 
REMARK       I    between atoms: N_4  and  C_5 
REMARK    2  A    between atoms: C_5  and  C_6 
REMARK    3  A    between atoms: C_7  and  C_8 
REMARK    4  A    between atoms: C_19  and  C_20 
ROOT
HETATM    1  N   UNL     1      44.683 -14.227   6.700  1.00  0.00    -0.324 N 
HETATM    2  C   UNL     1      44.146 -15.460   7.016  1.00  0.00     0.245 C 
HETATM    3  O   UNL     1      43.905 -15.896   8.133  1.00  0.00    -0.268 OA
HETATM    4  H   UNL     1      44.780 -14.000   5.720  1.00  0.00     0.169 HD
ENDROOT
BRANCH   1   5
HETATM    5  C   UNL     1      45.132 -13.236   7.602  1.00  0.00     0.035 A 
HETATM    6  C   UNL     1      46.392 -12.641   7.538  1.00  0.00     0.029 A 
HETATM    7  C   UNL     1      46.753 -11.648   8.451  1.00  0.00     0.003 A 
HETATM    8  C   UNL     1      45.858 -11.242   9.440  1.00  0.00     0.012 A 
HETATM    9  C   UNL     1      44.591 -11.828   9.529  1.00  0.00    -0.021 A 
HETATM   10  C   UNL     1      44.238 -12.823   8.602  1.00  0.00     0.042 A 
BRANCH   9  11
HETATM   11  C   UNL     1      43.664 -11.396  10.561  1.00  0.00     0.010 A 
HETATM   12  C   UNL     1      42.610 -10.453  10.520  1.00  0.00     0.152 A 
HETATM   13  N   UNL     1      41.991 -10.315  11.696  1.00  0.00    -0.187 NA
HETATM   14  N   UNL     1      42.654 -11.163  12.499  1.00  0.00    -0.289 N 
HETATM   15  H   UNL     1      42.366 -11.227  13.469  1.00  0.00     0.188 HD
HETATM   16  C   UNL     1      43.662 -11.835  11.869  1.00  0.00     0.123 A 
ENDBRANCH   9  11
ENDBRANCH   1   5
BRANCH   2  17
HETATM   17  C   UNL     1      43.870 -16.276   5.798  1.00  0.00     0.075 C 
HETATM   18  C   UNL     1      44.221 -17.572   5.778  1.00  0.00     0.017 C 
BRANCH  18  19
HETATM   19  C   UNL     1      44.037 -18.473   4.631  1.00  0.00    -0.035 A 
HETATM   20  C   UNL     1      44.437 -19.812   4.762  1.00  0.00     0.021 A 
HETATM   21  C   UNL     1      44.331 -20.651   3.665  1.00  0.00    -0.022 A 
HETATM   22  C   UNL     1      43.833 -20.186   2.459  1.00  0.00     0.075 A 
HETATM   23  C   UNL     1      44.623 -22.096   3.544  1.00  0.00     0.068 C 
HETATM   24  O   UNL     1      43.788 -21.140   1.478  1.00  0.00    -0.350 OA
HETATM   25  C   UNL     1      43.426 -18.879   2.296  1.00  0.00     0.038 A 
HETATM   26  C   UNL     1      44.586 -22.219   2.021  1.00  0.00     0.180 C 
HETATM   27  C   UNL     1      43.542 -18.015   3.390  1.00  0.00     0.014 A 
ENDBRANCH  18  19
ENDBRANCH   2  17
TORSDOF 4
ENDMDL
MODEL 2
REMARK VINA RESULT:      -9.0      6.956     10.169
REMARK  4 active torsions:
REMARK  status: ('A' for Active; 'I' for Inactive)
REMARK    1  A    between atoms: C_3  and  N_4 
REMARK       I    between atoms: N_4  and  C_5 
REMARK    2  A    between atoms: C_5  and  C_6 
REMARK    3  A    between atoms: C_7  and  C_8 
REMARK    4  A    between atoms: C_19  and  C_20 
ROOT
HETATM    1  N   UNL     1      41.671 -15.673  -0.870  1.00  0.00    -0.324 N 
HETATM    2  C   UNL     1      41.747 -15.691   0.509  1.00  0.00     0.245 C 
HETATM    3  O   UNL     1      41.389 -14.810   1.280  1.00  0.00    -0.268 OA
HETATM    4  H   UNL     1      41.971 -16.502  -1.363  1.00  0.00     0.169 HD
ENDROOT
BRANCH   1   5
HETATM    5  C   UNL     1      41.227 -14.608  -1.686  1.00  0.00     0.035 A 
HETATM    6  C   UNL     1      42.002 -13.490  -1.996  1.00  0.00     0.029 A 
HETATM    7  C   UNL     1      41.502 -12.491  -2.833  1.00  0.00     0.003 A 
HETATM    8  C   UNL     1      40.218 -12.597  -3.366  1.00  0.00     0.012 A 
HETATM    9  C   UNL     1      39.418 -13.704  -3.064  1.00  0.00    -0.021 A 
HETATM   10  C   UNL     1      39.934 -14.705  -2.225  1.00  0.00     0.042 A 
BRANCH   9  11
HETATM   11  C   UNL     1      38.082 -13.807  -3.627  1.00  0.00     0.010 A 
HETATM   12  C   UNL     1      37.353 -14.934  -4.076  1.00  0.00     0.152 A 
HETATM   13  N   UNL     1      36.147 -14.614  -4.553  1.00  0.00    -0.187 NA
HETATM   14  N   UNL     1      36.102 -13.279  -4.421  1.00  0.00    -0.289 N 
HETATM   15  H   UNL     1      35.267 -12.795  -4.734  1.00  0.00     0.188 HD
HETATM   16  C   UNL     1      37.232 -12.748  -3.871  1.00  0.00     0.123 A 
ENDBRANCH   9  11
ENDBRANCH   1   5
BRANCH   2  17
HETATM   17  C   UNL     1      42.351 -16.956   1.017  1.00  0.00     0.075 C 
HETATM   18  C   UNL     1      42.838 -17.000   2.268  1.00  0.00     0.017 C 
BRANCH  18  19
HETATM   19  C   UNL     1      43.487 -18.171   2.874  1.00  0.00    -0.035 A 
HETATM   20  C   UNL     1      43.551 -19.360   2.129  1.00  0.00     0.021 A 
HETATM   21  C   UNL     1      44.100 -20.488   2.717  1.00  0.00    -0.022 A 
HETATM   22  C   UNL     1      44.584 -20.449   4.014  1.00  0.00     0.075 A 
HETATM   23  C   UNL     1      44.337 -21.833   2.149  1.00  0.00     0.068 C 
HETATM   24  O   UNL     1      45.097 -21.644   4.444  1.00  0.00    -0.350 OA
HETATM   25  C   UNL     1      44.543 -19.299   4.772  1.00  0.00     0.038 A 
HETATM   26  C   UNL     1      44.642 -22.587   3.444  1.00  0.00     0.180 C 
HETATM   27  C   UNL     1      43.978 -18.156   4.198  1.00  0.00     0.014 A 
ENDBRANCH  18  19
ENDBRANCH   2  17
TORSDOF 4
ENDMDL
MODEL 3
REMARK VINA RESULT:      -8.9      6.932      9.220
REMARK  4 active torsions:
REMARK  status: ('A' for Active; 'I' for Inactive)
REMARK    1  A    between atoms: C_3  and  N_4 
REMARK       I    between atoms: N_4  and  C_5 
REMARK    2  A    between atoms: C_5  and  C_6 
REMARK    3  A    between atoms: C_7  and  C_8 
REMARK    4  A    between atoms: C_19  and  C_20 
ROOT
HETATM    1  N   UNL     1      41.642 -15.747  -0.343  1.00  0.00    -0.324 N 
HETATM    2  C   UNL     1      40.971 -15.763   0.864  1.00  0.00     0.245 C 
HETATM    3  O   UNL     1      39.995 -15.093   1.176  1.00  0.00    -0.268 OA
HETATM    4  H   UNL     1      42.408 -16.396  -0.457  1.00  0.00     0.169 HD
ENDROOT
BRANCH   1   5
HETATM    5  C   UNL     1      41.388 -14.905  -1.449  1.00  0.00     0.035 A 
HETATM    6  C   UNL     1      40.606 -15.275  -2.544  1.00  0.00     0.029 A 
HETATM    7  C   UNL     1      40.378 -14.377  -3.588  1.00  0.00     0.003 A 
HETATM    8  C   UNL     1      40.933 -13.098  -3.550  1.00  0.00     0.012 A 
HETATM    9  C   UNL     1      41.726 -12.705  -2.466  1.00  0.00    -0.021 A 
HETATM   10  C   UNL     1      41.944 -13.617  -1.420  1.00  0.00     0.042 A 
BRANCH   9  11
HETATM   11  C   UNL     1      42.297 -11.369  -2.434  1.00  0.00     0.010 A 
HETATM   12  C   UNL     1      43.115 -10.738  -1.468  1.00  0.00     0.152 A 
HETATM   13  N   UNL     1      43.422  -9.479  -1.792  1.00  0.00    -0.187 NA
HETATM   14  N   UNL     1      42.793  -9.295  -2.963  1.00  0.00    -0.289 N 
HETATM   15  H   UNL     1      42.871  -8.388  -3.411  1.00  0.00     0.188 HD
HETATM   16  C   UNL     1      42.108 -10.395  -3.392  1.00  0.00     0.123 A 
ENDBRANCH   9  11
ENDBRANCH   1   5
BRANCH   2  17
HETATM   17  C   UNL     1      41.580 -16.725   1.828  1.00  0.00     0.075 C 
HETATM   18  C   UNL     1      42.680 -17.409   1.472  1.00  0.00     0.017 C 
BRANCH  18  19
HETATM   19  C   UNL     1      43.353 -18.409   2.314  1.00  0.00    -0.035 A 
HETATM   20  C   UNL     1      43.516 -19.708   1.807  1.00  0.00     0.021 A 
HETATM   21  C   UNL     1      44.088 -20.674   2.619  1.00  0.00    -0.022 A 
HETATM   22  C   UNL     1      44.499 -20.369   3.906  1.00  0.00     0.075 A 
HETATM   23  C   UNL     1      44.423 -22.084   2.323  1.00  0.00     0.068 C 
HETATM   24  O   UNL     1      45.048 -21.432   4.574  1.00  0.00    -0.350 OA
HETATM   25  C   UNL     1      44.360 -19.104   4.434  1.00  0.00     0.038 A 
HETATM   26  C   UNL     1      44.695 -22.567   3.748  1.00  0.00     0.180 C 
HETATM   27  C   UNL     1      43.770 -18.121   3.632  1.00  0.00     0.014 A 
ENDBRANCH  18  19
ENDBRANCH   2  17
TORSDOF 4
ENDMDL
MODEL 4
REMARK VINA RESULT:      -8.6      5.671      9.192
REMARK  4 active torsions:
REMARK  status: ('A' for Active; 'I' for Inactive)
REMARK    1  A    between atoms: C_3  and  N_4 
REMARK       I    between atoms: N_4  and  C_5 
REMARK    2  A    between atoms: C_5  and  C_6 
REMARK    3  A    between atoms: C_7  and  C_8 
REMARK    4  A    between atoms: C_19  and  C_20 
ROOT
HETATM    1  N   UNL     1      42.220 -16.525   4.001  1.00  0.00    -0.324 N 
HETATM    2  C   UNL     1      41.103 -15.963   4.587  1.00  0.00     0.245 C 
HETATM    3  O   UNL     1      40.791 -16.002   5.769  1.00  0.00    -0.268 OA
HETATM    4  H   UNL     1      42.357 -16.364   3.012  1.00  0.00     0.169 HD
ENDROOT
BRANCH   1   5
HETATM    5  C   UNL     1      43.203 -17.323   4.629  1.00  0.00     0.035 A 
HETATM    6  C   UNL     1      43.974 -16.898   5.712  1.00  0.00     0.029 A 
HETATM    7  C   UNL     1      44.907 -17.756   6.297  1.00  0.00     0.003 A 
HETATM    8  C   UNL     1      45.083 -19.047   5.801  1.00  0.00     0.012 A 
HETATM    9  C   UNL     1      44.329 -19.494   4.712  1.00  0.00    -0.021 A 
HETATM   10  C   UNL     1      43.389 -18.624   4.135  1.00  0.00     0.042 A 
BRANCH   9  11
HETATM   11  C   UNL     1      44.517 -20.843   4.205  1.00  0.00     0.010 A 
HETATM   12  C   UNL     1      44.419 -21.358   2.891  1.00  0.00     0.152 A 
HETATM   13  N   UNL     1      44.646 -22.673   2.831  1.00  0.00    -0.187 NA
HETATM   14  N   UNL     1      44.880 -23.008   4.110  1.00  0.00    -0.289 N 
HETATM   15  H   UNL     1      45.072 -23.982   4.322  1.00  0.00     0.188 HD
HETATM   16  C   UNL     1      44.817 -21.951   4.971  1.00  0.00     0.123 A 
ENDBRANCH   9  11
ENDBRANCH   1   5
BRANCH   2  17
HETATM   17  C   UNL     1      40.244 -15.260   3.589  1.00  0.00     0.075 C 
HETATM   18  C   UNL     1      40.390 -15.535   2.283  1.00  0.00     0.017 C 
BRANCH  18  19
HETATM   19  C   UNL     1      39.632 -14.889   1.202  1.00  0.00    -0.035 A 
HETATM   20  C   UNL     1      40.292 -14.620  -0.009  1.00  0.00     0.021 A 
HETATM   21  C   UNL     1      39.606 -13.950  -1.008  1.00  0.00    -0.022 A 
HETATM   22  C   UNL     1      38.291 -13.555  -0.827  1.00  0.00     0.075 A 
HETATM   23  C   UNL     1      40.035 -13.594  -2.378  1.00  0.00     0.068 C 
HETATM   24  O   UNL     1      37.756 -12.910  -1.910  1.00  0.00    -0.350 OA
HETATM   25  C   UNL     1      37.611 -13.807   0.345  1.00  0.00     0.038 A 
HETATM   26  C   UNL     1      38.911 -12.620  -2.734  1.00  0.00     0.180 C 
HETATM   27  C   UNL     1      38.295 -14.468   1.370  1.00  0.00     0.014 A 
ENDBRANCH  18  19
ENDBRANCH   2  17
TORSDOF 4
ENDMDL
MODEL 5
REMARK VINA RESULT:      -8.5      6.431     10.088
REMARK  4 active torsions:
REMARK  status: ('A' for Active; 'I' for Inactive)
REMARK    1  A    between atoms: C_3  and  N_4 
REMARK       I    between atoms: N_4  and  C_5 
REMARK    2  A    between atoms: C_5  and  C_6 
REMARK    3  A    between atoms: C_7  and  C_8 
REMARK    4  A    between atoms: C_19  and  C_20 
ROOT
HETATM    1  N   UNL     1      42.898 -16.707   1.754  1.00  0.00    -0.324 N 
HETATM    2  C   UNL     1      41.597 -16.509   1.335  1.00  0.00     0.245 C 
HETATM    3  O   UNL     1      40.574 -16.823   1.929  1.00  0.00    -0.268 OA
HETATM    4  H   UNL     1      43.636 -16.349   1.165  1.00  0.00     0.169 HD
ENDROOT
BRANCH   1   5
HETATM    5  C   UNL     1      43.325 -17.376   2.924  1.00  0.00     0.035 A 
HETATM    6  C   UNL     1      43.405 -16.773   4.180  1.00  0.00     0.029 A 
HETATM    7  C   UNL     1      43.811 -17.508   5.295  1.00  0.00     0.003 A 
HETATM    8  C   UNL     1      44.145 -18.856   5.165  1.00  0.00     0.012 A 
HETATM    9  C   UNL     1      44.079 -19.482   3.916  1.00  0.00    -0.021 A 
HETATM   10  C   UNL     1      43.665 -18.733   2.803  1.00  0.00     0.042 A 
BRANCH   9  11
HETATM   11  C   UNL     1      44.425 -20.888   3.792  1.00  0.00     0.010 A 
HETATM   12  C   UNL     1      44.418 -21.745   2.666  1.00  0.00     0.152 A 
HETATM   13  N   UNL     1      44.787 -22.994   2.963  1.00  0.00    -0.187 NA
HETATM   14  N   UNL     1      45.023 -22.945   4.284  1.00  0.00    -0.289 N 
HETATM   15  H   UNL     1      45.314 -23.798   4.751  1.00  0.00     0.188 HD
HETATM   16  C   UNL     1      44.824 -21.708   4.827  1.00  0.00     0.123 A 
ENDBRANCH   9  11
ENDBRANCH   1   5
BRANCH   2  17
HETATM   17  C   UNL     1      41.536 -15.840   0.003  1.00  0.00     0.075 C 
HETATM   18  C   UNL     1      41.783 -14.523  -0.087  1.00  0.00     0.017 C 
BRANCH  18  19
HETATM   19  C   UNL     1      41.722 -13.743  -1.330  1.00  0.00    -0.035 A 
HETATM   20  C   UNL     1      42.350 -12.487  -1.363  1.00  0.00     0.021 A 
HETATM   21  C   UNL     1      42.239 -11.715  -2.507  1.00  0.00    -0.022 A 
HETATM   22  C   UNL     1      41.529 -12.169  -3.606  1.00  0.00     0.075 A 
HETATM   23  C   UNL     1      42.838 -10.400  -2.826  1.00  0.00     0.068 C 
HETATM   24  O   UNL     1      41.519 -11.290  -4.656  1.00  0.00    -0.350 OA
HETATM   25  C   UNL     1      40.904 -13.398  -3.611  1.00  0.00     0.038 A 
HETATM   26  C   UNL     1      42.021 -10.063  -4.074  1.00  0.00     0.180 C 
HETATM   27  C   UNL     1      40.993 -14.183  -2.457  1.00  0.00     0.014 A 
ENDBRANCH  18  19
ENDBRANCH   2  17
TORSDOF 4
ENDMDL
MODEL 6
REMARK VINA RESULT:      -8.4      5.481      8.538
REMARK  4 active torsions:
REMARK  status: ('A' for Active; 'I' for Inactive)
REMARK    1  A    between atoms: C_3  and  N_4 
REMARK       I    between atoms: N_4  and  C_5 
REMARK    2  A    between atoms: C_5  and  C_6 
REMARK    3  A    between atoms: C_7  and  C_8 
REMARK    4  A    between atoms: C_19  and  C_20 
ROOT
HETATM    1  N   UNL     1      42.540 -18.178   2.199  1.00  0.00    -0.324 N 
HETATM    2  C   UNL     1      43.023 -17.266   1.282  1.00  0.00     0.245 C 
HETATM    3  O   UNL     1      44.187 -16.920   1.126  1.00  0.00    -0.268 OA
HETATM    4  H   UNL     1      41.552 -18.387   2.171  1.00  0.00     0.169 HD
ENDROOT
BRANCH   1   5
HETATM    5  C   UNL     1      43.276 -18.853   3.200  1.00  0.00     0.035 A 
HETATM    6  C   UNL     1      44.092 -19.958   2.953  1.00  0.00     0.029 A 
HETATM    7  C   UNL     1      44.810 -20.555   3.990  1.00  0.00     0.003 A 
HETATM    8  C   UNL     1      44.717 -20.054   5.289  1.00  0.00     0.012 A 
HETATM    9  C   UNL     1      43.901 -18.952   5.564  1.00  0.00    -0.021 A 
HETATM   10  C   UNL     1      43.187 -18.357   4.510  1.00  0.00     0.042 A 
BRANCH   9  11
HETATM   11  C   UNL     1      43.814 -18.435   6.919  1.00  0.00     0.010 A 
HETATM   12  C   UNL     1      43.422 -17.164   7.400  1.00  0.00     0.152 A 
HETATM   13  N   UNL     1      43.496 -17.067   8.730  1.00  0.00    -0.187 NA
HETATM   14  N   UNL     1      43.945 -18.275   9.107  1.00  0.00    -0.289 N 
HETATM   15  H   UNL     1      44.095 -18.443  10.097  1.00  0.00     0.188 HD
HETATM   16  C   UNL     1      44.149 -19.130   8.063  1.00  0.00     0.123 A 
ENDBRANCH   9  11
ENDBRANCH   1   5
BRANCH   2  17
HETATM   17  C   UNL     1      41.933 -16.691   0.441  1.00  0.00     0.075 C 
HETATM   18  C   UNL     1      41.552 -15.417   0.632  1.00  0.00     0.017 C 
BRANCH  18  19
HETATM   19  C   UNL     1      40.472 -14.747  -0.104  1.00  0.00    -0.035 A 
HETATM   20  C   UNL     1      40.715 -14.342  -1.426  1.00  0.00     0.021 A 
HETATM   21  C   UNL     1      39.726 -13.648  -2.104  1.00  0.00    -0.022 A 
HETATM   22  C   UNL     1      38.515 -13.361  -1.498  1.00  0.00     0.075 A 
HETATM   23  C   UNL     1      39.698 -13.160  -3.501  1.00  0.00     0.068 C 
HETATM   24  O   UNL     1      37.646 -12.675  -2.304  1.00  0.00    -0.350 OA
HETATM   25  C   UNL     1      38.240 -13.748  -0.204  1.00  0.00     0.038 A 
HETATM   26  C   UNL     1      38.477 -12.244  -3.407  1.00  0.00     0.180 C 
HETATM   27  C   UNL     1      39.234 -14.435   0.500  1.00  0.00     0.014 A 
ENDBRANCH  18  19
ENDBRANCH   2  17
TORSDOF 4
ENDMDL
MODEL 7
REMARK VINA RESULT:      -8.4      6.117      9.030
REMARK  4 active torsions:
REMARK  status: ('A' for Active; 'I' for Inactive)
REMARK    1  A    between atoms: C_3  and  N_4 
REMARK       I    between atoms: N_4  and  C_5 
REMARK    2  A    between atoms: C_5  and  C_6 
REMARK    3  A    between atoms: C_7  and  C_8 
REMARK    4  A    between atoms: C_19  and  C_20 
ROOT
HETATM    1  N   UNL     1      40.523 -15.510   1.909  1.00  0.00    -0.324 N 
HETATM    2  C   UNL     1      41.354 -15.020   2.897  1.00  0.00     0.245 C 
HETATM    3  O   UNL     1      41.445 -13.861   3.278  1.00  0.00    -0.268 OA
HETATM    4  H   UNL     1      40.536 -16.507   1.742  1.00  0.00     0.169 HD
ENDROOT
BRANCH   1   5
HETATM    5  C   UNL     1      39.653 -14.766   1.079  1.00  0.00     0.035 A 
HETATM    6  C   UNL     1      38.320 -14.498   1.392  1.00  0.00     0.029 A 
HETATM    7  C   UNL     1      37.531 -13.732   0.533  1.00  0.00     0.003 A 
HETATM    8  C   UNL     1      38.066 -13.228  -0.652  1.00  0.00     0.012 A 
HETATM    9  C   UNL     1      39.397 -13.488  -0.992  1.00  0.00    -0.021 A 
HETATM   10  C   UNL     1      40.183 -14.257  -0.117  1.00  0.00     0.042 A 
BRANCH   9  11
HETATM   11  C   UNL     1      39.946 -12.956  -2.227  1.00  0.00     0.010 A 
HETATM   12  C   UNL     1      41.276 -12.627  -2.581  1.00  0.00     0.152 A 
HETATM   13  N   UNL     1      41.378 -12.138  -3.820  1.00  0.00    -0.187 NA
HETATM   14  N   UNL     1      40.110 -12.140  -4.262  1.00  0.00    -0.289 N 
HETATM   15  H   UNL     1      39.928 -11.794  -5.198  1.00  0.00     0.188 HD
HETATM   16  C   UNL     1      39.216 -12.622  -3.349  1.00  0.00     0.123 A 
ENDBRANCH   9  11
ENDBRANCH   1   5
BRANCH   2  17
HETATM   17  C   UNL     1      42.195 -16.094   3.502  1.00  0.00     0.075 C 
HETATM   18  C   UNL     1      42.498 -17.183   2.776  1.00  0.00     0.017 C 
BRANCH  18  19
HETATM   19  C   UNL     1      43.286 -18.322   3.264  1.00  0.00    -0.035 A 
HETATM   20  C   UNL     1      43.373 -19.469   2.459  1.00  0.00     0.021 A 
HETATM   21  C   UNL     1      44.057 -20.573   2.941  1.00  0.00    -0.022 A 
HETATM   22  C   UNL     1      44.651 -20.552   4.192  1.00  0.00     0.075 A 
HETATM   23  C   UNL     1      44.344 -21.870   2.289  1.00  0.00     0.068 C 
HETATM   24  O   UNL     1      45.291 -21.718   4.517  1.00  0.00    -0.350 OA
HETATM   25  C   UNL     1      44.591 -19.442   5.007  1.00  0.00     0.038 A 
HETATM   26  C   UNL     1      44.821 -22.651   3.514  1.00  0.00     0.180 C 
HETATM   27  C   UNL     1      43.891 -18.324   4.541  1.00  0.00     0.014 A 
ENDBRANCH  18  19
ENDBRANCH   2  17
TORSDOF 4
ENDMDL
MODEL 8
REMARK VINA RESULT:      -8.4      5.490      8.571
REMARK  4 active torsions:
REMARK  status: ('A' for Active; 'I' for Inactive)
REMARK    1  A    between atoms: C_3  and  N_4 
REMARK       I    between atoms: N_4  and  C_5 
REMARK    2  A    between atoms: C_5  and  C_6 
REMARK    3  A    between atoms: C_7  and  C_8 
REMARK    4  A    between atoms: C_19  and  C_20 
ROOT
HETATM    1  N   UNL     1      43.520 -17.856   1.892  1.00  0.00    -0.324 N 
HETATM    2  C   UNL     1      42.265 -17.373   1.578  1.00  0.00     0.245 C 
HETATM    3  O   UNL     1      41.235 -17.518   2.223  1.00  0.00    -0.268 OA
HETATM    4  H   UNL     1      44.281 -17.611   1.274  1.00  0.00     0.169 HD
ENDROOT
BRANCH   1   5
HETATM    5  C   UNL     1      43.868 -18.679   2.987  1.00  0.00     0.035 A 
HETATM    6  C   UNL     1      44.383 -19.969   2.858  1.00  0.00     0.029 A 
HETATM    7  C   UNL     1      44.729 -20.711   3.990  1.00  0.00     0.003 A 
HETATM    8  C   UNL     1      44.559 -20.170   5.264  1.00  0.00     0.012 A 
HETATM    9  C   UNL     1      44.039 -18.881   5.420  1.00  0.00    -0.021 A 
HETATM   10  C   UNL     1      43.699 -18.143   4.274  1.00  0.00     0.042 A 
BRANCH   9  11
HETATM   11  C   UNL     1      43.870 -18.325   6.752  1.00  0.00     0.010 A 
HETATM   12  C   UNL     1      43.529 -17.018   7.171  1.00  0.00     0.152 A 
HETATM   13  N   UNL     1      43.492 -16.892   8.500  1.00  0.00    -0.187 NA
HETATM   14  N   UNL     1      43.819 -18.118   8.939  1.00  0.00    -0.289 N 
HETATM   15  H   UNL     1      43.868 -18.270   9.941  1.00  0.00     0.188 HD
HETATM   16  C   UNL     1      44.052 -19.012   7.935  1.00  0.00     0.123 A 
ENDBRANCH   9  11
ENDBRANCH   1   5
BRANCH   2  17
HETATM   17  C   UNL     1      42.266 -16.611   0.295  1.00  0.00     0.075 C 
HETATM   18  C   UNL     1      41.474 -15.535   0.165  1.00  0.00     0.017 C 
BRANCH  18  19
HETATM   19  C   UNL     1      41.357 -14.723  -1.054  1.00  0.00    -0.035 A 
HETATM   20  C   UNL     1      41.936 -13.443  -1.063  1.00  0.00     0.021 A 
HETATM   21  C   UNL     1      41.772 -12.645  -2.183  1.00  0.00    -0.022 A 
HETATM   22  C   UNL     1      41.057 -13.096  -3.280  1.00  0.00     0.075 A 
HETATM   23  C   UNL     1      42.313 -11.299  -2.475  1.00  0.00     0.068 C 
HETATM   24  O   UNL     1      40.993 -12.189  -4.304  1.00  0.00    -0.350 OA
HETATM   25  C   UNL     1      40.481 -14.347  -3.308  1.00  0.00     0.038 A 
HETATM   26  C   UNL     1      41.459 -10.960  -3.697  1.00  0.00     0.180 C 
HETATM   27  C   UNL     1      40.624 -15.160  -2.179  1.00  0.00     0.014 A 
ENDBRANCH  18  19
ENDBRANCH   2  17
TORSDOF 4
ENDMDL
MODEL 9
REMARK VINA RESULT:      -8.3      5.643      7.276
REMARK  4 active torsions:
REMARK  status: ('A' for Active; 'I' for Inactive)
REMARK    1  A    between atoms: C_3  and  N_4 
REMARK       I    between atoms: N_4  and  C_5 
REMARK    2  A    between atoms: C_5  and  C_6 
REMARK    3  A    between atoms: C_7  and  C_8 
REMARK    4  A    between atoms: C_19  and  C_20 
ROOT
HETATM    1  N   UNL     1      40.419 -15.144   1.248  1.00  0.00    -0.324 N 
HETATM    2  C   UNL     1      41.198 -15.631   0.217  1.00  0.00     0.245 C 
HETATM    3  O   UNL     1      41.203 -15.253  -0.948  1.00  0.00    -0.268 OA
HETATM    4  H   UNL     1      40.566 -15.536   2.167  1.00  0.00     0.169 HD
ENDROOT
BRANCH   1   5
HETATM    5  C   UNL     1      39.412 -14.155   1.162  1.00  0.00     0.035 A 
HETATM    6  C   UNL     1      38.453 -14.106   0.150  1.00  0.00     0.029 A 
HETATM    7  C   UNL     1      37.473 -13.113   0.150  1.00  0.00     0.003 A 
HETATM    8  C   UNL     1      37.443 -12.153   1.162  1.00  0.00     0.012 A 
HETATM    9  C   UNL     1      38.398 -12.176   2.184  1.00  0.00    -0.021 A 
HETATM   10  C   UNL     1      39.376 -13.184   2.176  1.00  0.00     0.042 A 
BRANCH   9  11
HETATM   11  C   UNL     1      38.356 -11.174   3.235  1.00  0.00     0.010 A 
HETATM   12  C   UNL     1      38.843 -11.209   4.564  1.00  0.00     0.152 A 
HETATM   13  N   UNL     1      38.591 -10.083   5.237  1.00  0.00    -0.187 NA
HETATM   14  N   UNL     1      37.932  -9.326   4.345  1.00  0.00    -0.289 N 
HETATM   15  H   UNL     1      37.620  -8.405   4.637  1.00  0.00     0.188 HD
HETATM   16  C   UNL     1      37.768  -9.930   3.133  1.00  0.00     0.123 A 
ENDBRANCH   9  11
ENDBRANCH   1   5
BRANCH   2  17
HETATM   17  C   UNL     1      42.092 -16.736   0.668  1.00  0.00     0.075 C 
HETATM   18  C   UNL     1      42.006 -17.181   1.933  1.00  0.00     0.017 C 
BRANCH  18  19
HETATM   19  C   UNL     1      42.851 -18.236   2.509  1.00  0.00    -0.035 A 
HETATM   20  C   UNL     1      42.992 -19.441   1.800  1.00  0.00     0.021 A 
HETATM   21  C   UNL     1      43.730 -20.466   2.368  1.00  0.00    -0.022 A 
HETATM   22  C   UNL     1      44.328 -20.311   3.607  1.00  0.00     0.075 A 
HETATM   23  C   UNL     1      44.078 -21.797   1.824  1.00  0.00     0.068 C 
HETATM   24  O   UNL     1      45.025 -21.414   4.024  1.00  0.00    -0.350 OA
HETATM   25  C   UNL     1      44.216 -19.141   4.328  1.00  0.00     0.038 A 
HETATM   26  C   UNL     1      44.597 -22.449   3.106  1.00  0.00     0.180 C 
HETATM   27  C   UNL     1      43.460 -18.102   3.776  1.00  0.00     0.014 A 
ENDBRANCH  18  19
ENDBRANCH   2  17
TORSDOF 4
ENDMDL
MODEL 10
REMARK VINA RESULT:      -8.2      6.457      8.897
REMARK  4 active torsions:
REMARK  status: ('A' for Active; 'I' for Inactive)
REMARK    1  A    between atoms: C_3  and  N_4 
REMARK       I    between atoms: N_4  and  C_5 
REMARK    2  A    between atoms: C_5  and  C_6 
REMARK    3  A    between atoms: C_7  and  C_8 
REMARK    4  A    between atoms: C_19  and  C_20 
ROOT
HETATM    1  N   UNL     1      42.069 -14.675   0.949  1.00  0.00    -0.324 N 
HETATM    2  C   UNL     1      41.744 -15.831   0.268  1.00  0.00     0.245 C 
HETATM    3  O   UNL     1      41.211 -15.916  -0.831  1.00  0.00    -0.268 OA
HETATM    4  H   UNL     1      42.549 -14.775   1.833  1.00  0.00     0.169 HD
ENDROOT
BRANCH   1   5
HETATM    5  C   UNL     1      41.793 -13.346   0.555  1.00  0.00     0.035 A 
HETATM    6  C   UNL     1      41.265 -12.375   1.407  1.00  0.00     0.029 A 
HETATM    7  C   UNL     1      41.045 -11.075   0.950  1.00  0.00     0.003 A 
HETATM    8  C   UNL     1      41.347 -10.732  -0.368  1.00  0.00     0.012 A 
HETATM    9  C   UNL     1      41.870 -11.688  -1.244  1.00  0.00    -0.021 A 
HETATM   10  C   UNL     1      42.092 -12.992  -0.771  1.00  0.00     0.042 A 
BRANCH   9  11
HETATM   11  C   UNL     1      42.185 -11.320  -2.614  1.00  0.00     0.010 A 
HETATM   12  C   UNL     1      42.467 -10.059  -3.190  1.00  0.00     0.152 A 
HETATM   13  N   UNL     1      42.689 -10.128  -4.505  1.00  0.00    -0.187 NA
HETATM   14  N   UNL     1      42.540 -11.433  -4.779  1.00  0.00    -0.289 N 
HETATM   15  H   UNL     1      42.654 -11.737  -5.741  1.00  0.00     0.188 HD
HETATM   16  C   UNL     1      42.241 -12.189  -3.683  1.00  0.00     0.123 A 
ENDBRANCH   9  11
ENDBRANCH   1   5
BRANCH   2  17
HETATM   17  C   UNL     1      42.116 -17.054   1.036  1.00  0.00     0.075 C 
HETATM   18  C   UNL     1      43.218 -17.042   1.804  1.00  0.00     0.017 C 
BRANCH  18  19
HETATM   19  C   UNL     1      43.710 -18.189   2.581  1.00  0.00    -0.035 A 
HETATM   20  C   UNL     1      43.821 -19.433   1.939  1.00  0.00     0.021 A 
HETATM   21  C   UNL     1      44.218 -20.533   2.680  1.00  0.00    -0.022 A 
HETATM   22  C   UNL     1      44.510 -20.415   4.028  1.00  0.00     0.075 A 
HETATM   23  C   UNL     1      44.466 -21.927   2.250  1.00  0.00     0.068 C 
HETATM   24  O   UNL     1      44.892 -21.593   4.614  1.00  0.00    -0.350 OA
HETATM   25  C   UNL     1      44.418 -19.209   4.690  1.00  0.00     0.038 A 
HETATM   26  C   UNL     1      44.540 -22.590   3.625  1.00  0.00     0.180 C 
HETATM   27  C   UNL     1      44.003 -18.092   3.959  1.00  0.00     0.014 A 
ENDBRANCH  18  19
ENDBRANCH   2  17
TORSDOF 4
ENDMDL
