MODEL 1
REMARK VINA RESULT:      -8.7      0.000      0.000
REMARK  3 active torsions:
REMARK  status: ('A' for Active; 'I' for Inactive)
REMARK    1  A    between atoms: C_2  and  C_3 
REMARK    2  A    between atoms: C_8  and  C_9 
REMARK    3  A    between atoms: C_9  and  N_10 
ROOT
HETATM    1  C   UNL     1      43.814 -20.172   2.489  1.00  0.00     0.096 A 
HETATM    2  N   UNL     1      43.592 -21.220   1.685  1.00  0.00    -0.174 NA
HETATM    3  N   UNL     1      44.151 -22.267   2.298  1.00  0.00    -0.288 N 
HETATM    4  H   UNL     1      44.127 -23.169   1.830  1.00  0.00     0.188 HD
HETATM    5  C   UNL     1      44.669 -21.952   3.517  1.00  0.00     0.120 A 
HETATM    6  C   UNL     1      44.473 -20.594   3.691  1.00  0.00     0.016 A 
ENDROOT
BRANCH   6   7
HETATM    7  C   UNL     1      44.867 -19.804   4.884  1.00  0.00     0.277 C 
BRANCH   7   8
HETATM    8  N   UNL     1      43.730 -19.469   5.832  1.00  0.00    -0.067 N 
HETATM    9  H   UNL     1      43.159 -20.327   5.863  1.00  0.00     0.280 HD
HETATM   10  C   UNL     1      42.819 -18.383   5.305  1.00  0.00     0.242 C 
HETATM   11  C   UNL     1      43.501 -17.024   5.415  1.00  0.00     0.041 C 
HETATM   12  C   UNL     1      43.917 -16.747   6.863  1.00  0.00     0.128 C 
HETATM   13  C   UNL     1      42.612 -15.880   4.917  1.00  0.00     0.011 C 
HETATM   14  O   UNL     1      44.640 -15.519   6.921  1.00  0.00    -0.385 OA
HETATM   15  C   UNL     1      44.816 -17.858   7.398  1.00  0.00     0.060 C 
HETATM   16  C   UNL     1      43.835 -14.395   6.549  1.00  0.00     0.168 C 
HETATM   17  C   UNL     1      43.324 -14.541   5.118  1.00  0.00     0.027 C 
HETATM   18  C   UNL     1      44.151 -19.216   7.261  1.00  0.00     0.237 C 
ENDBRANCH   7   8
ENDBRANCH   6   7
BRANCH   1  19
HETATM   19  C   UNL     1      43.329 -18.842   2.104  1.00  0.00    -0.002 A 
HETATM   20  C   UNL     1      44.252 -17.842   1.757  1.00  0.00     0.017 A 
HETATM   21  C   UNL     1      43.822 -16.573   1.359  1.00  0.00     0.040 A 
HETATM   22  C   UNL     1      42.461 -16.294   1.294  1.00  0.00     0.102 A 
HETATM   23  C   UNL     1      41.535 -17.269   1.670  1.00  0.00     0.103 A 
HETATM   24  O   UNL     1      42.110 -15.041   0.874  1.00  0.00    -0.346 OA
HETATM   25  C   UNL     1      41.963 -18.534   2.077  1.00  0.00     0.053 A 
HETATM   26  O   UNL     1      40.180 -17.060   1.651  1.00  0.00    -0.346 OA
HETATM   27  C   UNL     1      39.877 -15.656   1.625  1.00  0.00     0.202 C 
HETATM   28  C   UNL     1      40.712 -14.946   0.572  1.00  0.00     0.202 C 
ENDBRANCH   1  19
TORSDOF 3
ENDMDL
MODEL 2
REMARK VINA RESULT:      -8.6      2.593      5.073
REMARK  3 active torsions:
REMARK  status: ('A' for Active; 'I' for Inactive)
REMARK    1  A    between atoms: C_2  and  C_3 
REMARK    2  A    between atoms: C_8  and  C_9 
REMARK    3  A    between atoms: C_9  and  N_10 
ROOT
HETATM    1  C   UNL     1      40.876 -15.727   4.340  1.00  0.00     0.096 A 
HETATM    2  N   UNL     1      40.345 -14.671   4.969  1.00  0.00    -0.174 NA
HETATM    3  N   UNL     1      40.372 -14.977   6.269  1.00  0.00    -0.288 N 
HETATM    4  H   UNL     1      39.974 -14.314   6.930  1.00  0.00     0.188 HD
HETATM    5  C   UNL     1      40.975 -16.172   6.519  1.00  0.00     0.120 A 
HETATM    6  C   UNL     1      41.324 -16.702   5.290  1.00  0.00     0.016 A 
ENDROOT
BRANCH   6   7
HETATM    7  C   UNL     1      42.020 -17.995   5.067  1.00  0.00     0.277 C 
BRANCH   7   8
HETATM    8  N   UNL     1      43.477 -17.873   4.660  1.00  0.00    -0.067 N 
HETATM    9  H   UNL     1      43.670 -16.862   4.695  1.00  0.00     0.280 HD
HETATM   10  C   UNL     1      43.730 -18.295   3.229  1.00  0.00     0.242 C 
HETATM   11  C   UNL     1      43.676 -19.814   3.111  1.00  0.00     0.041 C 
HETATM   12  C   UNL     1      44.678 -20.464   4.069  1.00  0.00     0.128 C 
HETATM   13  C   UNL     1      43.950 -20.301   1.684  1.00  0.00     0.011 C 
HETATM   14  O   UNL     1      44.537 -21.882   4.010  1.00  0.00    -0.385 OA
HETATM   15  C   UNL     1      44.434 -20.017   5.506  1.00  0.00     0.060 C 
HETATM   16  C   UNL     1      44.865 -22.410   2.721  1.00  0.00     0.168 C 
HETATM   17  C   UNL     1      43.951 -21.830   1.646  1.00  0.00     0.027 C 
HETATM   18  C   UNL     1      44.457 -18.503   5.621  1.00  0.00     0.237 C 
ENDBRANCH   7   8
ENDBRANCH   6   7
BRANCH   1  19
HETATM   19  C   UNL     1      40.991 -15.721   2.878  1.00  0.00    -0.002 A 
HETATM   20  C   UNL     1      40.871 -16.928   2.169  1.00  0.00     0.017 A 
HETATM   21  C   UNL     1      40.948 -16.953   0.774  1.00  0.00     0.040 A 
HETATM   22  C   UNL     1      41.137 -15.768   0.071  1.00  0.00     0.102 A 
HETATM   23  C   UNL     1      41.293 -14.567   0.766  1.00  0.00     0.103 A 
HETATM   24  O   UNL     1      41.179 -15.862  -1.293  1.00  0.00    -0.346 OA
HETATM   25  C   UNL     1      41.226 -14.542   2.160  1.00  0.00     0.053 A 
HETATM   26  O   UNL     1      41.503 -13.364   0.143  1.00  0.00    -0.346 OA
HETATM   27  C   UNL     1      41.958 -13.557  -1.206  1.00  0.00     0.202 C 
HETATM   28  C   UNL     1      41.092 -14.579  -1.924  1.00  0.00     0.202 C 
ENDBRANCH   1  19
TORSDOF 3
ENDMDL
MODEL 3
REMARK VINA RESULT:      -8.1      3.504      5.884
REMARK  3 active torsions:
REMARK  status: ('A' for Active; 'I' for Inactive)
REMARK    1  A    between atoms: C_2  and  C_3 
REMARK    2  A    between atoms: C_8  and  C_9 
REMARK    3  A    between atoms: C_9  and  N_10 
ROOT
HETATM    1  C   UNL     1      40.621 -15.286   3.177  1.00  0.00     0.096 A 
HETATM    2  N   UNL     1      39.924 -14.952   2.083  1.00  0.00    -0.174 NA
HETATM    3  N   UNL     1      39.884 -16.056   1.332  1.00  0.00    -0.288 N 
HETATM    4  H   UNL     1      39.427 -16.007   0.425  1.00  0.00     0.188 HD
HETATM    5  C   UNL     1      40.468 -17.128   1.935  1.00  0.00     0.120 A 
HETATM    6  C   UNL     1      40.964 -16.678   3.145  1.00  0.00     0.016 A 
ENDROOT
BRANCH   6   7
HETATM    7  C   UNL     1      41.676 -17.503   4.154  1.00  0.00     0.277 C 
BRANCH   7   8
HETATM    8  N   UNL     1      43.187 -17.363   4.141  1.00  0.00    -0.067 N 
HETATM    9  H   UNL     1      43.355 -16.414   3.775  1.00  0.00     0.280 HD
HETATM   10  C   UNL     1      43.863 -18.308   3.171  1.00  0.00     0.242 C 
HETATM   11  C   UNL     1      43.856 -19.726   3.728  1.00  0.00     0.041 C 
HETATM   12  C   UNL     1      44.527 -19.768   5.104  1.00  0.00     0.128 C 
HETATM   13  C   UNL     1      44.551 -20.725   2.796  1.00  0.00     0.011 C 
HETATM   14  O   UNL     1      44.419 -21.083   5.644  1.00  0.00    -0.385 OA
HETATM   15  C   UNL     1      43.859 -18.796   6.070  1.00  0.00     0.060 C 
HETATM   16  C   UNL     1      45.123 -22.053   4.862  1.00  0.00     0.168 C 
HETATM   17  C   UNL     1      44.572 -22.112   3.440  1.00  0.00     0.027 C 
HETATM   18  C   UNL     1      43.836 -17.387   5.505  1.00  0.00     0.237 C 
ENDBRANCH   7   8
ENDBRANCH   6   7
BRANCH   1  19
HETATM   19  C   UNL     1      40.860 -14.285   4.222  1.00  0.00    -0.002 A 
HETATM   20  C   UNL     1      42.168 -13.830   4.458  1.00  0.00     0.017 A 
HETATM   21  C   UNL     1      42.427 -12.857   5.427  1.00  0.00     0.040 A 
HETATM   22  C   UNL     1      41.378 -12.320   6.164  1.00  0.00     0.102 A 
HETATM   23  C   UNL     1      40.078 -12.789   5.962  1.00  0.00     0.103 A 
HETATM   24  O   UNL     1      41.699 -11.355   7.078  1.00  0.00    -0.346 OA
HETATM   25  C   UNL     1      39.819 -13.768   5.002  1.00  0.00     0.053 A 
HETATM   26  O   UNL     1      38.997 -12.322   6.665  1.00  0.00    -0.346 OA
HETATM   27  C   UNL     1      39.415 -11.655   7.867  1.00  0.00     0.202 C 
HETATM   28  C   UNL     1      40.539 -10.675   7.573  1.00  0.00     0.202 C 
ENDBRANCH   1  19
TORSDOF 3
ENDMDL
MODEL 4
REMARK VINA RESULT:      -8.0      2.235      5.026
REMARK  3 active torsions:
REMARK  status: ('A' for Active; 'I' for Inactive)
REMARK    1  A    between atoms: C_2  and  C_3 
REMARK    2  A    between atoms: C_8  and  C_9 
REMARK    3  A    between atoms: C_9  and  N_10 
ROOT
HETATM    1  C   UNL     1      43.229 -17.235   7.229  1.00  0.00     0.096 A 
HETATM    2  N   UNL     1      43.688 -17.283   8.487  1.00  0.00    -0.174 NA
HETATM    3  N   UNL     1      43.966 -18.568   8.718  1.00  0.00    -0.288 N 
HETATM    4  H   UNL     1      44.297 -18.832   9.643  1.00  0.00     0.188 HD
HETATM    5  C   UNL     1      43.775 -19.357   7.625  1.00  0.00     0.120 A 
HETATM    6  C   UNL     1      43.294 -18.533   6.623  1.00  0.00     0.016 A 
ENDROOT
BRANCH   6   7
HETATM    7  C   UNL     1      42.952 -18.953   5.241  1.00  0.00     0.277 C 
BRANCH   7   8
HETATM    8  N   UNL     1      44.010 -18.641   4.199  1.00  0.00    -0.067 N 
HETATM    9  H   UNL     1      44.904 -18.803   4.683  1.00  0.00     0.280 HD
HETATM   10  C   UNL     1      44.022 -17.186   3.782  1.00  0.00     0.242 C 
HETATM   11  C   UNL     1      42.835 -16.890   2.873  1.00  0.00     0.041 C 
HETATM   12  C   UNL     1      42.845 -17.817   1.655  1.00  0.00     0.128 C 
HETATM   13  C   UNL     1      42.809 -15.433   2.399  1.00  0.00     0.011 C 
HETATM   14  O   UNL     1      41.673 -17.587   0.875  1.00  0.00    -0.385 OA
HETATM   15  C   UNL     1      42.857 -19.282   2.080  1.00  0.00     0.060 C 
HETATM   16  C   UNL     1      41.633 -16.264   0.329  1.00  0.00     0.168 C 
HETATM   17  C   UNL     1      41.639 -15.217   1.439  1.00  0.00     0.027 C 
HETATM   18  C   UNL     1      44.021 -19.574   3.010  1.00  0.00     0.237 C 
ENDBRANCH   7   8
ENDBRANCH   6   7
BRANCH   1  19
HETATM   19  C   UNL     1      42.819 -15.950   6.652  1.00  0.00    -0.002 A 
HETATM   20  C   UNL     1      43.751 -14.904   6.558  1.00  0.00     0.017 A 
HETATM   21  C   UNL     1      43.401 -13.677   5.989  1.00  0.00     0.040 A 
HETATM   22  C   UNL     1      42.114 -13.486   5.497  1.00  0.00     0.102 A 
HETATM   23  C   UNL     1      41.168 -14.507   5.616  1.00  0.00     0.103 A 
HETATM   24  O   UNL     1      41.846 -12.270   4.931  1.00  0.00    -0.346 OA
HETATM   25  C   UNL     1      41.514 -15.729   6.194  1.00  0.00     0.053 A 
HETATM   26  O   UNL     1      39.877 -14.384   5.174  1.00  0.00    -0.346 OA
HETATM   27  C   UNL     1      39.525 -13.003   4.991  1.00  0.00     0.202 C 
HETATM   28  C   UNL     1      40.607 -12.273   4.212  1.00  0.00     0.202 C 
ENDBRANCH   1  19
TORSDOF 3
ENDMDL
MODEL 5
REMARK VINA RESULT:      -8.0      2.841      5.144
REMARK  3 active torsions:
REMARK  status: ('A' for Active; 'I' for Inactive)
REMARK    1  A    between atoms: C_2  and  C_3 
REMARK    2  A    between atoms: C_8  and  C_9 
REMARK    3  A    between atoms: C_9  and  N_10 
ROOT
HETATM    1  C   UNL     1      42.122 -16.737   1.509  1.00  0.00     0.096 A 
HETATM    2  N   UNL     1      41.262 -16.996   0.515  1.00  0.00    -0.174 NA
HETATM    3  N   UNL     1      40.750 -15.813   0.166  1.00  0.00    -0.288 N 
HETATM    4  H   UNL     1      40.037 -15.790  -0.558  1.00  0.00     0.188 HD
HETATM    5  C   UNL     1      41.305 -14.774   0.850  1.00  0.00     0.120 A 
HETATM    6  C   UNL     1      42.209 -15.325   1.739  1.00  0.00     0.016 A 
ENDROOT
BRANCH   6   7
HETATM    7  C   UNL     1      43.064 -14.570   2.691  1.00  0.00     0.277 C 
BRANCH   7   8
HETATM    8  N   UNL     1      42.323 -13.960   3.866  1.00  0.00    -0.067 N 
HETATM    9  H   UNL     1      42.171 -12.978   3.593  1.00  0.00     0.280 HD
HETATM   10  C   UNL     1      43.151 -13.915   5.132  1.00  0.00     0.242 C 
HETATM   11  C   UNL     1      43.259 -15.309   5.739  1.00  0.00     0.041 C 
HETATM   12  C   UNL     1      41.868 -15.889   6.006  1.00  0.00     0.128 C 
HETATM   13  C   UNL     1      44.070 -15.320   7.040  1.00  0.00     0.011 C 
HETATM   14  O   UNL     1      41.996 -17.228   6.480  1.00  0.00    -0.385 OA
HETATM   15  C   UNL     1      41.028 -15.909   4.733  1.00  0.00     0.060 C 
HETATM   16  C   UNL     1      42.671 -17.298   7.740  1.00  0.00     0.168 C 
HETATM   17  C   UNL     1      44.083 -16.729   7.634  1.00  0.00     0.027 C 
HETATM   18  C   UNL     1      40.944 -14.528   4.109  1.00  0.00     0.237 C 
ENDBRANCH   7   8
ENDBRANCH   6   7
BRANCH   1  19
HETATM   19  C   UNL     1      42.863 -17.837   2.135  1.00  0.00    -0.002 A 
HETATM   20  C   UNL     1      43.589 -17.600   3.314  1.00  0.00     0.017 A 
HETATM   21  C   UNL     1      44.283 -18.632   3.951  1.00  0.00     0.040 A 
HETATM   22  C   UNL     1      44.250 -19.917   3.421  1.00  0.00     0.102 A 
HETATM   23  C   UNL     1      43.560 -20.158   2.231  1.00  0.00     0.103 A 
HETATM   24  O   UNL     1      44.931 -20.884   4.108  1.00  0.00    -0.346 OA
HETATM   25  C   UNL     1      42.875 -19.126   1.588  1.00  0.00     0.053 A 
HETATM   26  O   UNL     1      43.501 -21.393   1.638  1.00  0.00    -0.346 OA
HETATM   27  C   UNL     1      44.543 -22.250   2.130  1.00  0.00     0.202 C 
HETATM   28  C   UNL     1      44.606 -22.201   3.648  1.00  0.00     0.202 C 
ENDBRANCH   1  19
TORSDOF 3
ENDMDL
MODEL 6
REMARK VINA RESULT:      -7.9      2.698      5.566
REMARK  3 active torsions:
REMARK  status: ('A' for Active; 'I' for Inactive)
REMARK    1  A    between atoms: C_2  and  C_3 
REMARK    2  A    between atoms: C_8  and  C_9 
REMARK    3  A    between atoms: C_9  and  N_10 
ROOT
HETATM    1  C   UNL     1      43.662 -18.030   6.752  1.00  0.00     0.096 A 
HETATM    2  N   UNL     1      43.621 -18.712   7.904  1.00  0.00    -0.174 NA
HETATM    3  N   UNL     1      43.615 -17.788   8.868  1.00  0.00    -0.288 N 
HETATM    4  H   UNL     1      43.624 -18.100   9.836  1.00  0.00     0.188 HD
HETATM    5  C   UNL     1      43.575 -16.516   8.383  1.00  0.00     0.120 A 
HETATM    6  C   UNL     1      43.602 -16.620   7.003  1.00  0.00     0.016 A 
ENDROOT
BRANCH   6   7
HETATM    7  C   UNL     1      43.563 -15.486   6.046  1.00  0.00     0.277 C 
BRANCH   7   8
HETATM    8  N   UNL     1      42.272 -14.687   6.056  1.00  0.00    -0.067 N 
HETATM    9  H   UNL     1      41.963 -14.710   7.038  1.00  0.00     0.280 HD
HETATM   10  C   UNL     1      41.165 -15.338   5.257  1.00  0.00     0.242 C 
HETATM   11  C   UNL     1      41.424 -15.172   3.764  1.00  0.00     0.041 C 
HETATM   12  C   UNL     1      41.570 -13.690   3.406  1.00  0.00     0.128 C 
HETATM   13  C   UNL     1      40.318 -15.793   2.904  1.00  0.00     0.011 C 
HETATM   14  O   UNL     1      41.910 -13.568   2.027  1.00  0.00    -0.385 OA
HETATM   15  C   UNL     1      42.671 -13.032   4.231  1.00  0.00     0.060 C 
HETATM   16  C   UNL     1      40.875 -14.054   1.165  1.00  0.00     0.168 C 
HETATM   17  C   UNL     1      40.599 -15.532   1.424  1.00  0.00     0.027 C 
HETATM   18  C   UNL     1      42.432 -13.223   5.718  1.00  0.00     0.237 C 
ENDBRANCH   7   8
ENDBRANCH   6   7
BRANCH   1  19
HETATM   19  C   UNL     1      43.687 -18.755   5.477  1.00  0.00    -0.002 A 
HETATM   20  C   UNL     1      43.082 -18.185   4.345  1.00  0.00     0.017 A 
HETATM   21  C   UNL     1      43.111 -18.837   3.109  1.00  0.00     0.040 A 
HETATM   22  C   UNL     1      43.756 -20.063   2.990  1.00  0.00     0.102 A 
HETATM   23  C   UNL     1      44.332 -20.655   4.116  1.00  0.00     0.103 A 
HETATM   24  O   UNL     1      43.768 -20.634   1.747  1.00  0.00    -0.346 OA
HETATM   25  C   UNL     1      44.294 -20.010   5.353  1.00  0.00     0.053 A 
HETATM   26  O   UNL     1      44.966 -21.870   4.079  1.00  0.00    -0.346 OA
HETATM   27  C   UNL     1      44.594 -22.610   2.906  1.00  0.00     0.202 C 
HETATM   28  C   UNL     1      44.684 -21.732   1.668  1.00  0.00     0.202 C 
ENDBRANCH   1  19
TORSDOF 3
ENDMDL
MODEL 7
REMARK VINA RESULT:      -7.7      2.834      6.310
REMARK  3 active torsions:
REMARK  status: ('A' for Active; 'I' for Inactive)
REMARK    1  A    between atoms: C_2  and  C_3 
REMARK    2  A    between atoms: C_8  and  C_9 
REMARK    3  A    between atoms: C_9  and  N_10 
ROOT
HETATM    1  C   UNL     1      43.569 -16.621   5.370  1.00  0.00     0.096 A 
HETATM    2  N   UNL     1      43.643 -16.828   6.691  1.00  0.00    -0.174 NA
HETATM    3  N   UNL     1      43.620 -15.613   7.246  1.00  0.00    -0.288 N 
HETATM    4  H   UNL     1      43.705 -15.542   8.257  1.00  0.00     0.188 HD
HETATM    5  C   UNL     1      43.457 -14.617   6.332  1.00  0.00     0.120 A 
HETATM    6  C   UNL     1      43.416 -15.223   5.090  1.00  0.00     0.016 A 
ENDROOT
BRANCH   6   7
HETATM    7  C   UNL     1      43.239 -14.530   3.789  1.00  0.00     0.277 C 
BRANCH   7   8
HETATM    8  N   UNL     1      41.826 -14.052   3.509  1.00  0.00    -0.067 N 
HETATM    9  H   UNL     1      41.363 -14.065   4.429  1.00  0.00     0.280 HD
HETATM   10  C   UNL     1      41.040 -15.003   2.634  1.00  0.00     0.242 C 
HETATM   11  C   UNL     1      41.513 -14.903   1.189  1.00  0.00     0.041 C 
HETATM   12  C   UNL     1      41.400 -13.461   0.684  1.00  0.00     0.128 C 
HETATM   13  C   UNL     1      40.732 -15.830   0.251  1.00  0.00     0.011 C 
HETATM   14  O   UNL     1      41.941 -13.377  -0.632  1.00  0.00    -0.385 OA
HETATM   15  C   UNL     1      42.174 -12.503   1.583  1.00  0.00     0.060 C 
HETATM   16  C   UNL     1      41.200 -14.156  -1.577  1.00  0.00     0.168 C 
HETATM   17  C   UNL     1      41.205 -15.632  -1.190  1.00  0.00     0.027 C 
HETATM   18  C   UNL     1      41.726 -12.622   3.028  1.00  0.00     0.237 C 
ENDBRANCH   7   8
ENDBRANCH   6   7
BRANCH   1  19
HETATM   19  C   UNL     1      43.579 -17.766   4.452  1.00  0.00    -0.002 A 
HETATM   20  C   UNL     1      42.904 -17.674   3.224  1.00  0.00     0.017 A 
HETATM   21  C   UNL     1      42.916 -18.736   2.316  1.00  0.00     0.040 A 
HETATM   22  C   UNL     1      43.614 -19.899   2.622  1.00  0.00     0.102 A 
HETATM   23  C   UNL     1      44.260 -20.015   3.855  1.00  0.00     0.103 A 
HETATM   24  O   UNL     1      43.604 -20.889   1.678  1.00  0.00    -0.346 OA
HETATM   25  C   UNL     1      44.240 -18.959   4.767  1.00  0.00     0.053 A 
HETATM   26  O   UNL     1      44.949 -21.138   4.235  1.00  0.00    -0.346 OA
HETATM   27  C   UNL     1      44.567 -22.270   3.438  1.00  0.00     0.202 C 
HETATM   28  C   UNL     1      44.568 -21.911   1.961  1.00  0.00     0.202 C 
ENDBRANCH   1  19
TORSDOF 3
ENDMDL
MODEL 8
REMARK VINA RESULT:      -7.6      3.189      7.213
REMARK  3 active torsions:
REMARK  status: ('A' for Active; 'I' for Inactive)
REMARK    1  A    between atoms: C_2  and  C_3 
REMARK    2  A    between atoms: C_8  and  C_9 
REMARK    3  A    between atoms: C_9  and  N_10 
ROOT
HETATM    1  C   UNL     1      41.128 -15.952   4.677  1.00  0.00     0.096 A 
HETATM    2  N   UNL     1      41.235 -15.763   5.999  1.00  0.00    -0.174 NA
HETATM    3  N   UNL     1      40.488 -14.690   6.270  1.00  0.00    -0.288 N 
HETATM    4  H   UNL     1      40.461 -14.349   7.228  1.00  0.00     0.188 HD
HETATM    5  C   UNL     1      39.831 -14.212   5.176  1.00  0.00     0.120 A 
HETATM    6  C   UNL     1      40.214 -15.004   4.109  1.00  0.00     0.016 A 
ENDROOT
BRANCH   6   7
HETATM    7  C   UNL     1      39.741 -14.864   2.709  1.00  0.00     0.277 C 
BRANCH   7   8
HETATM    8  N   UNL     1      40.292 -13.659   1.968  1.00  0.00    -0.067 N 
HETATM    9  H   UNL     1      40.443 -12.952   2.702  1.00  0.00     0.280 HD
HETATM   10  C   UNL     1      39.298 -13.050   1.003  1.00  0.00     0.242 C 
HETATM   11  C   UNL     1      39.159 -13.928  -0.235  1.00  0.00     0.041 C 
HETATM   12  C   UNL     1      40.522 -14.138  -0.900  1.00  0.00     0.128 C 
HETATM   13  C   UNL     1      38.180 -13.346  -1.260  1.00  0.00     0.011 C 
HETATM   14  O   UNL     1      40.381 -15.041  -1.995  1.00  0.00    -0.385 OA
HETATM   15  C   UNL     1      41.528 -14.729   0.082  1.00  0.00     0.060 C 
HETATM   16  C   UNL     1      39.543 -14.516  -3.030  1.00  0.00     0.168 C 
HETATM   17  C   UNL     1      38.139 -14.233  -2.504  1.00  0.00     0.027 C 
HETATM   18  C   UNL     1      41.645 -13.873   1.330  1.00  0.00     0.237 C 
ENDBRANCH   7   8
ENDBRANCH   6   7
BRANCH   1  19
HETATM   19  C   UNL     1      41.843 -17.062   4.040  1.00  0.00    -0.002 A 
HETATM   20  C   UNL     1      41.598 -17.360   2.689  1.00  0.00     0.017 A 
HETATM   21  C   UNL     1      42.282 -18.394   2.045  1.00  0.00     0.040 A 
HETATM   22  C   UNL     1      43.229 -19.136   2.743  1.00  0.00     0.102 A 
HETATM   23  C   UNL     1      43.456 -18.872   4.095  1.00  0.00     0.103 A 
HETATM   24  O   UNL     1      43.879 -20.117   2.045  1.00  0.00    -0.346 OA
HETATM   25  C   UNL     1      42.766 -17.846   4.743  1.00  0.00     0.053 A 
HETATM   26  O   UNL     1      44.358 -19.575   4.852  1.00  0.00    -0.346 OA
HETATM   27  C   UNL     1      44.688 -20.826   4.229  1.00  0.00     0.202 C 
HETATM   28  C   UNL     1      45.013 -20.623   2.758  1.00  0.00     0.202 C 
ENDBRANCH   1  19
TORSDOF 3
ENDMDL
MODEL 9
REMARK VINA RESULT:      -7.6      3.243      6.070
REMARK  3 active torsions:
REMARK  status: ('A' for Active; 'I' for Inactive)
REMARK    1  A    between atoms: C_2  and  C_3 
REMARK    2  A    between atoms: C_8  and  C_9 
REMARK    3  A    between atoms: C_9  and  N_10 
ROOT
HETATM    1  C   UNL     1      41.630 -13.256   2.652  1.00  0.00     0.096 A 
HETATM    2  N   UNL     1      41.462 -12.042   3.194  1.00  0.00    -0.174 NA
HETATM    3  N   UNL     1      42.111 -12.078   4.361  1.00  0.00    -0.288 N 
HETATM    4  H   UNL     1      42.076 -11.255   4.958  1.00  0.00     0.188 HD
HETATM    5  C   UNL     1      42.764 -13.254   4.568  1.00  0.00     0.120 A 
HETATM    6  C   UNL     1      42.483 -14.059   3.479  1.00  0.00     0.016 A 
ENDROOT
BRANCH   6   7
HETATM    7  C   UNL     1      42.991 -15.437   3.261  1.00  0.00     0.277 C 
BRANCH   7   8
HETATM    8  N   UNL     1      42.009 -16.541   3.610  1.00  0.00    -0.067 N 
HETATM    9  H   UNL     1      41.281 -16.071   4.167  1.00  0.00     0.280 HD
HETATM   10  C   UNL     1      42.603 -17.601   4.511  1.00  0.00     0.242 C 
HETATM   11  C   UNL     1      43.549 -18.496   3.719  1.00  0.00     0.041 C 
HETATM   12  C   UNL     1      42.823 -19.124   2.526  1.00  0.00     0.128 C 
HETATM   13  C   UNL     1      44.163 -19.606   4.578  1.00  0.00     0.011 C 
HETATM   14  O   UNL     1      43.752 -19.874   1.747  1.00  0.00    -0.385 OA
HETATM   15  C   UNL     1      42.205 -18.052   1.633  1.00  0.00     0.060 C 
HETATM   16  C   UNL     1      44.299 -20.983   2.470  1.00  0.00     0.168 C 
HETATM   17  C   UNL     1      45.044 -20.509   3.714  1.00  0.00     0.027 C 
HETATM   18  C   UNL     1      41.286 -17.140   2.426  1.00  0.00     0.237 C 
ENDBRANCH   7   8
ENDBRANCH   6   7
BRANCH   1  19
HETATM   19  C   UNL     1      41.029 -13.561   1.349  1.00  0.00    -0.002 A 
HETATM   20  C   UNL     1      39.677 -13.934   1.281  1.00  0.00     0.017 A 
HETATM   21  C   UNL     1      39.067 -14.205   0.053  1.00  0.00     0.040 A 
HETATM   22  C   UNL     1      39.802 -14.096  -1.123  1.00  0.00     0.102 A 
HETATM   23  C   UNL     1      41.156 -13.760  -1.064  1.00  0.00     0.103 A 
HETATM   24  O   UNL     1      39.137 -14.352  -2.290  1.00  0.00    -0.346 OA
HETATM   25  C   UNL     1      41.769 -13.499   0.162  1.00  0.00     0.053 A 
HETATM   26  O   UNL     1      41.948 -13.655  -2.178  1.00  0.00    -0.346 OA
HETATM   27  C   UNL     1      41.353 -14.327  -3.299  1.00  0.00     0.202 C 
HETATM   28  C   UNL     1      39.888 -13.943  -3.439  1.00  0.00     0.202 C 
ENDBRANCH   1  19
TORSDOF 3
ENDMDL
MODEL 10
REMARK VINA RESULT:      -7.5      3.247      5.143
REMARK  3 active torsions:
REMARK  status: ('A' for Active; 'I' for Inactive)
REMARK    1  A    between atoms: C_2  and  C_3 
REMARK    2  A    between atoms: C_8  and  C_9 
REMARK    3  A    between atoms: C_9  and  N_10 
ROOT
HETATM    1  C   UNL     1      41.236 -14.806   1.283  1.00  0.00     0.096 A 
HETATM    2  N   UNL     1      40.378 -14.322   0.376  1.00  0.00    -0.174 NA
HETATM    3  N   UNL     1      40.491 -15.123  -0.687  1.00  0.00    -0.288 N 
HETATM    4  H   UNL     1      39.942 -14.906  -1.516  1.00  0.00     0.188 HD
HETATM    5  C   UNL     1      41.343 -16.164  -0.478  1.00  0.00     0.120 A 
HETATM    6  C   UNL     1      41.856 -16.003   0.797  1.00  0.00     0.016 A 
ENDROOT
BRANCH   6   7
HETATM    7  C   UNL     1      42.823 -16.910   1.466  1.00  0.00     0.277 C 
BRANCH   7   8
HETATM    8  N   UNL     1      42.193 -18.029   2.275  1.00  0.00    -0.067 N 
HETATM    9  H   UNL     1      41.454 -18.405   1.664  1.00  0.00     0.280 HD
HETATM   10  C   UNL     1      41.491 -17.536   3.522  1.00  0.00     0.242 C 
HETATM   11  C   UNL     1      42.513 -17.149   4.584  1.00  0.00     0.041 C 
HETATM   12  C   UNL     1      43.437 -18.329   4.896  1.00  0.00     0.128 C 
HETATM   13  C   UNL     1      41.855 -16.665   5.881  1.00  0.00     0.011 C 
HETATM   14  O   UNL     1      44.443 -17.912   5.817  1.00  0.00    -0.385 OA
HETATM   15  C   UNL     1      44.124 -18.838   3.633  1.00  0.00     0.060 C 
HETATM   16  C   UNL     1      43.897 -17.527   7.083  1.00  0.00     0.168 C 
HETATM   17  C   UNL     1      42.928 -16.359   6.927  1.00  0.00     0.027 C 
HETATM   18  C   UNL     1      43.110 -19.195   2.562  1.00  0.00     0.237 C 
ENDBRANCH   7   8
ENDBRANCH   6   7
BRANCH   1  19
HETATM   19  C   UNL     1      41.369 -14.144   2.586  1.00  0.00    -0.002 A 
HETATM   20  C   UNL     1      42.646 -13.823   3.073  1.00  0.00     0.017 A 
HETATM   21  C   UNL     1      42.806 -13.168   4.297  1.00  0.00     0.040 A 
HETATM   22  C   UNL     1      41.687 -12.817   5.043  1.00  0.00     0.102 A 
HETATM   23  C   UNL     1      40.413 -13.161   4.586  1.00  0.00     0.103 A 
HETATM   24  O   UNL     1      41.914 -12.157   6.219  1.00  0.00    -0.346 OA
HETATM   25  C   UNL     1      40.253 -13.824   3.368  1.00  0.00     0.053 A 
HETATM   26  O   UNL     1      39.266 -12.867   5.277  1.00  0.00    -0.346 OA
HETATM   27  C   UNL     1      39.555 -12.576   6.654  1.00  0.00     0.202 C 
HETATM   28  C   UNL     1      40.713 -11.597   6.763  1.00  0.00     0.202 C 
ENDBRANCH   1  19
TORSDOF 3
ENDMDL
