MODEL 1
REMARK VINA RESULT:     -10.5      0.000      0.000
REMARK  6 active torsions:
REMARK  status: ('A' for Active; 'I' for Inactive)
REMARK    1  A    between atoms: C_4  and  C_5 
REMARK    2  A    between atoms: C_5  and  N_6 
REMARK    3  A    between atoms: C_14  and  C_15 
REMARK    4  A    between atoms: C_18  and  O_19 
REMARK    5  A    between atoms: O_19  and  C_20 
REMARK    6  A    between atoms: C_20  and  C_21 
ROOT
HETATM    1  N   UNL     1      43.263 -18.005   2.352  1.00  0.00    -0.063 N 
HETATM    2  H   UNL     1      42.364 -18.113   1.868  1.00  0.00     0.280 HD
HETATM    3  C   UNL     1      42.918 -18.048   3.834  1.00  0.00     0.282 C 
HETATM    4  C   UNL     1      42.056 -16.879   4.177  1.00  0.00     0.018 A 
HETATM    5  C   UNL     1      41.942 -15.732   3.411  1.00  0.00    -0.023 A 
HETATM    6  C   UNL     1      41.010 -14.815   3.995  1.00  0.00     0.073 A 
HETATM    7  C   UNL     1      40.499 -15.290   5.180  1.00  0.00     0.088 A 
HETATM    8  N   UNL     1      39.599 -14.619   5.922  1.00  0.00    -0.358 N 
HETATM    9  C   UNL     1      39.301 -13.232   5.632  1.00  0.00     0.219 C 
HETATM   10  N   UNL     1      39.650 -12.880   4.279  1.00  0.00    -0.332 N 
HETATM   11  C   UNL     1      40.564 -13.528   3.500  1.00  0.00     0.256 C 
HETATM   12  O   UNL     1      40.960 -13.057   2.439  1.00  0.00    -0.267 OA
HETATM   13  S   UNL     1      41.117 -16.821   5.592  1.00  0.00    -0.074 SA
HETATM   14  C   UNL     1      42.687 -15.566   2.119  1.00  0.00     0.068 C 
HETATM   15  C   UNL     1      43.790 -16.631   1.954  1.00  0.00     0.240 C 
HETATM   16  H   UNL     1      39.405 -14.907   6.877  1.00  0.00     0.162 HD
HETATM   17  H   UNL     1      39.391 -11.959   3.955  1.00  0.00     0.165 HD
ENDROOT
BRANCH   9  18
HETATM   18  C   UNL     1      39.952 -12.310   6.644  1.00  0.00    -0.016 A 
HETATM   19  C   UNL     1      39.283 -11.883   7.804  1.00  0.00     0.014 A 
HETATM   20  C   UNL     1      39.914 -11.055   8.740  1.00  0.00     0.037 A 
HETATM   21  C   UNL     1      41.228 -10.639   8.532  1.00  0.00     0.069 A 
HETATM   22  C   UNL     1      41.892 -11.033   7.372  1.00  0.00     0.037 A 
HETATM   23  C   UNL     1      41.265 -11.861   6.435  1.00  0.00     0.014 A 
BRANCH  21  24
HETATM   24  O   UNL     1      41.965  -9.850   9.370  1.00  0.00    -0.347 OA
BRANCH  24  25
HETATM   25  C   UNL     1      43.032 -10.474  10.079  1.00  0.00     0.214 C 
BRANCH  25  26
HETATM   26  C   UNL     1      42.752 -10.354  11.557  1.00  0.00    -0.034 A 
HETATM   27  C   UNL     1      41.633 -10.985  12.120  1.00  0.00     0.009 A 
HETATM   28  C   UNL     1      41.368 -10.869  13.486  1.00  0.00     0.001 A 
HETATM   29  C   UNL     1      42.214 -10.118  14.300  1.00  0.00     0.000 A 
HETATM   30  C   UNL     1      43.323  -9.479  13.750  1.00  0.00     0.001 A 
HETATM   31  C   UNL     1      43.591  -9.594  12.385  1.00  0.00     0.009 A 
ENDBRANCH  25  26
ENDBRANCH  24  25
ENDBRANCH  21  24
ENDBRANCH   9  18
BRANCH   1  32
HETATM   32  C   UNL     1      44.108 -19.162   1.890  1.00  0.00     0.273 C 
BRANCH  32  33
HETATM   33  C   UNL     1      44.364 -20.237   2.910  1.00  0.00    -0.033 A 
HETATM   34  C   UNL     1      44.268 -21.593   2.553  1.00  0.00     0.009 A 
HETATM   35  C   UNL     1      44.485 -22.592   3.501  1.00  0.00     0.001 A 
HETATM   36  C   UNL     1      44.806 -22.252   4.812  1.00  0.00     0.000 A 
HETATM   37  C   UNL     1      44.917 -20.914   5.177  1.00  0.00     0.001 A 
HETATM   38  C   UNL     1      44.700 -19.909   4.232  1.00  0.00     0.009 A 
ENDBRANCH  32  33
ENDBRANCH   1  32
TORSDOF 6
ENDMDL
MODEL 2
REMARK VINA RESULT:     -10.2      1.081      1.678
REMARK  6 active torsions:
REMARK  status: ('A' for Active; 'I' for Inactive)
REMARK    1  A    between atoms: C_4  and  C_5 
REMARK    2  A    between atoms: C_5  and  N_6 
REMARK    3  A    between atoms: C_14  and  C_15 
REMARK    4  A    between atoms: C_18  and  O_19 
REMARK    5  A    between atoms: O_19  and  C_20 
REMARK    6  A    between atoms: C_20  and  C_21 
ROOT
HETATM    1  N   UNL     1      43.334 -17.560   2.517  1.00  0.00    -0.063 N 
HETATM    2  H   UNL     1      42.399 -17.762   2.144  1.00  0.00     0.280 HD
HETATM    3  C   UNL     1      43.165 -17.575   4.030  1.00  0.00     0.282 C 
HETATM    4  C   UNL     1      42.249 -16.471   4.437  1.00  0.00     0.018 A 
HETATM    5  C   UNL     1      41.947 -15.368   3.658  1.00  0.00    -0.023 A 
HETATM    6  C   UNL     1      41.010 -14.511   4.321  1.00  0.00     0.073 A 
HETATM    7  C   UNL     1      40.681 -14.982   5.570  1.00  0.00     0.088 A 
HETATM    8  N   UNL     1      39.816 -14.360   6.393  1.00  0.00    -0.358 N 
HETATM    9  C   UNL     1      39.366 -13.016   6.101  1.00  0.00     0.219 C 
HETATM   10  N   UNL     1      39.527 -12.688   4.706  1.00  0.00    -0.332 N 
HETATM   11  C   UNL     1      40.399 -13.286   3.845  1.00  0.00     0.256 C 
HETATM   12  O   UNL     1      40.629 -12.824   2.732  1.00  0.00    -0.267 OA
HETATM   13  S   UNL     1      41.475 -16.438   5.951  1.00  0.00    -0.074 SA
HETATM   14  C   UNL     1      42.523 -15.189   2.284  1.00  0.00     0.068 C 
HETATM   15  C   UNL     1      43.690 -16.163   2.021  1.00  0.00     0.240 C 
HETATM   16  H   UNL     1      39.758 -14.628   7.372  1.00  0.00     0.162 HD
HETATM   17  H   UNL     1      39.152 -11.805   4.389  1.00  0.00     0.165 HD
ENDROOT
BRANCH   9  18
HETATM   18  C   UNL     1      40.044 -12.005   7.003  1.00  0.00    -0.016 A 
HETATM   19  C   UNL     1      41.304 -11.461   6.701  1.00  0.00     0.014 A 
HETATM   20  C   UNL     1      41.899 -10.505   7.534  1.00  0.00     0.037 A 
HETATM   21  C   UNL     1      41.242 -10.075   8.685  1.00  0.00     0.069 A 
HETATM   22  C   UNL     1      40.003 -10.628   9.009  1.00  0.00     0.037 A 
HETATM   23  C   UNL     1      39.407 -11.581   8.180  1.00  0.00     0.014 A 
BRANCH  21  24
HETATM   24  O   UNL     1      41.697  -9.139   9.571  1.00  0.00    -0.347 OA
BRANCH  24  25
HETATM   25  C   UNL     1      41.912  -9.566  10.914  1.00  0.00     0.214 C 
BRANCH  25  26
HETATM   26  C   UNL     1      43.101 -10.495  10.932  1.00  0.00    -0.034 A 
HETATM   27  C   UNL     1      43.022 -11.735  11.582  1.00  0.00     0.009 A 
HETATM   28  C   UNL     1      44.123 -12.593  11.606  1.00  0.00     0.001 A 
HETATM   29  C   UNL     1      45.314 -12.218  10.985  1.00  0.00     0.000 A 
HETATM   30  C   UNL     1      45.406 -10.984  10.345  1.00  0.00     0.001 A 
HETATM   31  C   UNL     1      44.307 -10.125  10.319  1.00  0.00     0.009 A 
ENDBRANCH  25  26
ENDBRANCH  24  25
ENDBRANCH  21  24
ENDBRANCH   9  18
BRANCH   1  32
HETATM   32  C   UNL     1      44.219 -18.659   1.992  1.00  0.00     0.273 C 
BRANCH  32  33
HETATM   33  C   UNL     1      44.379 -19.857   2.886  1.00  0.00    -0.033 A 
HETATM   34  C   UNL     1      44.233 -21.155   2.368  1.00  0.00     0.009 A 
HETATM   35  C   UNL     1      44.360 -22.268   3.198  1.00  0.00     0.001 A 
HETATM   36  C   UNL     1      44.641 -22.101   4.552  1.00  0.00     0.000 A 
HETATM   37  C   UNL     1      44.801 -20.822   5.076  1.00  0.00     0.001 A 
HETATM   38  C   UNL     1      44.673 -19.704   4.250  1.00  0.00     0.009 A 
ENDBRANCH  32  33
ENDBRANCH   1  32
TORSDOF 6
ENDMDL
MODEL 3
REMARK VINA RESULT:     -10.0      1.750      2.254
REMARK  6 active torsions:
REMARK  status: ('A' for Active; 'I' for Inactive)
REMARK    1  A    between atoms: C_4  and  C_5 
REMARK    2  A    between atoms: C_5  and  N_6 
REMARK    3  A    between atoms: C_14  and  C_15 
REMARK    4  A    between atoms: C_18  and  O_19 
REMARK    5  A    between atoms: O_19  and  C_20 
REMARK    6  A    between atoms: C_20  and  C_21 
ROOT
HETATM    1  N   UNL     1      43.833 -18.305   5.655  1.00  0.00    -0.063 N 
HETATM    2  H   UNL     1      43.555 -18.267   4.667  1.00  0.00     0.280 HD
HETATM    3  C   UNL     1      42.535 -18.143   6.434  1.00  0.00     0.282 C 
HETATM    4  C   UNL     1      41.958 -16.796   6.161  1.00  0.00     0.018 A 
HETATM    5  C   UNL     1      42.666 -15.723   5.648  1.00  0.00    -0.023 A 
HETATM    6  C   UNL     1      41.816 -14.584   5.471  1.00  0.00     0.073 A 
HETATM    7  C   UNL     1      40.530 -14.835   5.886  1.00  0.00     0.088 A 
HETATM    8  N   UNL     1      39.538 -13.928   5.819  1.00  0.00    -0.358 N 
HETATM    9  C   UNL     1      39.833 -12.542   5.528  1.00  0.00     0.219 C 
HETATM   10  N   UNL     1      41.106 -12.391   4.868  1.00  0.00    -0.332 N 
HETATM   11  C   UNL     1      42.138 -13.282   4.922  1.00  0.00     0.256 C 
HETATM   12  O   UNL     1      43.258 -13.000   4.510  1.00  0.00    -0.267 OA
HETATM   13  S   UNL     1      40.331 -16.418   6.478  1.00  0.00    -0.074 SA
HETATM   14  C   UNL     1      44.121 -15.831   5.298  1.00  0.00     0.068 C 
HETATM   15  C   UNL     1      44.755 -17.112   5.877  1.00  0.00     0.240 C 
HETATM   16  H   UNL     1      38.666 -14.084   6.318  1.00  0.00     0.162 HD
HETATM   17  H   UNL     1      41.355 -11.470   4.540  1.00  0.00     0.165 HD
ENDROOT
BRANCH   9  18
HETATM   18  C   UNL     1      39.738 -11.689   6.777  1.00  0.00    -0.016 A 
HETATM   19  C   UNL     1      39.244 -12.195   7.991  1.00  0.00     0.014 A 
HETATM   20  C   UNL     1      39.192 -11.397   9.141  1.00  0.00     0.037 A 
HETATM   21  C   UNL     1      39.635 -10.076   9.096  1.00  0.00     0.069 A 
HETATM   22  C   UNL     1      40.102  -9.555   7.890  1.00  0.00     0.037 A 
HETATM   23  C   UNL     1      40.156 -10.349   6.741  1.00  0.00     0.014 A 
BRANCH  21  24
HETATM   24  O   UNL     1      39.658  -9.198  10.143  1.00  0.00    -0.347 OA
BRANCH  24  25
HETATM   25  C   UNL     1      40.877  -8.494  10.374  1.00  0.00     0.214 C 
BRANCH  25  26
HETATM   26  C   UNL     1      41.525  -9.065  11.612  1.00  0.00    -0.034 A 
HETATM   27  C   UNL     1      42.897  -9.357  11.623  1.00  0.00     0.009 A 
HETATM   28  C   UNL     1      43.498  -9.892  12.763  1.00  0.00     0.001 A 
HETATM   29  C   UNL     1      42.733 -10.146  13.901  1.00  0.00     0.000 A 
HETATM   30  C   UNL     1      41.367  -9.870  13.898  1.00  0.00     0.001 A 
HETATM   31  C   UNL     1      40.764  -9.334  12.759  1.00  0.00     0.009 A 
ENDBRANCH  25  26
ENDBRANCH  24  25
ENDBRANCH  21  24
ENDBRANCH   9  18
BRANCH   1  32
HETATM   32  C   UNL     1      44.487 -19.649   5.834  1.00  0.00     0.273 C 
BRANCH  32  33
HETATM   33  C   UNL     1      44.494 -20.543   4.625  1.00  0.00    -0.033 A 
HETATM   34  C   UNL     1      44.190 -20.022   3.356  1.00  0.00     0.009 A 
HETATM   35  C   UNL     1      44.175 -20.851   2.234  1.00  0.00     0.001 A 
HETATM   36  C   UNL     1      44.469 -22.206   2.364  1.00  0.00     0.000 A 
HETATM   37  C   UNL     1      44.785 -22.733   3.614  1.00  0.00     0.001 A 
HETATM   38  C   UNL     1      44.800 -21.907   4.740  1.00  0.00     0.009 A 
ENDBRANCH  32  33
ENDBRANCH   1  32
TORSDOF 6
ENDMDL
MODEL 4
REMARK VINA RESULT:     -10.0      4.657      9.414
REMARK  6 active torsions:
REMARK  status: ('A' for Active; 'I' for Inactive)
REMARK    1  A    between atoms: C_4  and  C_5 
REMARK    2  A    between atoms: C_5  and  N_6 
REMARK    3  A    between atoms: C_14  and  C_15 
REMARK    4  A    between atoms: C_18  and  O_19 
REMARK    5  A    between atoms: O_19  and  C_20 
REMARK    6  A    between atoms: C_20  and  C_21 
ROOT
HETATM    1  N   UNL     1      40.190 -12.535  -1.180  1.00  0.00    -0.063 N 
HETATM    2  H   UNL     1      39.742 -11.773  -0.658  1.00  0.00     0.280 HD
HETATM    3  C   UNL     1      39.543 -13.807  -0.652  1.00  0.00     0.282 C 
HETATM    4  C   UNL     1      39.876 -13.970   0.793  1.00  0.00     0.018 A 
HETATM    5  C   UNL     1      40.924 -13.336   1.437  1.00  0.00    -0.023 A 
HETATM    6  C   UNL     1      40.953 -13.676   2.828  1.00  0.00     0.073 A 
HETATM    7  C   UNL     1      39.961 -14.569   3.157  1.00  0.00     0.088 A 
HETATM    8  N   UNL     1      39.772 -15.041   4.403  1.00  0.00    -0.358 N 
HETATM    9  C   UNL     1      40.769 -14.819   5.429  1.00  0.00     0.219 C 
HETATM   10  N   UNL     1      41.623 -13.702   5.113  1.00  0.00    -0.332 N 
HETATM   11  C   UNL     1      41.849 -13.202   3.864  1.00  0.00     0.256 C 
HETATM   12  O   UNL     1      42.738 -12.387   3.644  1.00  0.00    -0.267 OA
HETATM   13  S   UNL     1      38.995 -14.996   1.823  1.00  0.00    -0.074 SA
HETATM   14  C   UNL     1      41.837 -12.387   0.717  1.00  0.00     0.068 C 
HETATM   15  C   UNL     1      41.668 -12.481  -0.814  1.00  0.00     0.240 C 
HETATM   16  H   UNL     1      39.167 -15.842   4.561  1.00  0.00     0.162 HD
HETATM   17  H   UNL     1      42.288 -13.411   5.815  1.00  0.00     0.165 HD
ENDROOT
BRANCH   9  18
HETATM   18  C   UNL     1      41.563 -16.081   5.701  1.00  0.00    -0.016 A 
HETATM   19  C   UNL     1      41.120 -17.347   5.282  1.00  0.00     0.014 A 
HETATM   20  C   UNL     1      41.885 -18.496   5.518  1.00  0.00     0.037 A 
HETATM   21  C   UNL     1      43.109 -18.399   6.178  1.00  0.00     0.069 A 
HETATM   22  C   UNL     1      43.546 -17.151   6.622  1.00  0.00     0.037 A 
HETATM   23  C   UNL     1      42.785 -16.002   6.387  1.00  0.00     0.014 A 
BRANCH  21  24
HETATM   24  O   UNL     1      43.960 -19.431   6.455  1.00  0.00    -0.347 OA
BRANCH  24  25
HETATM   25  C   UNL     1      45.121 -19.554   5.638  1.00  0.00     0.214 C 
BRANCH  25  26
HETATM   26  C   UNL     1      44.772 -20.408   4.444  1.00  0.00    -0.034 A 
HETATM   27  C   UNL     1      44.898 -21.803   4.509  1.00  0.00     0.009 A 
HETATM   28  C   UNL     1      44.582 -22.595   3.404  1.00  0.00     0.001 A 
HETATM   29  C   UNL     1      44.144 -22.000   2.221  1.00  0.00     0.000 A 
HETATM   30  C   UNL     1      44.025 -20.615   2.142  1.00  0.00     0.001 A 
HETATM   31  C   UNL     1      44.340 -19.821   3.246  1.00  0.00     0.009 A 
ENDBRANCH  25  26
ENDBRANCH  24  25
ENDBRANCH  21  24
ENDBRANCH   9  18
BRANCH   1  32
HETATM   32  C   UNL     1      39.890 -12.255  -2.629  1.00  0.00     0.273 C 
BRANCH  32  33
HETATM   33  C   UNL     1      38.792 -13.078  -3.243  1.00  0.00    -0.033 A 
HETATM   34  C   UNL     1      37.547 -12.496  -3.537  1.00  0.00     0.009 A 
HETATM   35  C   UNL     1      36.519 -13.260  -4.087  1.00  0.00     0.001 A 
HETATM   36  C   UNL     1      36.721 -14.611  -4.357  1.00  0.00     0.000 A 
HETATM   37  C   UNL     1      37.954 -15.198  -4.084  1.00  0.00     0.001 A 
HETATM   38  C   UNL     1      38.986 -14.438  -3.532  1.00  0.00     0.009 A 
ENDBRANCH  32  33
ENDBRANCH   1  32
TORSDOF 6
ENDMDL
MODEL 5
REMARK VINA RESULT:      -9.9      4.671      9.691
REMARK  6 active torsions:
REMARK  status: ('A' for Active; 'I' for Inactive)
REMARK    1  A    between atoms: C_4  and  C_5 
REMARK    2  A    between atoms: C_5  and  N_6 
REMARK    3  A    between atoms: C_14  and  C_15 
REMARK    4  A    between atoms: C_18  and  O_19 
REMARK    5  A    between atoms: O_19  and  C_20 
REMARK    6  A    between atoms: C_20  and  C_21 
ROOT
HETATM    1  N   UNL     1      40.147 -12.522  -1.223  1.00  0.00    -0.063 N 
HETATM    2  H   UNL     1      39.677 -11.773  -0.699  1.00  0.00     0.280 HD
HETATM    3  C   UNL     1      39.530 -13.812  -0.702  1.00  0.00     0.282 C 
HETATM    4  C   UNL     1      39.861 -13.972   0.744  1.00  0.00     0.018 A 
HETATM    5  C   UNL     1      40.890 -13.314   1.395  1.00  0.00    -0.023 A 
HETATM    6  C   UNL     1      40.922 -13.658   2.785  1.00  0.00     0.073 A 
HETATM    7  C   UNL     1      39.952 -14.577   3.107  1.00  0.00     0.088 A 
HETATM    8  N   UNL     1      39.769 -15.058   4.350  1.00  0.00    -0.358 N 
HETATM    9  C   UNL     1      40.756 -14.815   5.380  1.00  0.00     0.219 C 
HETATM   10  N   UNL     1      41.583 -13.675   5.073  1.00  0.00    -0.332 N 
HETATM   11  C   UNL     1      41.801 -13.166   3.826  1.00  0.00     0.256 C 
HETATM   12  O   UNL     1      42.671 -12.327   3.613  1.00  0.00    -0.267 OA
HETATM   13  S   UNL     1      39.002 -15.023   1.767  1.00  0.00    -0.074 SA
HETATM   14  C   UNL     1      41.781 -12.339   0.682  1.00  0.00     0.068 C 
HETATM   15  C   UNL     1      41.622 -12.432  -0.849  1.00  0.00     0.240 C 
HETATM   16  H   UNL     1      39.184 -15.875   4.502  1.00  0.00     0.162 HD
HETATM   17  H   UNL     1      42.238 -13.370   5.778  1.00  0.00     0.165 HD
ENDROOT
BRANCH   9  18
HETATM   18  C   UNL     1      41.581 -16.057   5.651  1.00  0.00    -0.016 A 
HETATM   19  C   UNL     1      41.140 -17.340   5.287  1.00  0.00     0.014 A 
HETATM   20  C   UNL     1      41.932 -18.472   5.520  1.00  0.00     0.037 A 
HETATM   21  C   UNL     1      43.182 -18.338   6.123  1.00  0.00     0.069 A 
HETATM   22  C   UNL     1      43.618 -17.073   6.514  1.00  0.00     0.037 A 
HETATM   23  C   UNL     1      42.830 -15.942   6.282  1.00  0.00     0.014 A 
BRANCH  21  24
HETATM   24  O   UNL     1      44.060 -19.351   6.390  1.00  0.00    -0.347 OA
BRANCH  24  25
HETATM   25  C   UNL     1      45.181 -19.486   5.520  1.00  0.00     0.214 C 
BRANCH  25  26
HETATM   26  C   UNL     1      44.761 -20.318   4.333  1.00  0.00    -0.034 A 
HETATM   27  C   UNL     1      44.873 -21.716   4.373  1.00  0.00     0.009 A 
HETATM   28  C   UNL     1      44.493 -22.488   3.274  1.00  0.00     0.001 A 
HETATM   29  C   UNL     1      44.003 -21.871   2.123  1.00  0.00     0.000 A 
HETATM   30  C   UNL     1      43.898 -20.483   2.069  1.00  0.00     0.001 A 
HETATM   31  C   UNL     1      44.277 -19.709   3.167  1.00  0.00     0.009 A 
ENDBRANCH  25  26
ENDBRANCH  24  25
ENDBRANCH  21  24
ENDBRANCH   9  18
BRANCH   1  32
HETATM   32  C   UNL     1      39.846 -12.245  -2.672  1.00  0.00     0.273 C 
BRANCH  32  33
HETATM   33  C   UNL     1      40.688 -11.184  -3.326  1.00  0.00    -0.033 A 
HETATM   34  C   UNL     1      41.691 -11.539  -4.243  1.00  0.00     0.009 A 
HETATM   35  C   UNL     1      42.488 -10.560  -4.836  1.00  0.00     0.001 A 
HETATM   36  C   UNL     1      42.290  -9.217  -4.527  1.00  0.00     0.000 A 
HETATM   37  C   UNL     1      41.290  -8.850  -3.630  1.00  0.00     0.001 A 
HETATM   38  C   UNL     1      40.491  -9.826  -3.033  1.00  0.00     0.009 A 
ENDBRANCH  32  33
ENDBRANCH   1  32
TORSDOF 6
ENDMDL
MODEL 6
REMARK VINA RESULT:      -9.8      3.856      6.313
REMARK  6 active torsions:
REMARK  status: ('A' for Active; 'I' for Inactive)
REMARK    1  A    between atoms: C_4  and  C_5 
REMARK    2  A    between atoms: C_5  and  N_6 
REMARK    3  A    between atoms: C_14  and  C_15 
REMARK    4  A    between atoms: C_18  and  O_19 
REMARK    5  A    between atoms: O_19  and  C_20 
REMARK    6  A    between atoms: C_20  and  C_21 
ROOT
HETATM    1  N   UNL     1      43.380 -17.674   2.891  1.00  0.00    -0.063 N 
HETATM    2  H   UNL     1      43.817 -17.702   3.820  1.00  0.00     0.280 HD
HETATM    3  C   UNL     1      43.626 -16.260   2.383  1.00  0.00     0.282 C 
HETATM    4  C   UNL     1      42.918 -15.287   3.264  1.00  0.00     0.018 A 
HETATM    5  C   UNL     1      41.879 -15.608   4.120  1.00  0.00    -0.023 A 
HETATM    6  C   UNL     1      41.441 -14.457   4.851  1.00  0.00     0.073 A 
HETATM    7  C   UNL     1      42.136 -13.327   4.490  1.00  0.00     0.088 A 
HETATM    8  N   UNL     1      41.917 -12.116   5.035  1.00  0.00    -0.358 N 
HETATM    9  C   UNL     1      40.754 -11.887   5.867  1.00  0.00     0.219 C 
HETATM   10  N   UNL     1      40.229 -13.117   6.403  1.00  0.00    -0.332 N 
HETATM   11  C   UNL     1      40.419 -14.360   5.874  1.00  0.00     0.256 C 
HETATM   12  O   UNL     1      39.780 -15.333   6.260  1.00  0.00    -0.267 OA
HETATM   13  S   UNL     1      43.308 -13.632   3.295  1.00  0.00    -0.074 SA
HETATM   14  C   UNL     1      41.368 -17.012   4.251  1.00  0.00     0.068 C 
HETATM   15  C   UNL     1      41.893 -17.920   3.119  1.00  0.00     0.240 C 
HETATM   16  H   UNL     1      42.304 -11.281   4.602  1.00  0.00     0.162 HD
HETATM   17  H   UNL     1      39.475 -13.050   7.072  1.00  0.00     0.165 HD
ENDROOT
BRANCH   9  18
HETATM   18  C   UNL     1      39.697 -11.096   5.123  1.00  0.00    -0.016 A 
HETATM   19  C   UNL     1      39.305  -9.809   5.528  1.00  0.00     0.014 A 
HETATM   20  C   UNL     1      38.347  -9.083   4.808  1.00  0.00     0.037 A 
HETATM   21  C   UNL     1      37.764  -9.634   3.669  1.00  0.00     0.069 A 
HETATM   22  C   UNL     1      38.125 -10.922   3.273  1.00  0.00     0.037 A 
HETATM   23  C   UNL     1      39.082 -11.648   3.989  1.00  0.00     0.014 A 
BRANCH  21  24
HETATM   24  O   UNL     1      36.836  -9.032   2.867  1.00  0.00    -0.347 OA
BRANCH  24  25
HETATM   25  C   UNL     1      35.967  -8.081   3.479  1.00  0.00     0.214 C 
BRANCH  25  26
HETATM   26  C   UNL     1      34.655  -8.764   3.780  1.00  0.00    -0.034 A 
HETATM   27  C   UNL     1      33.911  -9.355   2.748  1.00  0.00     0.009 A 
HETATM   28  C   UNL     1      32.694  -9.980   3.022  1.00  0.00     0.001 A 
HETATM   29  C   UNL     1      32.206 -10.016   4.328  1.00  0.00     0.000 A 
HETATM   30  C   UNL     1      32.931  -9.422   5.358  1.00  0.00     0.001 A 
HETATM   31  C   UNL     1      34.149  -8.797   5.087  1.00  0.00     0.009 A 
ENDBRANCH  25  26
ENDBRANCH  24  25
ENDBRANCH  21  24
ENDBRANCH   9  18
BRANCH   1  32
HETATM   32  C   UNL     1      44.078 -18.739   2.088  1.00  0.00     0.273 C 
BRANCH  32  33
HETATM   33  C   UNL     1      44.309 -20.047   2.794  1.00  0.00    -0.033 A 
HETATM   34  C   UNL     1      44.646 -20.068   4.158  1.00  0.00     0.009 A 
HETATM   35  C   UNL     1      44.881 -21.278   4.811  1.00  0.00     0.001 A 
HETATM   36  C   UNL     1      44.775 -22.479   4.115  1.00  0.00     0.000 A 
HETATM   37  C   UNL     1      44.429 -22.474   2.766  1.00  0.00     0.001 A 
HETATM   38  C   UNL     1      44.194 -21.265   2.107  1.00  0.00     0.009 A 
ENDBRANCH  32  33
ENDBRANCH   1  32
TORSDOF 6
ENDMDL
MODEL 7
REMARK VINA RESULT:      -9.8      5.075     10.259
REMARK  6 active torsions:
REMARK  status: ('A' for Active; 'I' for Inactive)
REMARK    1  A    between atoms: C_4  and  C_5 
REMARK    2  A    between atoms: C_5  and  N_6 
REMARK    3  A    between atoms: C_14  and  C_15 
REMARK    4  A    between atoms: C_18  and  O_19 
REMARK    5  A    between atoms: O_19  and  C_20 
REMARK    6  A    between atoms: C_20  and  C_21 
ROOT
HETATM    1  N   UNL     1      38.636 -12.877  -2.609  1.00  0.00    -0.063 N 
HETATM    2  H   UNL     1      38.481 -11.936  -2.227  1.00  0.00     0.280 HD
HETATM    3  C   UNL     1      38.033 -13.822  -1.580  1.00  0.00     0.282 C 
HETATM    4  C   UNL     1      38.787 -13.706  -0.298  1.00  0.00     0.018 A 
HETATM    5  C   UNL     1      40.059 -13.174  -0.176  1.00  0.00    -0.023 A 
HETATM    6  C   UNL     1      40.488 -13.174   1.190  1.00  0.00     0.073 A 
HETATM    7  C   UNL     1      39.546 -13.733   2.022  1.00  0.00     0.088 A 
HETATM    8  N   UNL     1      39.706 -13.847   3.353  1.00  0.00    -0.358 N 
HETATM    9  C   UNL     1      40.999 -13.605   3.957  1.00  0.00     0.219 C 
HETATM   10  N   UNL     1      41.845 -12.800   3.112  1.00  0.00    -0.332 N 
HETATM   11  C   UNL     1      41.721 -12.669   1.759  1.00  0.00     0.256 C 
HETATM   12  O   UNL     1      42.591 -12.136   1.079  1.00  0.00    -0.267 OA
HETATM   13  S   UNL     1      38.158 -14.249   1.185  1.00  0.00    -0.074 SA
HETATM   14  C   UNL     1      40.808 -12.637  -1.361  1.00  0.00     0.068 C 
HETATM   15  C   UNL     1      40.148 -13.052  -2.692  1.00  0.00     0.240 C 
HETATM   16  H   UNL     1      39.085 -14.441   3.895  1.00  0.00     0.162 HD
HETATM   17  H   UNL     1      42.731 -12.500   3.490  1.00  0.00     0.165 HD
ENDROOT
BRANCH   9  18
HETATM   18  C   UNL     1      41.668 -14.905   4.355  1.00  0.00    -0.016 A 
HETATM   19  C   UNL     1      43.009 -14.957   4.773  1.00  0.00     0.014 A 
HETATM   20  C   UNL     1      43.599 -16.166   5.164  1.00  0.00     0.037 A 
HETATM   21  C   UNL     1      42.856 -17.345   5.146  1.00  0.00     0.069 A 
HETATM   22  C   UNL     1      41.533 -17.310   4.708  1.00  0.00     0.037 A 
HETATM   23  C   UNL     1      40.941 -16.105   4.317  1.00  0.00     0.014 A 
BRANCH  21  24
HETATM   24  O   UNL     1      43.300 -18.583   5.518  1.00  0.00    -0.347 OA
BRANCH  24  25
HETATM   25  C   UNL     1      44.587 -18.980   5.051  1.00  0.00     0.214 C 
BRANCH  25  26
HETATM   26  C   UNL     1      44.400 -20.024   3.978  1.00  0.00    -0.034 A 
HETATM   27  C   UNL     1      44.713 -21.367   4.233  1.00  0.00     0.009 A 
HETATM   28  C   UNL     1      44.548 -22.333   3.239  1.00  0.00     0.001 A 
HETATM   29  C   UNL     1      44.073 -21.966   1.981  1.00  0.00     0.000 A 
HETATM   30  C   UNL     1      43.769 -20.634   1.713  1.00  0.00     0.001 A 
HETATM   31  C   UNL     1      43.932 -19.665   2.705  1.00  0.00     0.009 A 
ENDBRANCH  25  26
ENDBRANCH  24  25
ENDBRANCH  21  24
ENDBRANCH   9  18
BRANCH   1  32
HETATM   32  C   UNL     1      37.927 -12.891  -3.938  1.00  0.00     0.273 C 
BRANCH  32  33
HETATM   33  C   UNL     1      36.489 -12.453  -3.919  1.00  0.00    -0.033 A 
HETATM   34  C   UNL     1      36.099 -11.329  -3.171  1.00  0.00     0.009 A 
HETATM   35  C   UNL     1      34.763 -10.931  -3.134  1.00  0.00     0.001 A 
HETATM   36  C   UNL     1      33.802 -11.644  -3.847  1.00  0.00     0.000 A 
HETATM   37  C   UNL     1      34.177 -12.752  -4.603  1.00  0.00     0.001 A 
HETATM   38  C   UNL     1      35.513 -13.155  -4.642  1.00  0.00     0.009 A 
ENDBRANCH  32  33
ENDBRANCH   1  32
TORSDOF 6
ENDMDL
MODEL 8
REMARK VINA RESULT:      -9.6      5.519     10.433
REMARK  6 active torsions:
REMARK  status: ('A' for Active; 'I' for Inactive)
REMARK    1  A    between atoms: C_4  and  C_5 
REMARK    2  A    between atoms: C_5  and  N_6 
REMARK    3  A    between atoms: C_14  and  C_15 
REMARK    4  A    between atoms: C_18  and  O_19 
REMARK    5  A    between atoms: O_19  and  C_20 
REMARK    6  A    between atoms: C_20  and  C_21 
ROOT
HETATM    1  N   UNL     1      42.271 -11.221  -2.966  1.00  0.00    -0.063 N 
HETATM    2  H   UNL     1      41.311 -10.859  -2.923  1.00  0.00     0.280 HD
HETATM    3  C   UNL     1      42.121 -12.736  -2.940  1.00  0.00     0.282 C 
HETATM    4  C   UNL     1      41.521 -13.152  -1.639  1.00  0.00     0.018 A 
HETATM    5  C   UNL     1      41.500 -12.375  -0.495  1.00  0.00    -0.023 A 
HETATM    6  C   UNL     1      40.821 -13.047   0.571  1.00  0.00     0.073 A 
HETATM    7  C   UNL     1      40.397 -14.300   0.198  1.00  0.00     0.088 A 
HETATM    8  N   UNL     1      39.728 -15.132   1.017  1.00  0.00    -0.358 N 
HETATM    9  C   UNL     1      39.631 -14.843   2.432  1.00  0.00     0.219 C 
HETATM   10  N   UNL     1      39.854 -13.447   2.711  1.00  0.00    -0.332 N 
HETATM   11  C   UNL     1      40.536 -12.576   1.912  1.00  0.00     0.256 C 
HETATM   12  O   UNL     1      40.862 -11.460   2.302  1.00  0.00    -0.267 OA
HETATM   13  S   UNL     1      40.798 -14.674  -1.413  1.00  0.00    -0.074 SA
HETATM   14  C   UNL     1      42.087 -10.994  -0.466  1.00  0.00     0.068 C 
HETATM   15  C   UNL     1      42.965 -10.719  -1.705  1.00  0.00     0.240 C 
HETATM   16  H   UNL     1      39.615 -16.112   0.772  1.00  0.00     0.162 HD
HETATM   17  H   UNL     1      39.713 -13.133   3.660  1.00  0.00     0.165 HD
ENDROOT
BRANCH   9  18
HETATM   18  C   UNL     1      40.554 -15.736   3.237  1.00  0.00    -0.016 A 
HETATM   19  C   UNL     1      40.942 -15.419   4.550  1.00  0.00     0.014 A 
HETATM   20  C   UNL     1      41.773 -16.274   5.286  1.00  0.00     0.037 A 
HETATM   21  C   UNL     1      42.229 -17.463   4.721  1.00  0.00     0.069 A 
HETATM   22  C   UNL     1      41.873 -17.775   3.409  1.00  0.00     0.037 A 
HETATM   23  C   UNL     1      41.044 -16.924   2.672  1.00  0.00     0.014 A 
BRANCH  21  24
HETATM   24  O   UNL     1      43.025 -18.392   5.330  1.00  0.00    -0.347 OA
BRANCH  24  25
HETATM   25  C   UNL     1      44.335 -18.576   4.798  1.00  0.00     0.214 C 
BRANCH  25  26
HETATM   26  C   UNL     1      44.458 -20.003   4.324  1.00  0.00    -0.034 A 
HETATM   27  C   UNL     1      44.308 -20.315   2.965  1.00  0.00     0.009 A 
HETATM   28  C   UNL     1      44.413 -21.635   2.526  1.00  0.00     0.001 A 
HETATM   29  C   UNL     1      44.664 -22.657   3.440  1.00  0.00     0.000 A 
HETATM   30  C   UNL     1      44.805 -22.361   4.794  1.00  0.00     0.001 A 
HETATM   31  C   UNL     1      44.700 -21.041   5.236  1.00  0.00     0.009 A 
ENDBRANCH  25  26
ENDBRANCH  24  25
ENDBRANCH  21  24
ENDBRANCH   9  18
BRANCH   1  32
HETATM   32  C   UNL     1      42.842 -10.688  -4.253  1.00  0.00     0.273 C 
BRANCH  32  33
HETATM   33  C   UNL     1      41.850 -10.096  -5.216  1.00  0.00    -0.033 A 
HETATM   34  C   UNL     1      40.499 -10.482  -5.170  1.00  0.00     0.009 A 
HETATM   35  C   UNL     1      39.580  -9.951  -6.075  1.00  0.00     0.001 A 
HETATM   36  C   UNL     1      39.994  -9.026  -7.029  1.00  0.00     0.000 A 
HETATM   37  C   UNL     1      41.326  -8.625  -7.077  1.00  0.00     0.001 A 
HETATM   38  C   UNL     1      42.251  -9.154  -6.175  1.00  0.00     0.009 A 
ENDBRANCH  32  33
ENDBRANCH   1  32
TORSDOF 6
ENDMDL
MODEL 9
REMARK VINA RESULT:      -9.6      5.573      7.293
REMARK  6 active torsions:
REMARK  status: ('A' for Active; 'I' for Inactive)
REMARK    1  A    between atoms: C_4  and  C_5 
REMARK    2  A    between atoms: C_5  and  N_6 
REMARK    3  A    between atoms: C_14  and  C_15 
REMARK    4  A    between atoms: C_18  and  O_19 
REMARK    5  A    between atoms: O_19  and  C_20 
REMARK    6  A    between atoms: C_20  and  C_21 
ROOT
HETATM    1  N   UNL     1      43.239 -16.839   3.991  1.00  0.00    -0.063 N 
HETATM    2  H   UNL     1      43.674 -17.020   3.079  1.00  0.00     0.280 HD
HETATM    3  C   UNL     1      41.752 -17.078   3.771  1.00  0.00     0.282 C 
HETATM    4  C   UNL     1      41.228 -16.079   2.795  1.00  0.00     0.018 A 
HETATM    5  C   UNL     1      41.854 -14.887   2.474  1.00  0.00    -0.023 A 
HETATM    6  C   UNL     1      41.113 -14.169   1.480  1.00  0.00     0.073 A 
HETATM    7  C   UNL     1      39.959 -14.827   1.128  1.00  0.00     0.088 A 
HETATM    8  N   UNL     1      39.091 -14.363   0.210  1.00  0.00    -0.358 N 
HETATM    9  C   UNL     1      39.206 -13.009  -0.287  1.00  0.00     0.219 C 
HETATM   10  N   UNL     1      40.532 -12.477  -0.092  1.00  0.00    -0.332 N 
HETATM   11  C   UNL     1      41.434 -12.912   0.834  1.00  0.00     0.256 C 
HETATM   12  O   UNL     1      42.460 -12.287   1.082  1.00  0.00    -0.267 OA
HETATM   13  S   UNL     1      39.758 -16.293   1.969  1.00  0.00    -0.074 SA
HETATM   14  C   UNL     1      43.164 -14.491   3.089  1.00  0.00     0.068 C 
HETATM   15  C   UNL     1      43.515 -15.373   4.305  1.00  0.00     0.240 C 
HETATM   16  H   UNL     1      38.164 -14.771   0.129  1.00  0.00     0.162 HD
HETATM   17  H   UNL     1      40.735 -11.573  -0.493  1.00  0.00     0.165 HD
ENDROOT
BRANCH   9  18
HETATM   18  C   UNL     1      38.143 -12.113   0.316  1.00  0.00    -0.016 A 
HETATM   19  C   UNL     1      36.815 -12.116  -0.145  1.00  0.00     0.014 A 
HETATM   20  C   UNL     1      35.841 -11.302   0.446  1.00  0.00     0.037 A 
HETATM   21  C   UNL     1      36.179 -10.469   1.512  1.00  0.00     0.069 A 
HETATM   22  C   UNL     1      37.499 -10.438   1.960  1.00  0.00     0.037 A 
HETATM   23  C   UNL     1      38.473 -11.250   1.372  1.00  0.00     0.014 A 
BRANCH  21  24
HETATM   24  O   UNL     1      35.328  -9.642   2.190  1.00  0.00    -0.347 OA
BRANCH  24  25
HETATM   25  C   UNL     1      33.930  -9.845   1.993  1.00  0.00     0.214 C 
BRANCH  25  26
HETATM   26  C   UNL     1      33.206  -9.384   3.234  1.00  0.00    -0.034 A 
HETATM   27  C   UNL     1      33.926  -9.025   4.383  1.00  0.00     0.009 A 
HETATM   28  C   UNL     1      33.258  -8.606   5.535  1.00  0.00     0.001 A 
HETATM   29  C   UNL     1      31.865  -8.546   5.551  1.00  0.00     0.000 A 
HETATM   30  C   UNL     1      31.140  -8.910   4.419  1.00  0.00     0.001 A 
HETATM   31  C   UNL     1      31.805  -9.329   3.266  1.00  0.00     0.009 A 
ENDBRANCH  25  26
ENDBRANCH  24  25
ENDBRANCH  21  24
ENDBRANCH   9  18
BRANCH   1  32
HETATM   32  C   UNL     1      43.879 -17.817   4.940  1.00  0.00     0.273 C 
BRANCH  32  33
HETATM   33  C   UNL     1      44.145 -19.190   4.388  1.00  0.00    -0.033 A 
HETATM   34  C   UNL     1      44.521 -20.240   5.243  1.00  0.00     0.009 A 
HETATM   35  C   UNL     1      44.788 -21.509   4.732  1.00  0.00     0.001 A 
HETATM   36  C   UNL     1      44.678 -21.749   3.365  1.00  0.00     0.000 A 
HETATM   37  C   UNL     1      44.293 -20.722   2.507  1.00  0.00     0.001 A 
HETATM   38  C   UNL     1      44.025 -19.448   3.014  1.00  0.00     0.009 A 
ENDBRANCH  32  33
ENDBRANCH   1  32
TORSDOF 6
ENDMDL
MODEL 10
REMARK VINA RESULT:      -9.6      6.737     11.306
REMARK  6 active torsions:
REMARK  status: ('A' for Active; 'I' for Inactive)
REMARK    1  A    between atoms: C_4  and  C_5 
REMARK    2  A    between atoms: C_5  and  N_6 
REMARK    3  A    between atoms: C_14  and  C_15 
REMARK    4  A    between atoms: C_18  and  O_19 
REMARK    5  A    between atoms: O_19  and  C_20 
REMARK    6  A    between atoms: C_20  and  C_21 
ROOT
HETATM    1  N   UNL     1      35.868 -12.569  -4.571  1.00  0.00    -0.063 N 
HETATM    2  H   UNL     1      36.596 -12.306  -5.246  1.00  0.00     0.280 HD
HETATM    3  C   UNL     1      36.334 -11.987  -3.244  1.00  0.00     0.282 C 
HETATM    4  C   UNL     1      37.611 -12.641  -2.836  1.00  0.00     0.018 A 
HETATM    5  C   UNL     1      38.071 -13.849  -3.330  1.00  0.00    -0.023 A 
HETATM    6  C   UNL     1      39.343 -14.185  -2.764  1.00  0.00     0.073 A 
HETATM    7  C   UNL     1      39.762 -13.245  -1.853  1.00  0.00     0.088 A 
HETATM    8  N   UNL     1      40.927 -13.326  -1.185  1.00  0.00    -0.358 N 
HETATM    9  C   UNL     1      41.700 -14.550  -1.210  1.00  0.00     0.219 C 
HETATM   10  N   UNL     1      41.364 -15.374  -2.344  1.00  0.00    -0.332 N 
HETATM   11  C   UNL     1      40.190 -15.329  -3.038  1.00  0.00     0.256 C 
HETATM   12  O   UNL     1      39.889 -16.190  -3.857  1.00  0.00    -0.267 OA
HETATM   13  S   UNL     1      38.654 -11.966  -1.675  1.00  0.00    -0.074 SA
HETATM   14  C   UNL     1      37.307 -14.624  -4.364  1.00  0.00     0.068 C 
HETATM   15  C   UNL     1      35.868 -14.092  -4.528  1.00  0.00     0.240 C 
HETATM   16  H   UNL     1      41.102 -12.727  -0.383  1.00  0.00     0.162 HD
HETATM   17  H   UNL     1      41.919 -16.203  -2.499  1.00  0.00     0.165 HD
ENDROOT
BRANCH   9  18
HETATM   18  C   UNL     1      41.572 -15.305   0.097  1.00  0.00    -0.016 A 
HETATM   19  C   UNL     1      41.292 -16.681   0.140  1.00  0.00     0.014 A 
HETATM   20  C   UNL     1      41.207 -17.366   1.359  1.00  0.00     0.037 A 
HETATM   21  C   UNL     1      41.402 -16.683   2.559  1.00  0.00     0.069 A 
HETATM   22  C   UNL     1      41.653 -15.312   2.530  1.00  0.00     0.037 A 
HETATM   23  C   UNL     1      41.739 -14.626   1.315  1.00  0.00     0.014 A 
BRANCH  21  24
HETATM   24  O   UNL     1      41.366 -17.229   3.811  1.00  0.00    -0.347 OA
BRANCH  24  25
HETATM   25  C   UNL     1      42.503 -17.018   4.645  1.00  0.00     0.214 C 
BRANCH  25  26
HETATM   26  C   UNL     1      43.267 -18.315   4.741  1.00  0.00    -0.034 A 
HETATM   27  C   UNL     1      43.371 -18.989   5.966  1.00  0.00     0.009 A 
HETATM   28  C   UNL     1      44.084 -20.185   6.059  1.00  0.00     0.001 A 
HETATM   29  C   UNL     1      44.705 -20.717   4.929  1.00  0.00     0.000 A 
HETATM   30  C   UNL     1      44.617 -20.051   3.709  1.00  0.00     0.001 A 
HETATM   31  C   UNL     1      43.904 -18.855   3.614  1.00  0.00     0.009 A 
ENDBRANCH  25  26
ENDBRANCH  24  25
ENDBRANCH  21  24
ENDBRANCH   9  18
BRANCH   1  32
HETATM   32  C   UNL     1      34.597 -11.953  -5.094  1.00  0.00     0.273 C 
BRANCH  32  33
HETATM   33  C   UNL     1      33.510 -11.731  -4.080  1.00  0.00    -0.033 A 
HETATM   34  C   UNL     1      32.516 -12.704  -3.879  1.00  0.00     0.009 A 
HETATM   35  C   UNL     1      31.494 -12.493  -2.954  1.00  0.00     0.001 A 
HETATM   36  C   UNL     1      31.455 -11.313  -2.214  1.00  0.00     0.000 A 
HETATM   37  C   UNL     1      32.440 -10.346  -2.394  1.00  0.00     0.001 A 
HETATM   38  C   UNL     1      33.465 -10.552  -3.319  1.00  0.00     0.009 A 
ENDBRANCH  32  33
ENDBRANCH   1  32
TORSDOF 6
ENDMDL
