MODEL 1
REMARK VINA RESULT:      -7.6      0.000      0.000
REMARK  6 active torsions:
REMARK  status: ('A' for Active; 'I' for Inactive)
REMARK    1  A    between atoms: N_2  and  C_4 
REMARK    2  A    between atoms: N_2  and  C_14 
REMARK    3  A    between atoms: C_5  and  O_6 
REMARK    4  A    between atoms: C_14  and  C_15 
REMARK    5  A    between atoms: C_15  and  O_16 
REMARK    6  A    between atoms: C_15  and  C_17 
ROOT
HETATM    1  C   UNL     1      40.374 -15.040   5.485  1.00  0.00     0.270 C 
HETATM    2  N   UNL     1      40.612 -16.016   4.365  1.00  0.00    -0.065 N 
HETATM    3  H   UNL     1      39.661 -16.353   4.109  1.00  0.00     0.280 HD
ENDROOT
BRANCH   2   4
HETATM    4  C   UNL     1      41.148 -15.431   3.035  1.00  0.00     0.225 C 
HETATM    5  C   UNL     1      40.218 -15.792   1.833  1.00  0.00     0.183 C 
HETATM    6  C   UNL     1      39.373 -14.556   1.727  1.00  0.00    -0.021 A 
HETATM    7  C   UNL     1      39.967 -13.487   2.418  1.00  0.00    -0.047 A 
HETATM    8  C   UNL     1      38.183 -14.379   1.039  1.00  0.00     0.010 A 
HETATM    9  C   UNL     1      41.258 -13.896   3.062  1.00  0.00     0.075 C 
HETATM   10  C   UNL     1      39.386 -12.230   2.436  1.00  0.00     0.008 A 
HETATM   11  C   UNL     1      38.180 -12.052   1.759  1.00  0.00     0.001 A 
HETATM   12  C   UNL     1      37.583 -13.117   1.067  1.00  0.00     0.001 A 
BRANCH   5  13
HETATM   13  O   UNL     1      39.483 -16.975   2.118  1.00  0.00    -0.389 OA
HETATM   14  H   UNL     1      38.777 -17.038   1.446  1.00  0.00     0.210 HD
ENDBRANCH   5  13
ENDBRANCH   2   4
BRANCH   2  15
HETATM   15  C   UNL     1      41.373 -17.258   4.811  1.00  0.00     0.271 C 
BRANCH  15  16
HETATM   16  C   UNL     1      42.863 -17.152   4.419  1.00  0.00     0.177 C 
BRANCH  16  17
HETATM   17  O   UNL     1      43.607 -16.830   5.600  1.00  0.00    -0.389 OA
HETATM   18  H   UNL     1      43.765 -17.668   6.078  1.00  0.00     0.210 HD
ENDBRANCH  16  17
BRANCH  16  19
HETATM   19  C   UNL     1      43.351 -18.426   3.768  1.00  0.00    -0.028 A 
HETATM   20  C   UNL     1      44.306 -19.220   4.429  1.00  0.00     0.013 A 
HETATM   21  C   UNL     1      44.807 -20.375   3.825  1.00  0.00     0.043 A 
HETATM   22  C   UNL     1      44.358 -20.741   2.564  1.00  0.00     0.116 A 
HETATM   23  F   UNL     1      44.843 -21.845   1.985  1.00  0.00    -0.206 F 
HETATM   24  C   UNL     1      43.415 -19.972   1.892  1.00  0.00     0.043 A 
HETATM   25  C   UNL     1      42.914 -18.813   2.490  1.00  0.00     0.013 A 
ENDBRANCH  16  19
ENDBRANCH  15  16
ENDBRANCH   2  15
TORSDOF 6
ENDMDL
MODEL 2
REMARK VINA RESULT:      -7.6      2.876      6.783
REMARK  6 active torsions:
REMARK  status: ('A' for Active; 'I' for Inactive)
REMARK    1  A    between atoms: N_2  and  C_4 
REMARK    2  A    between atoms: N_2  and  C_14 
REMARK    3  A    between atoms: C_5  and  O_6 
REMARK    4  A    between atoms: C_14  and  C_15 
REMARK    5  A    between atoms: C_15  and  O_16 
REMARK    6  A    between atoms: C_15  and  C_17 
ROOT
HETATM    1  C   UNL     1      41.228 -18.063   4.854  1.00  0.00     0.270 C 
HETATM    2  N   UNL     1      42.396 -17.477   5.602  1.00  0.00    -0.065 N 
HETATM    3  H   UNL     1      42.580 -18.157   6.367  1.00  0.00     0.280 HD
ENDROOT
BRANCH   2   4
HETATM    4  C   UNL     1      43.747 -17.421   4.847  1.00  0.00     0.225 C 
HETATM    5  C   UNL     1      44.689 -18.592   5.270  1.00  0.00     0.183 C 
HETATM    6  C   UNL     1      44.429 -19.593   4.183  1.00  0.00    -0.021 A 
HETATM    7  C   UNL     1      43.807 -18.980   3.082  1.00  0.00    -0.047 A 
HETATM    8  C   UNL     1      44.749 -20.941   4.153  1.00  0.00     0.010 A 
HETATM    9  C   UNL     1      43.580 -17.517   3.320  1.00  0.00     0.075 C 
HETATM   10  C   UNL     1      43.496 -19.698   1.940  1.00  0.00     0.008 A 
HETATM   11  C   UNL     1      43.802 -21.058   1.912  1.00  0.00     0.001 A 
HETATM   12  C   UNL     1      44.423 -21.674   3.009  1.00  0.00     0.001 A 
BRANCH   5  13
HETATM   13  O   UNL     1      44.352 -19.049   6.573  1.00  0.00    -0.389 OA
HETATM   14  H   UNL     1      43.386 -18.937   6.670  1.00  0.00     0.210 HD
ENDBRANCH   5  13
ENDBRANCH   2   4
BRANCH   2  15
HETATM   15  C   UNL     1      42.056 -16.166   6.300  1.00  0.00     0.271 C 
BRANCH  15  16
HETATM   16  C   UNL     1      40.844 -15.489   5.624  1.00  0.00     0.177 C 
BRANCH  16  17
HETATM   17  O   UNL     1      40.199 -14.662   6.600  1.00  0.00    -0.389 OA
HETATM   18  H   UNL     1      40.016 -15.226   7.378  1.00  0.00     0.210 HD
ENDBRANCH  16  17
BRANCH  16  19
HETATM   19  C   UNL     1      41.265 -14.704   4.402  1.00  0.00    -0.028 A 
HETATM   20  C   UNL     1      40.441 -14.703   3.262  1.00  0.00     0.013 A 
HETATM   21  C   UNL     1      40.832 -14.025   2.106  1.00  0.00     0.043 A 
HETATM   22  C   UNL     1      42.044 -13.348   2.083  1.00  0.00     0.116 A 
HETATM   23  F   UNL     1      42.419 -12.703   0.973  1.00  0.00    -0.206 F 
HETATM   24  C   UNL     1      42.874 -13.336   3.197  1.00  0.00     0.043 A 
HETATM   25  C   UNL     1      42.489 -14.016   4.355  1.00  0.00     0.013 A 
ENDBRANCH  16  19
ENDBRANCH  15  16
ENDBRANCH   2  15
TORSDOF 6
ENDMDL
MODEL 3
REMARK VINA RESULT:      -7.5      3.181      4.453
REMARK  6 active torsions:
REMARK  status: ('A' for Active; 'I' for Inactive)
REMARK    1  A    between atoms: N_2  and  C_4 
REMARK    2  A    between atoms: N_2  and  C_14 
REMARK    3  A    between atoms: C_5  and  O_6 
REMARK    4  A    between atoms: C_14  and  C_15 
REMARK    5  A    between atoms: C_15  and  O_16 
REMARK    6  A    between atoms: C_15  and  C_17 
ROOT
HETATM    1  C   UNL     1      43.878 -15.500   6.494  1.00  0.00     0.270 C 
HETATM    2  N   UNL     1      42.470 -15.986   6.711  1.00  0.00    -0.065 N 
HETATM    3  H   UNL     1      42.059 -15.300   7.376  1.00  0.00     0.280 HD
ENDROOT
BRANCH   2   4
HETATM    4  C   UNL     1      41.515 -15.913   5.494  1.00  0.00     0.225 C 
HETATM    5  C   UNL     1      42.122 -15.056   4.338  1.00  0.00     0.183 C 
HETATM    6  C   UNL     1      42.724 -16.117   3.463  1.00  0.00    -0.021 A 
HETATM    7  C   UNL     1      42.198 -17.380   3.781  1.00  0.00    -0.047 A 
HETATM    8  C   UNL     1      43.644 -15.972   2.437  1.00  0.00     0.010 A 
HETATM    9  C   UNL     1      41.202 -17.298   4.899  1.00  0.00     0.075 C 
HETATM   10  C   UNL     1      42.579 -18.514   3.084  1.00  0.00     0.008 A 
HETATM   11  C   UNL     1      43.517 -18.375   2.062  1.00  0.00     0.001 A 
HETATM   12  C   UNL     1      44.045 -17.115   1.741  1.00  0.00     0.001 A 
BRANCH   5  13
HETATM   13  O   UNL     1      43.064 -14.127   4.858  1.00  0.00    -0.389 OA
HETATM   14  H   UNL     1      43.819 -14.649   5.194  1.00  0.00     0.210 HD
ENDBRANCH   5  13
ENDBRANCH   2   4
BRANCH   2  15
HETATM   15  C   UNL     1      42.410 -17.329   7.427  1.00  0.00     0.271 C 
BRANCH  15  16
HETATM   16  C   UNL     1      43.832 -17.876   7.677  1.00  0.00     0.177 C 
BRANCH  16  17
HETATM   17  O   UNL     1      43.952 -18.172   9.073  1.00  0.00    -0.389 OA
HETATM   18  H   UNL     1      43.140 -17.843   9.508  1.00  0.00     0.210 HD
ENDBRANCH  16  17
BRANCH  16  19
HETATM   19  C   UNL     1      44.116 -19.084   6.813  1.00  0.00    -0.028 A 
HETATM   20  C   UNL     1      43.635 -20.345   7.206  1.00  0.00     0.013 A 
HETATM   21  C   UNL     1      43.926 -21.482   6.449  1.00  0.00     0.043 A 
HETATM   22  C   UNL     1      44.695 -21.363   5.299  1.00  0.00     0.116 A 
HETATM   23  F   UNL     1      44.976 -22.454   4.578  1.00  0.00    -0.206 F 
HETATM   24  C   UNL     1      45.181 -20.127   4.892  1.00  0.00     0.043 A 
HETATM   25  C   UNL     1      44.897 -18.988   5.649  1.00  0.00     0.013 A 
ENDBRANCH  16  19
ENDBRANCH  15  16
ENDBRANCH   2  15
TORSDOF 6
ENDMDL
MODEL 4
REMARK VINA RESULT:      -7.4      5.460      7.866
REMARK  6 active torsions:
REMARK  status: ('A' for Active; 'I' for Inactive)
REMARK    1  A    between atoms: N_2  and  C_4 
REMARK    2  A    between atoms: N_2  and  C_14 
REMARK    3  A    between atoms: C_5  and  O_6 
REMARK    4  A    between atoms: C_14  and  C_15 
REMARK    5  A    between atoms: C_15  and  O_16 
REMARK    6  A    between atoms: C_15  and  C_17 
ROOT
HETATM    1  C   UNL     1      44.301 -16.090   6.719  1.00  0.00     0.270 C 
HETATM    2  N   UNL     1      43.858 -14.943   5.852  1.00  0.00    -0.065 N 
HETATM    3  H   UNL     1      44.635 -14.818   5.171  1.00  0.00     0.280 HD
ENDROOT
BRANCH   2   4
HETATM    4  C   UNL     1      42.630 -15.192   4.942  1.00  0.00     0.225 C 
HETATM    5  C   UNL     1      42.965 -14.929   3.440  1.00  0.00     0.183 C 
HETATM    6  C   UNL     1      43.271 -16.316   2.955  1.00  0.00    -0.021 A 
HETATM    7  C   UNL     1      42.780 -17.277   3.855  1.00  0.00    -0.047 A 
HETATM    8  C   UNL     1      43.905 -16.703   1.785  1.00  0.00     0.010 A 
HETATM    9  C   UNL     1      42.107 -16.638   5.032  1.00  0.00     0.075 C 
HETATM   10  C   UNL     1      42.914 -18.632   3.604  1.00  0.00     0.008 A 
HETATM   11  C   UNL     1      43.567 -19.026   2.437  1.00  0.00     0.001 A 
HETATM   12  C   UNL     1      44.059 -18.069   1.534  1.00  0.00     0.001 A 
BRANCH   5  13
HETATM   13  O   UNL     1      44.054 -14.023   3.331  1.00  0.00    -0.389 OA
HETATM   14  H   UNL     1      44.014 -13.640   2.433  1.00  0.00     0.210 HD
ENDBRANCH   5  13
ENDBRANCH   2   4
BRANCH   2  15
HETATM   15  C   UNL     1      43.772 -13.624   6.610  1.00  0.00     0.271 C 
BRANCH  15  16
HETATM   16  C   UNL     1      44.984 -13.460   7.554  1.00  0.00     0.177 C 
BRANCH  16  17
HETATM   17  O   UNL     1      46.130 -13.155   6.751  1.00  0.00    -0.389 OA
HETATM   18  H   UNL     1      46.911 -13.516   7.216  1.00  0.00     0.210 HD
ENDBRANCH  16  17
BRANCH  16  19
HETATM   19  C   UNL     1      44.724 -12.402   8.602  1.00  0.00    -0.028 A 
HETATM   20  C   UNL     1      45.685 -12.167   9.601  1.00  0.00     0.013 A 
HETATM   21  C   UNL     1      45.446 -11.229  10.608  1.00  0.00     0.043 A 
HETATM   22  C   UNL     1      44.250 -10.524  10.619  1.00  0.00     0.116 A 
HETATM   23  F   UNL     1      44.021  -9.629  11.586  1.00  0.00    -0.206 F 
HETATM   24  C   UNL     1      43.287 -10.740   9.642  1.00  0.00     0.043 A 
HETATM   25  C   UNL     1      43.519 -11.681   8.636  1.00  0.00     0.013 A 
ENDBRANCH  16  19
ENDBRANCH  15  16
ENDBRANCH   2  15
TORSDOF 6
ENDMDL
MODEL 5
REMARK VINA RESULT:      -7.4      1.671      2.248
REMARK  6 active torsions:
REMARK  status: ('A' for Active; 'I' for Inactive)
REMARK    1  A    between atoms: N_2  and  C_4 
REMARK    2  A    between atoms: N_2  and  C_14 
REMARK    3  A    between atoms: C_5  and  O_6 
REMARK    4  A    between atoms: C_14  and  C_15 
REMARK    5  A    between atoms: C_15  and  O_16 
REMARK    6  A    between atoms: C_15  and  C_17 
ROOT
HETATM    1  C   UNL     1      43.195 -15.608   2.638  1.00  0.00     0.270 C 
HETATM    2  N   UNL     1      41.937 -16.225   3.187  1.00  0.00    -0.065 N 
HETATM    3  H   UNL     1      41.444 -15.437   3.654  1.00  0.00     0.280 HD
ENDROOT
BRANCH   2   4
HETATM    4  C   UNL     1      40.899 -16.726   2.152  1.00  0.00     0.225 C 
HETATM    5  C   UNL     1      39.634 -15.811   2.120  1.00  0.00     0.183 C 
HETATM    6  C   UNL     1      39.949 -14.904   0.967  1.00  0.00    -0.021 A 
HETATM    7  C   UNL     1      40.976 -15.446   0.175  1.00  0.00    -0.047 A 
HETATM    8  C   UNL     1      39.349 -13.704   0.620  1.00  0.00     0.010 A 
HETATM    9  C   UNL     1      41.457 -16.758   0.718  1.00  0.00     0.075 C 
HETATM   10  C   UNL     1      41.419 -14.803  -0.968  1.00  0.00     0.008 A 
HETATM   11  C   UNL     1      40.829 -13.587  -1.311  1.00  0.00     0.001 A 
HETATM   12  C   UNL     1      39.803 -13.042  -0.523  1.00  0.00     0.001 A 
BRANCH   5  13
HETATM   13  O   UNL     1      39.482 -15.138   3.363  1.00  0.00    -0.389 OA
HETATM   14  H   UNL     1      38.774 -15.603   3.852  1.00  0.00     0.210 HD
ENDBRANCH   5  13
ENDBRANCH   2   4
BRANCH   2  15
HETATM   15  C   UNL     1      42.207 -17.241   4.290  1.00  0.00     0.271 C 
BRANCH  15  16
HETATM   16  C   UNL     1      43.705 -17.613   4.331  1.00  0.00     0.177 C 
BRANCH  16  17
HETATM   17  O   UNL     1      44.165 -17.446   5.677  1.00  0.00    -0.389 OA
HETATM   18  H   UNL     1      45.100 -17.733   5.699  1.00  0.00     0.210 HD
ENDBRANCH  16  17
BRANCH  16  19
HETATM   19  C   UNL     1      43.937 -19.017   3.820  1.00  0.00    -0.028 A 
HETATM   20  C   UNL     1      44.519 -19.975   4.668  1.00  0.00     0.013 A 
HETATM   21  C   UNL     1      44.786 -21.264   4.203  1.00  0.00     0.043 A 
HETATM   22  C   UNL     1      44.473 -21.601   2.893  1.00  0.00     0.116 A 
HETATM   23  F   UNL     1      44.734 -22.835   2.448  1.00  0.00    -0.206 F 
HETATM   24  C   UNL     1      43.898 -20.670   2.037  1.00  0.00     0.043 A 
HETATM   25  C   UNL     1      43.633 -19.377   2.496  1.00  0.00     0.013 A 
ENDBRANCH  16  19
ENDBRANCH  15  16
ENDBRANCH   2  15
TORSDOF 6
ENDMDL
MODEL 6
REMARK VINA RESULT:      -7.3      2.669      3.585
REMARK  6 active torsions:
REMARK  status: ('A' for Active; 'I' for Inactive)
REMARK    1  A    between atoms: N_2  and  C_4 
REMARK    2  A    between atoms: N_2  and  C_14 
REMARK    3  A    between atoms: C_5  and  O_6 
REMARK    4  A    between atoms: C_14  and  C_15 
REMARK    5  A    between atoms: C_15  and  O_16 
REMARK    6  A    between atoms: C_15  and  C_17 
ROOT
HETATM    1  C   UNL     1      41.347 -16.484   3.008  1.00  0.00     0.270 C 
HETATM    2  N   UNL     1      42.714 -15.917   3.280  1.00  0.00    -0.065 N 
HETATM    3  H   UNL     1      42.770 -15.073   2.673  1.00  0.00     0.280 HD
ENDROOT
BRANCH   2   4
HETATM    4  C   UNL     1      42.962 -15.347   4.698  1.00  0.00     0.225 C 
HETATM    5  C   UNL     1      43.352 -13.836   4.650  1.00  0.00     0.183 C 
HETATM    6  C   UNL     1      42.028 -13.177   4.907  1.00  0.00    -0.021 A 
HETATM    7  C   UNL     1      41.114 -14.094   5.452  1.00  0.00    -0.047 A 
HETATM    8  C   UNL     1      41.667 -11.854   4.707  1.00  0.00     0.010 A 
HETATM    9  C   UNL     1      41.724 -15.455   5.607  1.00  0.00     0.075 C 
HETATM   10  C   UNL     1      39.832 -13.709   5.804  1.00  0.00     0.008 A 
HETATM   11  C   UNL     1      39.459 -12.383   5.589  1.00  0.00     0.001 A 
HETATM   12  C   UNL     1      40.369 -11.463   5.045  1.00  0.00     0.001 A 
BRANCH   5  13
HETATM   13  O   UNL     1      43.925 -13.516   3.389  1.00  0.00    -0.389 OA
HETATM   14  H   UNL     1      43.279 -13.788   2.708  1.00  0.00     0.210 HD
ENDBRANCH   5  13
ENDBRANCH   2   4
BRANCH   2  15
HETATM   15  C   UNL     1      43.839 -16.828   2.806  1.00  0.00     0.271 C 
BRANCH  15  16
HETATM   16  C   UNL     1      43.282 -17.962   1.917  1.00  0.00     0.177 C 
BRANCH  16  17
HETATM   17  O   UNL     1      43.684 -17.703   0.567  1.00  0.00    -0.389 OA
HETATM   18  H   UNL     1      43.151 -18.286  -0.008  1.00  0.00     0.210 HD
ENDBRANCH  16  17
BRANCH  16  19
HETATM   19  C   UNL     1      43.747 -19.317   2.400  1.00  0.00    -0.028 A 
HETATM   20  C   UNL     1      43.556 -20.446   1.584  1.00  0.00     0.013 A 
HETATM   21  C   UNL     1      43.934 -21.714   2.029  1.00  0.00     0.043 A 
HETATM   22  C   UNL     1      44.503 -21.859   3.287  1.00  0.00     0.116 A 
HETATM   23  F   UNL     1      44.860 -23.076   3.713  1.00  0.00    -0.206 F 
HETATM   24  C   UNL     1      44.702 -20.758   4.110  1.00  0.00     0.043 A 
HETATM   25  C   UNL     1      44.321 -19.488   3.671  1.00  0.00     0.013 A 
ENDBRANCH  16  19
ENDBRANCH  15  16
ENDBRANCH   2  15
TORSDOF 6
ENDMDL
MODEL 7
REMARK VINA RESULT:      -7.1      1.951      2.446
REMARK  6 active torsions:
REMARK  status: ('A' for Active; 'I' for Inactive)
REMARK    1  A    between atoms: N_2  and  C_4 
REMARK    2  A    between atoms: N_2  and  C_14 
REMARK    3  A    between atoms: C_5  and  O_6 
REMARK    4  A    between atoms: C_14  and  C_15 
REMARK    5  A    between atoms: C_15  and  O_16 
REMARK    6  A    between atoms: C_15  and  C_17 
ROOT
HETATM    1  C   UNL     1      40.877 -16.066   3.516  1.00  0.00     0.270 C 
HETATM    2  N   UNL     1      41.763 -15.840   2.322  1.00  0.00    -0.065 N 
HETATM    3  H   UNL     1      41.277 -16.329   1.542  1.00  0.00     0.280 HD
ENDROOT
BRANCH   2   4
HETATM    4  C   UNL     1      41.877 -14.384   1.806  1.00  0.00     0.225 C 
HETATM    5  C   UNL     1      41.629 -14.299   0.267  1.00  0.00     0.183 C 
HETATM    6  C   UNL     1      40.178 -13.920   0.218  1.00  0.00    -0.021 A 
HETATM    7  C   UNL     1      39.751 -13.429   1.463  1.00  0.00    -0.047 A 
HETATM    8  C   UNL     1      39.306 -13.971  -0.858  1.00  0.00     0.010 A 
HETATM    9  C   UNL     1      40.862 -13.437   2.470  1.00  0.00     0.075 C 
HETATM   10  C   UNL     1      38.454 -12.984   1.654  1.00  0.00     0.008 A 
HETATM   11  C   UNL     1      37.569 -13.050   0.579  1.00  0.00     0.001 A 
HETATM   12  C   UNL     1      37.991 -13.540  -0.667  1.00  0.00     0.001 A 
BRANCH   5  13
HETATM   13  O   UNL     1      41.924 -15.547  -0.348  1.00  0.00    -0.389 OA
HETATM   14  H   UNL     1      41.468 -16.235   0.174  1.00  0.00     0.210 HD
ENDBRANCH   5  13
ENDBRANCH   2   4
BRANCH   2  15
HETATM   15  C   UNL     1      43.116 -16.528   2.448  1.00  0.00     0.271 C 
BRANCH  15  16
HETATM   16  C   UNL     1      43.108 -17.884   1.709  1.00  0.00     0.177 C 
BRANCH  16  17
HETATM   17  O   UNL     1      43.797 -17.713   0.465  1.00  0.00    -0.389 OA
HETATM   18  H   UNL     1      44.100 -16.784   0.430  1.00  0.00     0.210 HD
ENDBRANCH  16  17
BRANCH  16  19
HETATM   19  C   UNL     1      43.722 -18.975   2.555  1.00  0.00    -0.028 A 
HETATM   20  C   UNL     1      43.923 -20.252   2.000  1.00  0.00     0.013 A 
HETATM   21  C   UNL     1      44.444 -21.288   2.778  1.00  0.00     0.043 A 
HETATM   22  C   UNL     1      44.767 -21.054   4.108  1.00  0.00     0.116 A 
HETATM   23  F   UNL     1      45.262 -22.049   4.852  1.00  0.00    -0.206 F 
HETATM   24  C   UNL     1      44.577 -19.801   4.676  1.00  0.00     0.043 A 
HETATM   25  C   UNL     1      44.051 -18.762   3.905  1.00  0.00     0.013 A 
ENDBRANCH  16  19
ENDBRANCH  15  16
ENDBRANCH   2  15
TORSDOF 6
ENDMDL
MODEL 8
REMARK VINA RESULT:      -7.1      2.452      4.421
REMARK  6 active torsions:
REMARK  status: ('A' for Active; 'I' for Inactive)
REMARK    1  A    between atoms: N_2  and  C_4 
REMARK    2  A    between atoms: N_2  and  C_14 
REMARK    3  A    between atoms: C_5  and  O_6 
REMARK    4  A    between atoms: C_14  and  C_15 
REMARK    5  A    between atoms: C_15  and  O_16 
REMARK    6  A    between atoms: C_15  and  C_17 
ROOT
HETATM    1  C   UNL     1      41.193 -15.940   1.698  1.00  0.00     0.270 C 
HETATM    2  N   UNL     1      42.298 -15.250   2.453  1.00  0.00    -0.065 N 
HETATM    3  H   UNL     1      42.640 -14.517   1.798  1.00  0.00     0.280 HD
ENDROOT
BRANCH   2   4
HETATM    4  C   UNL     1      41.883 -14.439   3.705  1.00  0.00     0.225 C 
HETATM    5  C   UNL     1      40.904 -15.247   4.614  1.00  0.00     0.183 C 
HETATM    6  C   UNL     1      41.848 -15.824   5.629  1.00  0.00    -0.021 A 
HETATM    7  C   UNL     1      43.075 -15.140   5.612  1.00  0.00    -0.047 A 
HETATM    8  C   UNL     1      41.626 -16.855   6.529  1.00  0.00     0.010 A 
HETATM    9  C   UNL     1      43.084 -14.048   4.585  1.00  0.00     0.075 C 
HETATM   10  C   UNL     1      44.096 -15.472   6.486  1.00  0.00     0.008 A 
HETATM   11  C   UNL     1      43.883 -16.521   7.381  1.00  0.00     0.001 A 
HETATM   12  C   UNL     1      42.658 -17.206   7.402  1.00  0.00     0.001 A 
BRANCH   5  13
HETATM   13  O   UNL     1      40.211 -16.222   3.846  1.00  0.00    -0.389 OA
HETATM   14  H   UNL     1      40.203 -15.901   2.923  1.00  0.00     0.210 HD
ENDBRANCH   5  13
ENDBRANCH   2   4
BRANCH   2  15
HETATM   15  C   UNL     1      43.497 -16.154   2.707  1.00  0.00     0.271 C 
BRANCH  15  16
HETATM   16  C   UNL     1      43.304 -17.522   2.016  1.00  0.00     0.177 C 
BRANCH  16  17
HETATM   17  O   UNL     1      43.926 -17.457   0.728  1.00  0.00    -0.389 OA
HETATM   18  H   UNL     1      43.247 -17.150   0.095  1.00  0.00     0.210 HD
ENDBRANCH  16  17
BRANCH  16  19
HETATM   19  C   UNL     1      43.857 -18.647   2.861  1.00  0.00    -0.028 A 
HETATM   20  C   UNL     1      44.050 -19.915   2.284  1.00  0.00     0.013 A 
HETATM   21  C   UNL     1      44.514 -20.982   3.056  1.00  0.00     0.043 A 
HETATM   22  C   UNL     1      44.787 -20.786   4.404  1.00  0.00     0.116 A 
HETATM   23  F   UNL     1      45.227 -21.810   5.143  1.00  0.00    -0.206 F 
HETATM   24  C   UNL     1      44.603 -19.542   4.994  1.00  0.00     0.043 A 
HETATM   25  C   UNL     1      44.134 -18.473   4.227  1.00  0.00     0.013 A 
ENDBRANCH  16  19
ENDBRANCH  15  16
ENDBRANCH   2  15
TORSDOF 6
ENDMDL
MODEL 9
REMARK VINA RESULT:      -7.0      3.300      6.950
REMARK  6 active torsions:
REMARK  status: ('A' for Active; 'I' for Inactive)
REMARK    1  A    between atoms: N_2  and  C_4 
REMARK    2  A    between atoms: N_2  and  C_14 
REMARK    3  A    between atoms: C_5  and  O_6 
REMARK    4  A    between atoms: C_14  and  C_15 
REMARK    5  A    between atoms: C_15  and  O_16 
REMARK    6  A    between atoms: C_15  and  C_17 
ROOT
HETATM    1  C   UNL     1      43.233 -14.982   3.786  1.00  0.00     0.270 C 
HETATM    2  N   UNL     1      42.785 -15.511   2.450  1.00  0.00    -0.065 N 
HETATM    3  H   UNL     1      43.665 -15.805   1.979  1.00  0.00     0.280 HD
ENDROOT
BRANCH   2   4
HETATM    4  C   UNL     1      41.942 -16.810   2.463  1.00  0.00     0.225 C 
HETATM    5  C   UNL     1      42.632 -17.950   1.650  1.00  0.00     0.183 C 
HETATM    6  C   UNL     1      43.333 -18.711   2.738  1.00  0.00    -0.021 A 
HETATM    7  C   UNL     1      42.808 -18.375   3.997  1.00  0.00    -0.047 A 
HETATM    8  C   UNL     1      44.339 -19.657   2.621  1.00  0.00     0.010 A 
HETATM    9  C   UNL     1      41.714 -17.356   3.884  1.00  0.00     0.075 C 
HETATM   10  C   UNL     1      43.275 -18.975   5.154  1.00  0.00     0.008 A 
HETATM   11  C   UNL     1      44.298 -19.915   5.043  1.00  0.00     0.001 A 
HETATM   12  C   UNL     1      44.826 -20.254   3.787  1.00  0.00     0.001 A 
BRANCH   5  13
HETATM   13  O   UNL     1      43.504 -17.398   0.672  1.00  0.00    -0.389 OA
HETATM   14  H   UNL     1      44.020 -18.141   0.302  1.00  0.00     0.210 HD
ENDBRANCH   5  13
ENDBRANCH   2   4
BRANCH   2  15
HETATM   15  C   UNL     1      42.191 -14.431   1.553  1.00  0.00     0.271 C 
BRANCH  15  16
HETATM   16  C   UNL     1      40.697 -14.713   1.282  1.00  0.00     0.177 C 
BRANCH  16  17
HETATM   17  O   UNL     1      39.929 -13.709   1.956  1.00  0.00    -0.389 OA
HETATM   18  H   UNL     1      40.456 -13.412   2.724  1.00  0.00     0.210 HD
ENDBRANCH  16  17
BRANCH  16  19
HETATM   19  C   UNL     1      40.406 -14.752  -0.201  1.00  0.00    -0.028 A 
HETATM   20  C   UNL     1      39.338 -13.997  -0.717  1.00  0.00     0.013 A 
HETATM   21  C   UNL     1      39.021 -14.056  -2.076  1.00  0.00     0.043 A 
HETATM   22  C   UNL     1      39.767 -14.865  -2.922  1.00  0.00     0.116 A 
HETATM   23  F   UNL     1      39.458 -14.923  -4.222  1.00  0.00    -0.206 F 
HETATM   24  C   UNL     1      40.826 -15.620  -2.433  1.00  0.00     0.043 A 
HETATM   25  C   UNL     1      41.144 -15.569  -1.074  1.00  0.00     0.013 A 
ENDBRANCH  16  19
ENDBRANCH  15  16
ENDBRANCH   2  15
TORSDOF 6
ENDMDL
MODEL 10
REMARK VINA RESULT:      -7.0      3.655      7.314
REMARK  6 active torsions:
REMARK  status: ('A' for Active; 'I' for Inactive)
REMARK    1  A    between atoms: N_2  and  C_4 
REMARK    2  A    between atoms: N_2  and  C_14 
REMARK    3  A    between atoms: C_5  and  O_6 
REMARK    4  A    between atoms: C_14  and  C_15 
REMARK    5  A    between atoms: C_15  and  O_16 
REMARK    6  A    between atoms: C_15  and  C_17 
ROOT
HETATM    1  C   UNL     1      41.012 -17.561   1.295  1.00  0.00     0.270 C 
HETATM    2  N   UNL     1      41.610 -16.392   2.030  1.00  0.00    -0.065 N 
HETATM    3  H   UNL     1      41.298 -16.518   3.015  1.00  0.00     0.280 HD
ENDROOT
BRANCH   2   4
HETATM    4  C   UNL     1      43.154 -16.362   2.150  1.00  0.00     0.225 C 
HETATM    5  C   UNL     1      43.617 -16.517   3.633  1.00  0.00     0.183 C 
HETATM    6  C   UNL     1      43.906 -17.988   3.704  1.00  0.00    -0.021 A 
HETATM    7  C   UNL     1      44.033 -18.532   2.415  1.00  0.00    -0.047 A 
HETATM    8  C   UNL     1      44.081 -18.783   4.826  1.00  0.00     0.010 A 
HETATM    9  C   UNL     1      43.834 -17.491   1.355  1.00  0.00     0.075 C 
HETATM   10  C   UNL     1      44.334 -19.870   2.225  1.00  0.00     0.008 A 
HETATM   11  C   UNL     1      44.493 -20.676   3.352  1.00  0.00     0.001 A 
HETATM   12  C   UNL     1      44.367 -20.137   4.641  1.00  0.00     0.001 A 
BRANCH   5  13
HETATM   13  O   UNL     1      42.591 -16.084   4.517  1.00  0.00    -0.389 OA
HETATM   14  H   UNL     1      41.980 -15.530   3.992  1.00  0.00     0.210 HD
ENDBRANCH   5  13
ENDBRANCH   2   4
BRANCH   2  15
HETATM   15  C   UNL     1      41.027 -15.054   1.591  1.00  0.00     0.271 C 
BRANCH  15  16
HETATM   16  C   UNL     1      40.301 -15.196   0.236  1.00  0.00     0.177 C 
BRANCH  16  17
HETATM   17  O   UNL     1      38.952 -14.748   0.409  1.00  0.00    -0.389 OA
HETATM   18  H   UNL     1      38.994 -13.812   0.691  1.00  0.00     0.210 HD
ENDBRANCH  16  17
BRANCH  16  19
HETATM   19  C   UNL     1      41.019 -14.434  -0.854  1.00  0.00    -0.028 A 
HETATM   20  C   UNL     1      41.741 -13.272  -0.527  1.00  0.00     0.013 A 
HETATM   21  C   UNL     1      42.372 -12.526  -1.524  1.00  0.00     0.043 A 
HETATM   22  C   UNL     1      42.284 -12.934  -2.848  1.00  0.00     0.116 A 
HETATM   23  F   UNL     1      42.885 -12.215  -3.802  1.00  0.00    -0.206 F 
HETATM   24  C   UNL     1      41.576 -14.078  -3.194  1.00  0.00     0.043 A 
HETATM   25  C   UNL     1      40.939 -14.826  -2.201  1.00  0.00     0.013 A 
ENDBRANCH  16  19
ENDBRANCH  15  16
ENDBRANCH   2  15
TORSDOF 6
ENDMDL
