MODEL 1
REMARK VINA RESULT:      -8.1      0.000      0.000
REMARK  3 active torsions:
REMARK  status: ('A' for Active; 'I' for Inactive)
REMARK    1  A    between atoms: C_2  and  C_3 
REMARK    2  A    between atoms: N_4  and  N_5 
REMARK    3  A    between atoms: C_23  and  O_24 
ROOT
HETATM    1  N   UNL     1      42.141 -15.639   4.302  1.00  0.00    -0.189 N 
HETATM    2  C   UNL     1      41.179 -15.515   5.320  1.00  0.00     0.298 A 
HETATM    3  O   UNL     1      40.596 -16.439   5.881  1.00  0.00    -0.264 OA
HETATM    4  C   UNL     1      40.938 -14.148   5.655  1.00  0.00     0.133 A 
HETATM    5  C   UNL     1      41.549 -13.097   5.040  1.00  0.00     0.103 A 
HETATM    6  N   UNL     1      42.461 -13.255   3.996  1.00  0.00    -0.239 NA
HETATM    7  C   UNL     1      42.679 -14.504   3.693  1.00  0.00     0.239 A 
HETATM    8  N   UNL     1      40.088 -13.642   6.599  1.00  0.00    -0.349 N 
HETATM    9  H   UNL     1      39.498 -14.200   7.202  1.00  0.00     0.166 HD
HETATM   10  C   UNL     1      40.154 -12.261   6.590  1.00  0.00     0.045 A 
HETATM   11  C   UNL     1      41.083 -11.891   5.606  1.00  0.00     0.024 A 
HETATM   12  C   UNL     1      39.467 -11.321   7.366  1.00  0.00     0.032 A 
HETATM   13  C   UNL     1      39.739  -9.969   7.132  1.00  0.00     0.026 A 
HETATM   14  C   UNL     1      40.661  -9.581   6.162  1.00  0.00     0.035 A 
HETATM   15 CL   UNL     1      40.968  -7.904   5.908  1.00  0.00    -0.084 Cl
HETATM   16  C   UNL     1      41.342 -10.525   5.389  1.00  0.00     0.040 A 
ENDROOT
BRANCH   1  17
HETATM   17  N   UNL     1      42.409 -16.933   3.885  1.00  0.00    -0.175 NA
HETATM   18  C   UNL     1      43.569 -17.472   4.062  1.00  0.00     0.150 C 
BRANCH  18  19
HETATM   19  C   UNL     1      43.847 -18.845   3.586  1.00  0.00    -0.017 A 
HETATM   20  C   UNL     1      44.577 -19.740   4.373  1.00  0.00     0.016 A 
HETATM   21  C   UNL     1      44.829 -21.030   3.903  1.00  0.00     0.037 A 
HETATM   22  C   UNL     1      44.348 -21.416   2.657  1.00  0.00     0.065 A 
HETATM   23  C   UNL     1      43.619 -20.532   1.866  1.00  0.00     0.037 A 
HETATM   24  C   UNL     1      43.368 -19.238   2.330  1.00  0.00     0.016 A 
BRANCH  22  25
HETATM   25  O   UNL     1      44.616 -22.686   2.241  1.00  0.00    -0.361 OA
HETATM   26  H   UNL     1      44.962 -23.199   2.989  1.00  0.00     0.217 HD
ENDBRANCH  22  25
ENDBRANCH  18  19
ENDBRANCH   1  17
TORSDOF 3
ENDMDL
MODEL 2
REMARK VINA RESULT:      -8.1      1.680      1.786
REMARK  3 active torsions:
REMARK  status: ('A' for Active; 'I' for Inactive)
REMARK    1  A    between atoms: C_2  and  C_3 
REMARK    2  A    between atoms: N_4  and  N_5 
REMARK    3  A    between atoms: C_23  and  O_24 
ROOT
HETATM    1  N   UNL     1      41.489 -16.546   4.088  1.00  0.00    -0.189 N 
HETATM    2  C   UNL     1      41.641 -15.846   5.299  1.00  0.00     0.298 A 
HETATM    3  O   UNL     1      42.243 -16.243   6.293  1.00  0.00    -0.264 OA
HETATM    4  C   UNL     1      41.003 -14.570   5.255  1.00  0.00     0.133 A 
HETATM    5  C   UNL     1      40.308 -14.105   4.179  1.00  0.00     0.103 A 
HETATM    6  N   UNL     1      40.133 -14.848   3.012  1.00  0.00    -0.239 NA
HETATM    7  C   UNL     1      40.717 -16.013   3.055  1.00  0.00     0.239 A 
HETATM    8  N   UNL     1      40.951 -13.613   6.230  1.00  0.00    -0.349 N 
HETATM    9  H   UNL     1      41.377 -13.697   7.144  1.00  0.00     0.166 HD
HETATM   10  C   UNL     1      40.221 -12.529   5.777  1.00  0.00     0.045 A 
HETATM   11  C   UNL     1      39.806 -12.819   4.470  1.00  0.00     0.024 A 
HETATM   12  C   UNL     1      39.898 -11.329   6.421  1.00  0.00     0.032 A 
HETATM   13  C   UNL     1      39.132 -10.401   5.707  1.00  0.00     0.026 A 
HETATM   14  C   UNL     1      38.711 -10.669   4.405  1.00  0.00     0.035 A 
HETATM   15 CL   UNL     1      37.771  -9.497   3.561  1.00  0.00    -0.084 Cl
HETATM   16  C   UNL     1      39.036 -11.871   3.770  1.00  0.00     0.040 A 
ENDROOT
BRANCH   1  17
HETATM   17  N   UNL     1      42.045 -17.814   4.055  1.00  0.00    -0.175 NA
HETATM   18  C   UNL     1      42.955 -18.129   3.194  1.00  0.00     0.150 C 
BRANCH  18  19
HETATM   19  C   UNL     1      43.519 -19.496   3.154  1.00  0.00    -0.017 A 
HETATM   20  C   UNL     1      44.283 -19.986   4.218  1.00  0.00     0.016 A 
HETATM   21  C   UNL     1      44.807 -21.278   4.158  1.00  0.00     0.037 A 
HETATM   22  C   UNL     1      44.561 -22.070   3.042  1.00  0.00     0.065 A 
HETATM   23  C   UNL     1      43.800 -21.593   1.978  1.00  0.00     0.037 A 
HETATM   24  C   UNL     1      43.278 -20.297   2.032  1.00  0.00     0.016 A 
BRANCH  22  25
HETATM   25  O   UNL     1      45.090 -23.326   3.029  1.00  0.00    -0.361 OA
HETATM   26  H   UNL     1      46.034 -23.275   3.248  1.00  0.00     0.217 HD
ENDBRANCH  22  25
ENDBRANCH  18  19
ENDBRANCH   1  17
TORSDOF 3
ENDMDL
MODEL 3
REMARK VINA RESULT:      -8.0      4.970      9.171
REMARK  3 active torsions:
REMARK  status: ('A' for Active; 'I' for Inactive)
REMARK    1  A    between atoms: C_2  and  C_3 
REMARK    2  A    between atoms: N_4  and  N_5 
REMARK    3  A    between atoms: C_23  and  O_24 
ROOT
HETATM    1  N   UNL     1      40.402 -15.522   2.592  1.00  0.00    -0.189 N 
HETATM    2  C   UNL     1      41.240 -15.663   3.713  1.00  0.00     0.298 A 
HETATM    3  O   UNL     1      41.304 -14.895   4.670  1.00  0.00    -0.264 OA
HETATM    4  C   UNL     1      42.042 -16.841   3.628  1.00  0.00     0.133 A 
HETATM    5  C   UNL     1      42.015 -17.703   2.574  1.00  0.00     0.103 A 
HETATM    6  N   UNL     1      41.208 -17.505   1.453  1.00  0.00    -0.239 NA
HETATM    7  C   UNL     1      40.477 -16.429   1.534  1.00  0.00     0.239 A 
HETATM    8  N   UNL     1      42.957 -17.313   4.529  1.00  0.00    -0.349 N 
HETATM    9  H   UNL     1      43.188 -16.863   5.405  1.00  0.00     0.166 HD
HETATM   10  C   UNL     1      43.517 -18.483   4.051  1.00  0.00     0.045 A 
HETATM   11  C   UNL     1      42.928 -18.754   2.807  1.00  0.00     0.024 A 
HETATM   12  C   UNL     1      44.494 -19.310   4.617  1.00  0.00     0.032 A 
HETATM   13  C   UNL     1      44.874 -20.446   3.893  1.00  0.00     0.026 A 
HETATM   14  C   UNL     1      44.299 -20.735   2.657  1.00  0.00     0.035 A 
HETATM   15 CL   UNL     1      44.795 -22.145   1.800  1.00  0.00    -0.084 Cl
HETATM   16  C   UNL     1      43.326 -19.902   2.097  1.00  0.00     0.040 A 
ENDROOT
BRANCH   1  17
HETATM   17  N   UNL     1      39.614 -14.382   2.573  1.00  0.00    -0.175 NA
HETATM   18  C   UNL     1      38.927 -14.056   1.529  1.00  0.00     0.150 C 
BRANCH  18  19
HETATM   19  C   UNL     1      38.113 -12.821   1.514  1.00  0.00    -0.017 A 
HETATM   20  C   UNL     1      38.375 -11.782   2.414  1.00  0.00     0.016 A 
HETATM   21  C   UNL     1      37.593 -10.626   2.383  1.00  0.00     0.037 A 
HETATM   22  C   UNL     1      36.563 -10.515   1.456  1.00  0.00     0.065 A 
HETATM   23  C   UNL     1      36.295 -11.543   0.556  1.00  0.00     0.037 A 
HETATM   24  C   UNL     1      37.072 -12.705   0.586  1.00  0.00     0.016 A 
BRANCH  22  25
HETATM   25  O   UNL     1      35.828  -9.367   1.462  1.00  0.00    -0.361 OA
HETATM   26  H   UNL     1      35.861  -8.974   2.349  1.00  0.00     0.217 HD
ENDBRANCH  22  25
ENDBRANCH  18  19
ENDBRANCH   1  17
TORSDOF 3
ENDMDL
MODEL 4
REMARK VINA RESULT:      -8.0      2.151      2.362
REMARK  3 active torsions:
REMARK  status: ('A' for Active; 'I' for Inactive)
REMARK    1  A    between atoms: C_2  and  C_3 
REMARK    2  A    between atoms: N_4  and  N_5 
REMARK    3  A    between atoms: C_23  and  O_24 
ROOT
HETATM    1  N   UNL     1      41.142 -16.187   3.850  1.00  0.00    -0.189 N 
HETATM    2  C   UNL     1      40.385 -15.611   2.814  1.00  0.00     0.298 A 
HETATM    3  O   UNL     1      40.110 -16.139   1.739  1.00  0.00    -0.264 OA
HETATM    4  C   UNL     1      39.943 -14.296   3.150  1.00  0.00     0.133 A 
HETATM    5  C   UNL     1      40.246 -13.671   4.322  1.00  0.00     0.103 A 
HETATM    6  N   UNL     1      41.044 -14.252   5.307  1.00  0.00    -0.239 NA
HETATM    7  C   UNL     1      41.445 -15.453   4.997  1.00  0.00     0.239 A 
HETATM    8  N   UNL     1      39.180 -13.440   2.406  1.00  0.00    -0.349 N 
HETATM    9  H   UNL     1      38.819 -13.643   1.483  1.00  0.00     0.166 HD
HETATM   10  C   UNL     1      38.991 -12.261   3.104  1.00  0.00     0.045 A 
HETATM   11  C   UNL     1      39.658 -12.388   4.331  1.00  0.00     0.024 A 
HETATM   12  C   UNL     1      38.291 -11.104   2.743  1.00  0.00     0.032 A 
HETATM   13  C   UNL     1      38.272 -10.050   3.664  1.00  0.00     0.026 A 
HETATM   14  C   UNL     1      38.926 -10.157   4.890  1.00  0.00     0.035 A 
HETATM   15 CL   UNL     1      38.875  -8.835   5.995  1.00  0.00    -0.084 Cl
HETATM   16  C   UNL     1      39.625 -11.315   5.241  1.00  0.00     0.040 A 
ENDROOT
BRANCH   1  17
HETATM   17  N   UNL     1      41.646 -17.452   3.592  1.00  0.00    -0.175 NA
HETATM   18  C   UNL     1      42.916 -17.686   3.603  1.00  0.00     0.150 C 
BRANCH  18  19
HETATM   19  C   UNL     1      43.440 -19.036   3.297  1.00  0.00    -0.017 A 
HETATM   20  C   UNL     1      44.280 -19.697   4.199  1.00  0.00     0.016 A 
HETATM   21  C   UNL     1      44.764 -20.969   3.889  1.00  0.00     0.037 A 
HETATM   22  C   UNL     1      44.403 -21.571   2.689  1.00  0.00     0.065 A 
HETATM   23  C   UNL     1      43.565 -20.921   1.785  1.00  0.00     0.037 A 
HETATM   24  C   UNL     1      43.082 -19.645   2.089  1.00  0.00     0.016 A 
BRANCH  22  25
HETATM   25  O   UNL     1      44.897 -22.814   2.431  1.00  0.00    -0.361 OA
HETATM   26  H   UNL     1      44.160 -23.442   2.371  1.00  0.00     0.217 HD
ENDBRANCH  22  25
ENDBRANCH  18  19
ENDBRANCH   1  17
TORSDOF 3
ENDMDL
MODEL 5
REMARK VINA RESULT:      -8.0      1.254      2.225
REMARK  3 active torsions:
REMARK  status: ('A' for Active; 'I' for Inactive)
REMARK    1  A    between atoms: C_2  and  C_3 
REMARK    2  A    between atoms: N_4  and  N_5 
REMARK    3  A    between atoms: C_23  and  O_24 
ROOT
HETATM    1  N   UNL     1      41.633 -15.792   4.274  1.00  0.00    -0.189 N 
HETATM    2  C   UNL     1      42.187 -14.642   3.683  1.00  0.00     0.298 A 
HETATM    3  O   UNL     1      42.966 -14.621   2.734  1.00  0.00    -0.264 OA
HETATM    4  C   UNL     1      41.730 -13.449   4.319  1.00  0.00     0.133 A 
HETATM    5  C   UNL     1      40.883 -13.434   5.387  1.00  0.00     0.103 A 
HETATM    6  N   UNL     1      40.394 -14.597   5.982  1.00  0.00    -0.239 NA
HETATM    7  C   UNL     1      40.813 -15.684   5.398  1.00  0.00     0.239 A 
HETATM    8  N   UNL     1      42.037 -12.152   4.013  1.00  0.00    -0.349 N 
HETATM    9  H   UNL     1      42.655 -11.867   3.265  1.00  0.00     0.166 HD
HETATM   10  C   UNL     1      41.385 -11.302   4.887  1.00  0.00     0.045 A 
HETATM   11  C   UNL     1      40.639 -12.098   5.769  1.00  0.00     0.024 A 
HETATM   12  C   UNL     1      41.402  -9.905   4.966  1.00  0.00     0.032 A 
HETATM   13  C   UNL     1      40.633  -9.307   5.971  1.00  0.00     0.026 A 
HETATM   14  C   UNL     1      39.883 -10.079   6.855  1.00  0.00     0.035 A 
HETATM   15 CL   UNL     1      38.949  -9.301   8.077  1.00  0.00    -0.084 Cl
HETATM   16  C   UNL     1      39.873 -11.475   6.772  1.00  0.00     0.040 A 
ENDROOT
BRANCH   1  17
HETATM   17  N   UNL     1      42.054 -17.001   3.743  1.00  0.00    -0.175 NA
HETATM   18  C   UNL     1      43.033 -17.661   4.266  1.00  0.00     0.150 C 
BRANCH  18  19
HETATM   19  C   UNL     1      43.488 -18.937   3.670  1.00  0.00    -0.017 A 
HETATM   20  C   UNL     1      43.084 -19.309   2.384  1.00  0.00     0.016 A 
HETATM   21  C   UNL     1      43.524 -20.518   1.843  1.00  0.00     0.037 A 
HETATM   22  C   UNL     1      44.365 -21.340   2.584  1.00  0.00     0.065 A 
HETATM   23  C   UNL     1      44.774 -20.978   3.866  1.00  0.00     0.037 A 
HETATM   24  C   UNL     1      44.332 -19.770   4.414  1.00  0.00     0.016 A 
BRANCH  22  25
HETATM   25  O   UNL     1      44.772 -22.509   2.013  1.00  0.00    -0.361 OA
HETATM   26  H   UNL     1      44.035 -22.888   1.508  1.00  0.00     0.217 HD
ENDBRANCH  22  25
ENDBRANCH  18  19
ENDBRANCH   1  17
TORSDOF 3
ENDMDL
MODEL 6
REMARK VINA RESULT:      -7.9      4.358      5.005
REMARK  3 active torsions:
REMARK  status: ('A' for Active; 'I' for Inactive)
REMARK    1  A    between atoms: C_2  and  C_3 
REMARK    2  A    between atoms: N_4  and  N_5 
REMARK    3  A    between atoms: C_23  and  O_24 
ROOT
HETATM    1  N   UNL     1      41.753 -16.916   1.768  1.00  0.00    -0.189 N 
HETATM    2  C   UNL     1      40.825 -16.139   2.485  1.00  0.00     0.298 A 
HETATM    3  O   UNL     1      40.562 -16.245   3.680  1.00  0.00    -0.264 OA
HETATM    4  C   UNL     1      40.196 -15.166   1.651  1.00  0.00     0.133 A 
HETATM    5  C   UNL     1      40.447 -15.033   0.318  1.00  0.00     0.103 A 
HETATM    6  N   UNL     1      41.335 -15.857  -0.372  1.00  0.00    -0.239 NA
HETATM    7  C   UNL     1      41.909 -16.743   0.393  1.00  0.00     0.239 A 
HETATM    8  N   UNL     1      39.260 -14.231   1.995  1.00  0.00    -0.349 N 
HETATM    9  H   UNL     1      38.881 -14.109   2.925  1.00  0.00     0.166 HD
HETATM   10  C   UNL     1      38.909 -13.494   0.879  1.00  0.00     0.045 A 
HETATM   11  C   UNL     1      39.657 -13.984  -0.201  1.00  0.00     0.024 A 
HETATM   12  C   UNL     1      37.993 -12.444   0.744  1.00  0.00     0.032 A 
HETATM   13  C   UNL     1      37.841 -11.880  -0.528  1.00  0.00     0.026 A 
HETATM   14  C   UNL     1      38.578 -12.351  -1.613  1.00  0.00     0.035 A 
HETATM   15 CL   UNL     1      38.361 -11.627  -3.162  1.00  0.00    -0.084 Cl
HETATM   16  C   UNL     1      39.489 -13.402  -1.471  1.00  0.00     0.040 A 
ENDROOT
BRANCH   1  17
HETATM   17  N   UNL     1      42.384 -17.915   2.493  1.00  0.00    -0.175 NA
HETATM   18  C   UNL     1      43.058 -18.849   1.908  1.00  0.00     0.150 C 
BRANCH  18  19
HETATM   19  C   UNL     1      43.702 -19.923   2.695  1.00  0.00    -0.017 A 
HETATM   20  C   UNL     1      43.869 -21.203   2.154  1.00  0.00     0.016 A 
HETATM   21  C   UNL     1      44.477 -22.201   2.916  1.00  0.00     0.037 A 
HETATM   22  C   UNL     1      44.917 -21.916   4.203  1.00  0.00     0.065 A 
HETATM   23  C   UNL     1      44.757 -20.645   4.750  1.00  0.00     0.037 A 
HETATM   24  C   UNL     1      44.143 -19.643   3.993  1.00  0.00     0.016 A 
BRANCH  22  25
HETATM   25  O   UNL     1      45.508 -22.923   4.907  1.00  0.00    -0.361 OA
HETATM   26  H   UNL     1      45.324 -22.799   5.852  1.00  0.00     0.217 HD
ENDBRANCH  22  25
ENDBRANCH  18  19
ENDBRANCH   1  17
TORSDOF 3
ENDMDL
MODEL 7
REMARK VINA RESULT:      -7.8      4.096      4.824
REMARK  3 active torsions:
REMARK  status: ('A' for Active; 'I' for Inactive)
REMARK    1  A    between atoms: C_2  and  C_3 
REMARK    2  A    between atoms: N_4  and  N_5 
REMARK    3  A    between atoms: C_23  and  O_24 
ROOT
HETATM    1  N   UNL     1      42.401 -16.535   1.586  1.00  0.00    -0.189 N 
HETATM    2  C   UNL     1      42.618 -15.326   2.271  1.00  0.00     0.298 A 
HETATM    3  O   UNL     1      43.141 -15.203   3.375  1.00  0.00    -0.264 OA
HETATM    4  C   UNL     1      42.155 -14.203   1.519  1.00  0.00     0.133 A 
HETATM    5  C   UNL     1      41.551 -14.302   0.302  1.00  0.00     0.103 A 
HETATM    6  N   UNL     1      41.304 -15.523  -0.325  1.00  0.00    -0.239 NA
HETATM    7  C   UNL     1      41.728 -16.546   0.363  1.00  0.00     0.239 A 
HETATM    8  N   UNL     1      42.210 -12.878   1.851  1.00  0.00    -0.349 N 
HETATM    9  H   UNL     1      42.602 -12.515   2.710  1.00  0.00     0.166 HD
HETATM   10  C   UNL     1      41.639 -12.124   0.843  1.00  0.00     0.045 A 
HETATM   11  C   UNL     1      41.217 -13.010  -0.158  1.00  0.00     0.024 A 
HETATM   12  C   UNL     1      41.463 -10.738   0.745  1.00  0.00     0.032 A 
HETATM   13  C   UNL     1      40.842 -10.249  -0.409  1.00  0.00     0.026 A 
HETATM   14  C   UNL     1      40.418 -11.113  -1.417  1.00  0.00     0.035 A 
HETATM   15 CL   UNL     1      39.659 -10.466  -2.823  1.00  0.00    -0.084 Cl
HETATM   16  C   UNL     1      40.595 -12.495  -1.310  1.00  0.00     0.040 A 
ENDROOT
BRANCH   1  17
HETATM   17  N   UNL     1      42.785 -17.683   2.261  1.00  0.00    -0.175 NA
HETATM   18  C   UNL     1      43.580 -18.547   1.722  1.00  0.00     0.150 C 
BRANCH  18  19
HETATM   19  C   UNL     1      43.958 -19.781   2.446  1.00  0.00    -0.017 A 
HETATM   20  C   UNL     1      43.893 -21.028   1.815  1.00  0.00     0.016 A 
HETATM   21  C   UNL     1      44.252 -22.179   2.517  1.00  0.00     0.037 A 
HETATM   22  C   UNL     1      44.677 -22.077   3.837  1.00  0.00     0.065 A 
HETATM   23  C   UNL     1      44.747 -20.840   4.474  1.00  0.00     0.037 A 
HETATM   24  C   UNL     1      44.383 -19.685   3.776  1.00  0.00     0.016 A 
BRANCH  22  25
HETATM   25  O   UNL     1      45.021 -23.228   4.481  1.00  0.00    -0.361 OA
HETATM   26  H   UNL     1      44.260 -23.544   4.993  1.00  0.00     0.217 HD
ENDBRANCH  22  25
ENDBRANCH  18  19
ENDBRANCH   1  17
TORSDOF 3
ENDMDL
MODEL 8
REMARK VINA RESULT:      -7.8      4.841      9.380
REMARK  3 active torsions:
REMARK  status: ('A' for Active; 'I' for Inactive)
REMARK    1  A    between atoms: C_2  and  C_3 
REMARK    2  A    between atoms: N_4  and  N_5 
REMARK    3  A    between atoms: C_23  and  O_24 
ROOT
HETATM    1  N   UNL     1      43.740 -16.067   6.356  1.00  0.00    -0.189 N 
HETATM    2  C   UNL     1      44.079 -17.255   7.029  1.00  0.00     0.298 A 
HETATM    3  O   UNL     1      44.274 -17.372   8.236  1.00  0.00    -0.264 OA
HETATM    4  C   UNL     1      44.173 -18.362   6.132  1.00  0.00     0.133 A 
HETATM    5  C   UNL     1      43.985 -18.266   4.786  1.00  0.00     0.103 A 
HETATM    6  N   UNL     1      43.701 -17.061   4.144  1.00  0.00    -0.239 NA
HETATM    7  C   UNL     1      43.615 -16.053   4.966  1.00  0.00     0.239 A 
HETATM    8  N   UNL     1      44.465 -19.666   6.421  1.00  0.00    -0.349 N 
HETATM    9  H   UNL     1      44.659 -20.022   7.347  1.00  0.00     0.166 HD
HETATM   10  C   UNL     1      44.463 -20.411   5.256  1.00  0.00     0.045 A 
HETATM   11  C   UNL     1      44.154 -19.539   4.201  1.00  0.00     0.024 A 
HETATM   12  C   UNL     1      44.712 -21.774   5.057  1.00  0.00     0.032 A 
HETATM   13  C   UNL     1      44.641 -22.257   3.746  1.00  0.00     0.026 A 
HETATM   14  C   UNL     1      44.333 -21.408   2.684  1.00  0.00     0.035 A 
HETATM   15 CL   UNL     1      44.253 -22.047   1.086  1.00  0.00    -0.084 Cl
HETATM   16  C   UNL     1      44.087 -20.048   2.891  1.00  0.00     0.040 A 
ENDROOT
BRANCH   1  17
HETATM   17  N   UNL     1      43.666 -14.931   7.146  1.00  0.00    -0.175 NA
HETATM   18  C   UNL     1      44.669 -14.127   7.266  1.00  0.00     0.150 C 
BRANCH  18  19
HETATM   19  C   UNL     1      44.583 -12.934   8.136  1.00  0.00    -0.017 A 
HETATM   20  C   UNL     1      43.368 -12.264   8.312  1.00  0.00     0.016 A 
HETATM   21  C   UNL     1      43.310 -11.139   9.135  1.00  0.00     0.037 A 
HETATM   22  C   UNL     1      44.460 -10.694   9.777  1.00  0.00     0.065 A 
HETATM   23  C   UNL     1      45.675 -11.355   9.609  1.00  0.00     0.037 A 
HETATM   24  C   UNL     1      45.739 -12.479   8.781  1.00  0.00     0.016 A 
BRANCH  22  25
HETATM   25  O   UNL     1      44.354  -9.593  10.574  1.00  0.00    -0.361 OA
HETATM   26  H   UNL     1      43.492  -9.605  11.019  1.00  0.00     0.217 HD
ENDBRANCH  22  25
ENDBRANCH  18  19
ENDBRANCH   1  17
TORSDOF 3
ENDMDL
MODEL 9
REMARK VINA RESULT:      -7.8      4.871      6.603
REMARK  3 active torsions:
REMARK  status: ('A' for Active; 'I' for Inactive)
REMARK    1  A    between atoms: C_2  and  C_3 
REMARK    2  A    between atoms: N_4  and  N_5 
REMARK    3  A    between atoms: C_23  and  O_24 
ROOT
HETATM    1  N   UNL     1      41.932 -15.794   2.737  1.00  0.00    -0.189 N 
HETATM    2  C   UNL     1      42.333 -16.391   1.528  1.00  0.00     0.298 A 
HETATM    3  O   UNL     1      43.146 -17.304   1.407  1.00  0.00    -0.264 OA
HETATM    4  C   UNL     1      41.669 -15.809   0.406  1.00  0.00     0.133 A 
HETATM    5  C   UNL     1      40.779 -14.782   0.500  1.00  0.00     0.103 A 
HETATM    6  N   UNL     1      40.443 -14.178   1.712  1.00  0.00    -0.239 NA
HETATM    7  C   UNL     1      41.051 -14.712   2.734  1.00  0.00     0.239 A 
HETATM    8  N   UNL     1      41.790 -16.136  -0.916  1.00  0.00    -0.349 N 
HETATM    9  H   UNL     1      42.394 -16.863  -1.276  1.00  0.00     0.166 HD
HETATM   10  C   UNL     1      40.974 -15.316  -1.673  1.00  0.00     0.045 A 
HETATM   11  C   UNL     1      40.316 -14.448  -0.790  1.00  0.00     0.024 A 
HETATM   12  C   UNL     1      40.775 -15.276  -3.058  1.00  0.00     0.032 A 
HETATM   13  C   UNL     1      39.875 -14.324  -3.551  1.00  0.00     0.026 A 
HETATM   14  C   UNL     1      39.209 -13.453  -2.691  1.00  0.00     0.035 A 
HETATM   15 CL   UNL     1      38.108 -12.298  -3.341  1.00  0.00    -0.084 Cl
HETATM   16  C   UNL     1      39.416 -13.499  -1.309  1.00  0.00     0.040 A 
ENDROOT
BRANCH   1  17
HETATM   17  N   UNL     1      42.558 -16.272   3.878  1.00  0.00    -0.175 NA
HETATM   18  C   UNL     1      41.949 -17.061   4.699  1.00  0.00     0.150 C 
BRANCH  18  19
HETATM   19  C   UNL     1      42.622 -17.540   5.927  1.00  0.00    -0.017 A 
HETATM   20  C   UNL     1      42.680 -16.736   7.070  1.00  0.00     0.016 A 
HETATM   21  C   UNL     1      43.322 -17.207   8.216  1.00  0.00     0.037 A 
HETATM   22  C   UNL     1      43.894 -18.474   8.215  1.00  0.00     0.065 A 
HETATM   23  C   UNL     1      43.841 -19.283   7.082  1.00  0.00     0.037 A 
HETATM   24  C   UNL     1      43.203 -18.813   5.930  1.00  0.00     0.016 A 
BRANCH  22  25
HETATM   25  O   UNL     1      44.507 -18.892   9.358  1.00  0.00    -0.361 OA
HETATM   26  H   UNL     1      44.066 -18.487  10.121  1.00  0.00     0.217 HD
ENDBRANCH  22  25
ENDBRANCH  18  19
ENDBRANCH   1  17
TORSDOF 3
ENDMDL
MODEL 10
REMARK VINA RESULT:      -7.8      3.346      3.884
REMARK  3 active torsions:
REMARK  status: ('A' for Active; 'I' for Inactive)
REMARK    1  A    between atoms: C_2  and  C_3 
REMARK    2  A    between atoms: N_4  and  N_5 
REMARK    3  A    between atoms: C_23  and  O_24 
ROOT
HETATM    1  N   UNL     1      40.957 -16.571   3.642  1.00  0.00    -0.189 N 
HETATM    2  C   UNL     1      40.323 -16.546   2.387  1.00  0.00     0.298 A 
HETATM    3  O   UNL     1      40.283 -17.469   1.577  1.00  0.00    -0.264 OA
HETATM    4  C   UNL     1      39.697 -15.288   2.136  1.00  0.00     0.133 A 
HETATM    5  C   UNL     1      39.739 -14.235   3.000  1.00  0.00     0.103 A 
HETATM    6  N   UNL     1      40.422 -14.277   4.215  1.00  0.00    -0.239 NA
HETATM    7  C   UNL     1      40.992 -15.428   4.441  1.00  0.00     0.239 A 
HETATM    8  N   UNL     1      38.979 -14.899   1.040  1.00  0.00    -0.349 N 
HETATM    9  H   UNL     1      38.797 -15.482   0.234  1.00  0.00     0.166 HD
HETATM   10  C   UNL     1      38.558 -13.592   1.200  1.00  0.00     0.045 A 
HETATM   11  C   UNL     1      39.027 -13.149   2.446  1.00  0.00     0.024 A 
HETATM   12  C   UNL     1      37.809 -12.775   0.345  1.00  0.00     0.032 A 
HETATM   13  C   UNL     1      37.530 -11.474   0.777  1.00  0.00     0.026 A 
HETATM   14  C   UNL     1      37.984 -11.016   2.013  1.00  0.00     0.035 A 
HETATM   15 CL   UNL     1      37.616  -9.407   2.506  1.00  0.00    -0.084 Cl
HETATM   16  C   UNL     1      38.734 -11.837   2.860  1.00  0.00     0.040 A 
ENDROOT
BRANCH   1  17
HETATM   17  N   UNL     1      41.626 -17.745   3.951  1.00  0.00    -0.175 NA
HETATM   18  C   UNL     1      42.913 -17.827   3.878  1.00  0.00     0.150 C 
BRANCH  18  19
HETATM   19  C   UNL     1      43.609 -19.096   4.185  1.00  0.00    -0.017 A 
HETATM   20  C   UNL     1      44.120 -19.897   3.159  1.00  0.00     0.016 A 
HETATM   21  C   UNL     1      44.771 -21.091   3.471  1.00  0.00     0.037 A 
HETATM   22  C   UNL     1      44.911 -21.472   4.801  1.00  0.00     0.065 A 
HETATM   23  C   UNL     1      44.407 -20.681   5.830  1.00  0.00     0.037 A 
HETATM   24  C   UNL     1      43.749 -19.487   5.522  1.00  0.00     0.016 A 
BRANCH  22  25
HETATM   25  O   UNL     1      45.557 -22.645   5.058  1.00  0.00    -0.361 OA
HETATM   26  H   UNL     1      46.361 -22.689   4.516  1.00  0.00     0.217 HD
ENDBRANCH  22  25
ENDBRANCH  18  19
ENDBRANCH   1  17
TORSDOF 3
ENDMDL
