MODEL 1
REMARK VINA RESULT:      -9.2      0.000      0.000
REMARK  4 active torsions:
REMARK  status: ('A' for Active; 'I' for Inactive)
REMARK    1  A    between atoms: C_6  and  C_7 
REMARK    2  A    between atoms: C_7  and  C_8 
REMARK       I    between atoms: C_8  and  N_9 
REMARK    3  A    between atoms: N_9  and  C_10 
REMARK    4  A    between atoms: C_12  and  C_13 
ROOT
HETATM    1  C   UNL     1      42.045 -16.012   4.436  1.00  0.00     0.226 C 
HETATM    2  N   UNL     1      42.145 -15.151   3.353  1.00  0.00    -0.327 N 
HETATM    3  O   UNL     1      41.039 -16.625   4.785  1.00  0.00    -0.273 OA
HETATM    4  H   UNL     1      43.022 -14.659   3.256  1.00  0.00     0.169 HD
ENDROOT
BRANCH   1   5
HETATM    5  C   UNL     1      43.365 -16.174   5.181  1.00  0.00     0.144 C 
BRANCH   5   6
HETATM    6  C   UNL     1      43.848 -17.587   5.179  1.00  0.00    -0.021 A 
HETATM    7  C   UNL     1      43.828 -18.517   4.088  1.00  0.00    -0.001 A 
HETATM    8  C   UNL     1      44.372 -19.715   4.551  1.00  0.00     0.043 A 
HETATM    9  C   UNL     1      43.401 -18.457   2.746  1.00  0.00     0.015 A 
HETATM   10  C   UNL     1      44.518 -20.849   3.742  1.00  0.00     0.037 A 
HETATM   11  N   UNL     1      44.703 -19.528   5.872  1.00  0.00    -0.365 N 
HETATM   12  C   UNL     1      44.086 -20.772   2.410  1.00  0.00    -0.060 A 
HETATM   13  C   UNL     1      44.261 -21.952   1.497  1.00  0.00     0.048 C 
HETATM   14  C   UNL     1      43.545 -19.581   1.921  1.00  0.00     0.007 A 
HETATM   15  C   UNL     1      44.387 -18.256   6.262  1.00  0.00     0.097 A 
HETATM   16  H   UNL     1      45.117 -20.234   6.465  1.00  0.00     0.165 HD
ENDBRANCH   5   6
ENDBRANCH   1   5
BRANCH   2  17
HETATM   17  C   UNL     1      41.166 -14.855   2.383  1.00  0.00     0.035 A 
HETATM   18  C   UNL     1      41.578 -14.859   1.040  1.00  0.00     0.042 A 
HETATM   19  C   UNL     1      40.672 -14.608  -0.003  1.00  0.00    -0.021 A 
HETATM   20  C   UNL     1      39.339 -14.336   0.319  1.00  0.00     0.012 A 
HETATM   21  C   UNL     1      38.922 -14.323   1.651  1.00  0.00     0.003 A 
HETATM   22  C   UNL     1      39.831 -14.585   2.679  1.00  0.00     0.029 A 
BRANCH  19  23
HETATM   23  C   UNL     1      41.100 -14.626  -1.394  1.00  0.00     0.010 A 
HETATM   24  C   UNL     1      40.843 -15.557  -2.430  1.00  0.00     0.152 A 
HETATM   25  N   UNL     1      41.436 -15.229  -3.582  1.00  0.00    -0.187 NA
HETATM   26  N   UNL     1      42.080 -14.090  -3.290  1.00  0.00    -0.289 N 
HETATM   27  H   UNL     1      42.620 -13.642  -4.023  1.00  0.00     0.188 HD
HETATM   28  C   UNL     1      41.913 -13.687  -1.996  1.00  0.00     0.123 A 
ENDBRANCH  19  23
ENDBRANCH   2  17
TORSDOF 4
ENDMDL
MODEL 2
REMARK VINA RESULT:      -9.1      2.301      3.073
REMARK  4 active torsions:
REMARK  status: ('A' for Active; 'I' for Inactive)
REMARK    1  A    between atoms: C_6  and  C_7 
REMARK    2  A    between atoms: C_7  and  C_8 
REMARK       I    between atoms: C_8  and  N_9 
REMARK    3  A    between atoms: N_9  and  C_10 
REMARK    4  A    between atoms: C_12  and  C_13 
ROOT
HETATM    1  C   UNL     1      41.987 -16.748   0.730  1.00  0.00     0.226 C 
HETATM    2  N   UNL     1      42.161 -15.490   0.174  1.00  0.00    -0.327 N 
HETATM    3  O   UNL     1      40.921 -17.240   1.090  1.00  0.00    -0.273 OA
HETATM    4  H   UNL     1      43.117 -15.203   0.013  1.00  0.00     0.169 HD
ENDROOT
BRANCH   1   5
HETATM    5  C   UNL     1      43.291 -17.531   0.833  1.00  0.00     0.144 C 
BRANCH   5   6
HETATM    6  C   UNL     1      43.626 -17.893   2.242  1.00  0.00    -0.021 A 
HETATM    7  C   UNL     1      43.982 -19.186   2.752  1.00  0.00    -0.001 A 
HETATM    8  C   UNL     1      44.201 -19.047   4.122  1.00  0.00     0.043 A 
HETATM    9  C   UNL     1      44.141 -20.464   2.181  1.00  0.00     0.015 A 
HETATM   10  C   UNL     1      44.577 -20.116   4.946  1.00  0.00     0.037 A 
HETATM   11  N   UNL     1      43.980 -17.728   4.439  1.00  0.00    -0.365 N 
HETATM   12  C   UNL     1      44.730 -21.382   4.361  1.00  0.00    -0.060 A 
HETATM   13  C   UNL     1      45.172 -22.546   5.200  1.00  0.00     0.048 C 
HETATM   14  C   UNL     1      44.523 -21.543   2.989  1.00  0.00     0.007 A 
HETATM   15  C   UNL     1      43.630 -17.027   3.319  1.00  0.00     0.097 A 
HETATM   16  H   UNL     1      44.065 -17.339   5.368  1.00  0.00     0.165 HD
ENDBRANCH   5   6
ENDBRANCH   1   5
BRANCH   2  17
HETATM   17  C   UNL     1      41.173 -14.547  -0.173  1.00  0.00     0.035 A 
HETATM   18  C   UNL     1      40.380 -14.837  -1.295  1.00  0.00     0.042 A 
HETATM   19  C   UNL     1      39.348 -13.977  -1.704  1.00  0.00    -0.021 A 
HETATM   20  C   UNL     1      39.127 -12.804  -0.976  1.00  0.00     0.012 A 
HETATM   21  C   UNL     1      39.914 -12.504   0.137  1.00  0.00     0.003 A 
HETATM   22  C   UNL     1      40.931 -13.373   0.539  1.00  0.00     0.029 A 
BRANCH  19  23
HETATM   23  C   UNL     1      38.520 -14.288  -2.860  1.00  0.00     0.010 A 
HETATM   24  C   UNL     1      38.468 -15.443  -3.678  1.00  0.00     0.152 A 
HETATM   25  N   UNL     1      37.576 -15.339  -4.668  1.00  0.00    -0.187 NA
HETATM   26  N   UNL     1      37.057 -14.115  -4.493  1.00  0.00    -0.289 N 
HETATM   27  H   UNL     1      36.344 -13.799  -5.143  1.00  0.00     0.188 HD
HETATM   28  C   UNL     1      37.587 -13.445  -3.429  1.00  0.00     0.123 A 
ENDBRANCH  19  23
ENDBRANCH   2  17
TORSDOF 4
ENDMDL
MODEL 3
REMARK VINA RESULT:      -9.0      4.945      8.183
REMARK  4 active torsions:
REMARK  status: ('A' for Active; 'I' for Inactive)
REMARK    1  A    between atoms: C_6  and  C_7 
REMARK    2  A    between atoms: C_7  and  C_8 
REMARK       I    between atoms: C_8  and  N_9 
REMARK    3  A    between atoms: N_9  and  C_10 
REMARK    4  A    between atoms: C_12  and  C_13 
ROOT
HETATM    1  C   UNL     1      43.614 -14.521   5.482  1.00  0.00     0.226 C 
HETATM    2  N   UNL     1      43.780 -14.401   6.853  1.00  0.00    -0.327 N 
HETATM    3  O   UNL     1      44.100 -13.788   4.625  1.00  0.00    -0.273 OA
HETATM    4  H   UNL     1      43.240 -15.035   7.424  1.00  0.00     0.169 HD
ENDROOT
BRANCH   1   5
HETATM    5  C   UNL     1      42.759 -15.724   5.098  1.00  0.00     0.144 C 
BRANCH   5   6
HETATM    6  C   UNL     1      43.540 -16.997   5.096  1.00  0.00    -0.021 A 
HETATM    7  C   UNL     1      43.513 -18.038   4.110  1.00  0.00    -0.001 A 
HETATM    8  C   UNL     1      44.396 -19.032   4.530  1.00  0.00     0.043 A 
HETATM    9  C   UNL     1      42.824 -18.232   2.896  1.00  0.00     0.015 A 
HETATM   10  C   UNL     1      44.631 -20.204   3.797  1.00  0.00     0.037 A 
HETATM   11  N   UNL     1      44.933 -18.621   5.727  1.00  0.00    -0.365 N 
HETATM   12  C   UNL     1      43.935 -20.381   2.592  1.00  0.00    -0.060 A 
HETATM   13  C   UNL     1      44.187 -21.602   1.755  1.00  0.00     0.048 C 
HETATM   14  C   UNL     1      43.051 -19.395   2.147  1.00  0.00     0.007 A 
HETATM   15  C   UNL     1      44.422 -17.403   6.079  1.00  0.00     0.097 A 
HETATM   16  H   UNL     1      45.607 -19.149   6.265  1.00  0.00     0.165 HD
ENDBRANCH   5   6
ENDBRANCH   1   5
BRANCH   2  17
HETATM   17  C   UNL     1      44.591 -13.485   7.554  1.00  0.00     0.035 A 
HETATM   18  C   UNL     1      44.032 -12.880   8.692  1.00  0.00     0.042 A 
HETATM   19  C   UNL     1      44.767 -11.978   9.477  1.00  0.00    -0.021 A 
HETATM   20  C   UNL     1      46.079 -11.675   9.097  1.00  0.00     0.012 A 
HETATM   21  C   UNL     1      46.640 -12.266   7.963  1.00  0.00     0.003 A 
HETATM   22  C   UNL     1      45.900 -13.170   7.197  1.00  0.00     0.029 A 
BRANCH  19  23
HETATM   23  C   UNL     1      44.189 -11.364  10.663  1.00  0.00     0.010 A 
HETATM   24  C   UNL     1      43.626 -11.944  11.825  1.00  0.00     0.152 A 
HETATM   25  N   UNL     1      43.179 -11.034  12.696  1.00  0.00    -0.187 NA
HETATM   26  N   UNL     1      43.447  -9.867  12.094  1.00  0.00    -0.289 N 
HETATM   27  H   UNL     1      43.187  -9.010  12.571  1.00  0.00     0.188 HD
HETATM   28  C   UNL     1      44.050 -10.007  10.877  1.00  0.00     0.123 A 
ENDBRANCH  19  23
ENDBRANCH   2  17
TORSDOF 4
ENDMDL
MODEL 4
REMARK VINA RESULT:      -8.7      1.487      1.895
REMARK  4 active torsions:
REMARK  status: ('A' for Active; 'I' for Inactive)
REMARK    1  A    between atoms: C_6  and  C_7 
REMARK    2  A    between atoms: C_7  and  C_8 
REMARK       I    between atoms: C_8  and  N_9 
REMARK    3  A    between atoms: N_9  and  C_10 
REMARK    4  A    between atoms: C_12  and  C_13 
ROOT
HETATM    1  C   UNL     1      42.787 -14.994   3.339  1.00  0.00     0.226 C 
HETATM    2  N   UNL     1      41.718 -14.804   2.477  1.00  0.00    -0.327 N 
HETATM    3  O   UNL     1      43.921 -14.542   3.199  1.00  0.00    -0.273 OA
HETATM    4  H   UNL     1      40.875 -15.317   2.694  1.00  0.00     0.169 HD
ENDROOT
BRANCH   1   5
HETATM    5  C   UNL     1      42.415 -15.825   4.562  1.00  0.00     0.144 C 
BRANCH   5   6
HETATM    6  C   UNL     1      43.275 -17.036   4.708  1.00  0.00    -0.021 A 
HETATM    7  C   UNL     1      43.373 -18.153   3.813  1.00  0.00    -0.001 A 
HETATM    8  C   UNL     1      44.293 -19.046   4.361  1.00  0.00     0.043 A 
HETATM    9  C   UNL     1      42.768 -18.493   2.586  1.00  0.00     0.015 A 
HETATM   10  C   UNL     1      44.644 -20.254   3.743  1.00  0.00     0.037 A 
HETATM   11  N   UNL     1      44.733 -18.504   5.544  1.00  0.00    -0.365 N 
HETATM   12  C   UNL     1      44.031 -20.576   2.523  1.00  0.00    -0.060 A 
HETATM   13  C   UNL     1      44.409 -21.840   1.806  1.00  0.00     0.048 C 
HETATM   14  C   UNL     1      43.112 -19.693   1.951  1.00  0.00     0.007 A 
HETATM   15  C   UNL     1      44.125 -17.299   5.766  1.00  0.00     0.097 A 
HETATM   16  H   UNL     1      45.408 -18.938   6.159  1.00  0.00     0.165 HD
ENDBRANCH   5   6
ENDBRANCH   1   5
BRANCH   2  17
HETATM   17  C   UNL     1      41.666 -14.003   1.318  1.00  0.00     0.035 A 
HETATM   18  C   UNL     1      41.112 -14.585   0.166  1.00  0.00     0.042 A 
HETATM   19  C   UNL     1      40.986 -13.862  -1.031  1.00  0.00    -0.021 A 
HETATM   20  C   UNL     1      41.439 -12.539  -1.064  1.00  0.00     0.012 A 
HETATM   21  C   UNL     1      41.997 -11.954   0.074  1.00  0.00     0.003 A 
HETATM   22  C   UNL     1      42.107 -12.683   1.261  1.00  0.00     0.029 A 
BRANCH  19  23
HETATM   23  C   UNL     1      40.399 -14.464  -2.219  1.00  0.00     0.010 A 
HETATM   24  C   UNL     1      40.710 -15.668  -2.897  1.00  0.00     0.152 A 
HETATM   25  N   UNL     1      39.948 -15.869  -3.975  1.00  0.00    -0.187 NA
HETATM   26  N   UNL     1      39.149 -14.792  -3.999  1.00  0.00    -0.289 N 
HETATM   27  H   UNL     1      38.470 -14.715  -4.749  1.00  0.00     0.188 HD
HETATM   28  C   UNL     1      39.378 -13.922  -2.973  1.00  0.00     0.123 A 
ENDBRANCH  19  23
ENDBRANCH   2  17
TORSDOF 4
ENDMDL
MODEL 5
REMARK VINA RESULT:      -8.7      2.476      4.046
REMARK  4 active torsions:
REMARK  status: ('A' for Active; 'I' for Inactive)
REMARK    1  A    between atoms: C_6  and  C_7 
REMARK    2  A    between atoms: C_7  and  C_8 
REMARK       I    between atoms: C_8  and  N_9 
REMARK    3  A    between atoms: N_9  and  C_10 
REMARK    4  A    between atoms: C_12  and  C_13 
ROOT
HETATM    1  C   UNL     1      41.972 -16.916   0.700  1.00  0.00     0.226 C 
HETATM    2  N   UNL     1      42.035 -15.641   0.157  1.00  0.00    -0.327 N 
HETATM    3  O   UNL     1      40.951 -17.517   1.024  1.00  0.00    -0.273 OA
HETATM    4  H   UNL     1      42.960 -15.258   0.027  1.00  0.00     0.169 HD
ENDROOT
BRANCH   1   5
HETATM    5  C   UNL     1      43.346 -17.563   0.836  1.00  0.00     0.144 C 
BRANCH   5   6
HETATM    6  C   UNL     1      43.662 -17.930   2.248  1.00  0.00    -0.021 A 
HETATM    7  C   UNL     1      44.009 -19.225   2.759  1.00  0.00    -0.001 A 
HETATM    8  C   UNL     1      44.211 -19.091   4.132  1.00  0.00     0.043 A 
HETATM    9  C   UNL     1      44.175 -20.502   2.185  1.00  0.00     0.015 A 
HETATM   10  C   UNL     1      44.575 -20.163   4.958  1.00  0.00     0.037 A 
HETATM   11  N   UNL     1      43.988 -17.773   4.450  1.00  0.00    -0.365 N 
HETATM   12  C   UNL     1      44.734 -21.427   4.370  1.00  0.00    -0.060 A 
HETATM   13  C   UNL     1      45.164 -22.595   5.211  1.00  0.00     0.048 C 
HETATM   14  C   UNL     1      44.546 -21.584   2.995  1.00  0.00     0.007 A 
HETATM   15  C   UNL     1      43.652 -17.068   3.328  1.00  0.00     0.097 A 
HETATM   16  H   UNL     1      44.061 -17.387   5.382  1.00  0.00     0.165 HD
ENDBRANCH   5   6
ENDBRANCH   1   5
BRANCH   2  17
HETATM   17  C   UNL     1      40.966 -14.799  -0.213  1.00  0.00     0.035 A 
HETATM   18  C   UNL     1      40.404 -14.002   0.797  1.00  0.00     0.042 A 
HETATM   19  C   UNL     1      39.357 -13.108   0.525  1.00  0.00    -0.021 A 
HETATM   20  C   UNL     1      38.865 -13.030  -0.782  1.00  0.00     0.012 A 
HETATM   21  C   UNL     1      39.413 -13.824  -1.791  1.00  0.00     0.003 A 
HETATM   22  C   UNL     1      40.461 -14.703  -1.508  1.00  0.00     0.029 A 
BRANCH  19  23
HETATM   23  C   UNL     1      38.785 -12.273   1.572  1.00  0.00     0.010 A 
HETATM   24  C   UNL     1      39.119 -12.149   2.943  1.00  0.00     0.152 A 
HETATM   25  N   UNL     1      38.339 -11.278   3.590  1.00  0.00    -0.187 NA
HETATM   26  N   UNL     1      37.498 -10.844   2.640  1.00  0.00    -0.289 N 
HETATM   27  H   UNL     1      36.792 -10.163   2.899  1.00  0.00     0.188 HD
HETATM   28  C   UNL     1      37.721 -11.408   1.417  1.00  0.00     0.123 A 
ENDBRANCH  19  23
ENDBRANCH   2  17
TORSDOF 4
ENDMDL
MODEL 6
REMARK VINA RESULT:      -8.6      1.830      7.413
REMARK  4 active torsions:
REMARK  status: ('A' for Active; 'I' for Inactive)
REMARK    1  A    between atoms: C_6  and  C_7 
REMARK    2  A    between atoms: C_7  and  C_8 
REMARK       I    between atoms: C_8  and  N_9 
REMARK    3  A    between atoms: N_9  and  C_10 
REMARK    4  A    between atoms: C_12  and  C_13 
ROOT
HETATM    1  C   UNL     1      41.342 -15.780   4.695  1.00  0.00     0.226 C 
HETATM    2  N   UNL     1      42.563 -16.247   4.233  1.00  0.00    -0.327 N 
HETATM    3  O   UNL     1      40.750 -16.167   5.700  1.00  0.00    -0.273 OA
HETATM    4  H   UNL     1      42.870 -15.883   3.342  1.00  0.00     0.169 HD
ENDROOT
BRANCH   1   5
HETATM    5  C   UNL     1      40.776 -14.660   3.830  1.00  0.00     0.144 C 
BRANCH   5   6
HETATM    6  C   UNL     1      40.762 -15.016   2.379  1.00  0.00    -0.021 A 
HETATM    7  C   UNL     1      41.223 -14.219   1.279  1.00  0.00    -0.001 A 
HETATM    8  C   UNL     1      41.005 -14.953   0.113  1.00  0.00     0.043 A 
HETATM    9  C   UNL     1      41.809 -12.943   1.159  1.00  0.00     0.015 A 
HETATM   10  C   UNL     1      41.348 -14.481  -1.161  1.00  0.00     0.037 A 
HETATM   11  N   UNL     1      40.427 -16.144   0.484  1.00  0.00    -0.365 N 
HETATM   12  C   UNL     1      41.928 -13.208  -1.261  1.00  0.00    -0.060 A 
HETATM   13  C   UNL     1      42.349 -12.681  -2.603  1.00  0.00     0.048 C 
HETATM   14  C   UNL     1      42.164 -12.458  -0.106  1.00  0.00     0.007 A 
HETATM   15  C   UNL     1      40.271 -16.190   1.841  1.00  0.00     0.097 A 
HETATM   16  H   UNL     1      40.156 -16.875  -0.160  1.00  0.00     0.165 HD
ENDBRANCH   5   6
ENDBRANCH   1   5
BRANCH   2  17
HETATM   17  C   UNL     1      43.421 -17.188   4.839  1.00  0.00     0.035 A 
HETATM   18  C   UNL     1      43.532 -18.442   4.215  1.00  0.00     0.042 A 
HETATM   19  C   UNL     1      44.384 -19.437   4.721  1.00  0.00    -0.021 A 
HETATM   20  C   UNL     1      45.119 -19.163   5.879  1.00  0.00     0.012 A 
HETATM   21  C   UNL     1      45.009 -17.923   6.509  1.00  0.00     0.003 A 
HETATM   22  C   UNL     1      44.166 -16.938   5.989  1.00  0.00     0.029 A 
BRANCH  19  23
HETATM   23  C   UNL     1      44.507 -20.730   4.065  1.00  0.00     0.010 A 
HETATM   24  C   UNL     1      44.321 -21.103   2.712  1.00  0.00     0.152 A 
HETATM   25  N   UNL     1      44.511 -22.409   2.502  1.00  0.00    -0.187 NA
HETATM   26  N   UNL     1      44.814 -22.881   3.720  1.00  0.00    -0.289 N 
HETATM   27  H   UNL     1      44.999 -23.874   3.818  1.00  0.00     0.188 HD
HETATM   28  C   UNL     1      44.823 -21.920   4.689  1.00  0.00     0.123 A 
ENDBRANCH  19  23
ENDBRANCH   2  17
TORSDOF 4
ENDMDL
MODEL 7
REMARK VINA RESULT:      -8.6      2.060      7.804
REMARK  4 active torsions:
REMARK  status: ('A' for Active; 'I' for Inactive)
REMARK    1  A    between atoms: C_6  and  C_7 
REMARK    2  A    between atoms: C_7  and  C_8 
REMARK       I    between atoms: C_8  and  N_9 
REMARK    3  A    between atoms: N_9  and  C_10 
REMARK    4  A    between atoms: C_12  and  C_13 
ROOT
HETATM    1  C   UNL     1      41.894 -14.819   2.523  1.00  0.00     0.226 C 
HETATM    2  N   UNL     1      43.099 -15.469   2.744  1.00  0.00    -0.327 N 
HETATM    3  O   UNL     1      40.798 -15.153   2.965  1.00  0.00    -0.273 OA
HETATM    4  H   UNL     1      43.896 -15.114   2.235  1.00  0.00     0.169 HD
ENDROOT
BRANCH   1   5
HETATM    5  C   UNL     1      42.052 -13.566   1.669  1.00  0.00     0.144 C 
BRANCH   5   6
HETATM    6  C   UNL     1      41.845 -13.841   0.216  1.00  0.00    -0.021 A 
HETATM    7  C   UNL     1      42.071 -12.948  -0.884  1.00  0.00    -0.001 A 
HETATM    8  C   UNL     1      41.735 -13.632  -2.052  1.00  0.00     0.043 A 
HETATM    9  C   UNL     1      42.531 -11.620  -1.001  1.00  0.00     0.015 A 
HETATM   10  C   UNL     1      41.843 -13.062  -3.327  1.00  0.00     0.037 A 
HETATM   11  N   UNL     1      41.313 -14.886  -1.682  1.00  0.00    -0.365 N 
HETATM   12  C   UNL     1      42.302 -11.739  -3.425  1.00  0.00    -0.060 A 
HETATM   13  C   UNL     1      42.472 -11.104  -4.775  1.00  0.00     0.048 C 
HETATM   14  C   UNL     1      42.652 -11.037  -2.270  1.00  0.00     0.007 A 
HETATM   15  C   UNL     1      41.370 -15.021  -0.323  1.00  0.00     0.097 A 
HETATM   16  H   UNL     1      41.005 -15.602  -2.327  1.00  0.00     0.165 HD
ENDBRANCH   5   6
ENDBRANCH   1   5
BRANCH   2  17
HETATM   17  C   UNL     1      43.348 -16.583   3.572  1.00  0.00     0.035 A 
HETATM   18  C   UNL     1      43.506 -17.826   2.937  1.00  0.00     0.042 A 
HETATM   19  C   UNL     1      43.788 -18.990   3.668  1.00  0.00    -0.021 A 
HETATM   20  C   UNL     1      43.897 -18.897   5.060  1.00  0.00     0.012 A 
HETATM   21  C   UNL     1      43.734 -17.667   5.700  1.00  0.00     0.003 A 
HETATM   22  C   UNL     1      43.464 -16.514   4.959  1.00  0.00     0.029 A 
BRANCH  19  23
HETATM   23  C   UNL     1      43.965 -20.274   3.006  1.00  0.00     0.010 A 
HETATM   24  C   UNL     1      44.662 -21.438   3.412  1.00  0.00     0.152 A 
HETATM   25  N   UNL     1      44.608 -22.419   2.507  1.00  0.00    -0.187 NA
HETATM   26  N   UNL     1      43.881 -21.888   1.513  1.00  0.00    -0.289 N 
HETATM   27  H   UNL     1      43.705 -22.456   0.691  1.00  0.00     0.188 HD
HETATM   28  C   UNL     1      43.473 -20.609   1.760  1.00  0.00     0.123 A 
ENDBRANCH  19  23
ENDBRANCH   2  17
TORSDOF 4
ENDMDL
MODEL 8
REMARK VINA RESULT:      -8.6      2.497      6.832
REMARK  4 active torsions:
REMARK  status: ('A' for Active; 'I' for Inactive)
REMARK    1  A    between atoms: C_6  and  C_7 
REMARK    2  A    between atoms: C_7  and  C_8 
REMARK       I    between atoms: C_8  and  N_9 
REMARK    3  A    between atoms: N_9  and  C_10 
REMARK    4  A    between atoms: C_12  and  C_13 
ROOT
HETATM    1  C   UNL     1      40.973 -16.077   5.735  1.00  0.00     0.226 C 
HETATM    2  N   UNL     1      42.223 -16.166   5.142  1.00  0.00    -0.327 N 
HETATM    3  O   UNL     1      40.450 -16.921   6.457  1.00  0.00    -0.273 OA
HETATM    4  H   UNL     1      42.468 -15.421   4.506  1.00  0.00     0.169 HD
ENDROOT
BRANCH   1   5
HETATM    5  C   UNL     1      40.273 -14.756   5.432  1.00  0.00     0.144 C 
BRANCH   5   6
HETATM    6  C   UNL     1      40.965 -13.980   4.360  1.00  0.00    -0.021 A 
HETATM    7  C   UNL     1      40.929 -14.219   2.946  1.00  0.00    -0.001 A 
HETATM    8  C   UNL     1      41.728 -13.250   2.340  1.00  0.00     0.043 A 
HETATM    9  C   UNL     1      40.292 -15.166   2.119  1.00  0.00     0.015 A 
HETATM   10  C   UNL     1      41.916 -13.175   0.953  1.00  0.00     0.037 A 
HETATM   11  N   UNL     1      42.238 -12.458   3.341  1.00  0.00    -0.365 N 
HETATM   12  C   UNL     1      41.276 -14.126   0.146  1.00  0.00    -0.060 A 
HETATM   13  C   UNL     1      41.417 -14.057  -1.348  1.00  0.00     0.048 C 
HETATM   14  C   UNL     1      40.464 -15.101   0.729  1.00  0.00     0.007 A 
HETATM   15  C   UNL     1      41.791 -12.890   4.558  1.00  0.00     0.097 A 
HETATM   16  H   UNL     1      42.855 -11.671   3.192  1.00  0.00     0.165 HD
ENDBRANCH   5   6
ENDBRANCH   1   5
BRANCH   2  17
HETATM   17  C   UNL     1      43.188 -17.183   5.295  1.00  0.00     0.035 A 
HETATM   18  C   UNL     1      43.183 -18.214   4.342  1.00  0.00     0.042 A 
HETATM   19  C   UNL     1      44.123 -19.256   4.388  1.00  0.00    -0.021 A 
HETATM   20  C   UNL     1      45.069 -19.260   5.419  1.00  0.00     0.012 A 
HETATM   21  C   UNL     1      45.076 -18.243   6.374  1.00  0.00     0.003 A 
HETATM   22  C   UNL     1      44.142 -17.206   6.311  1.00  0.00     0.029 A 
BRANCH  19  23
HETATM   23  C   UNL     1      44.124 -20.316   3.391  1.00  0.00     0.010 A 
HETATM   24  C   UNL     1      44.671 -21.622   3.428  1.00  0.00     0.152 A 
HETATM   25  N   UNL     1      44.479 -22.299   2.292  1.00  0.00    -0.187 NA
HETATM   26  N   UNL     1      43.814 -21.429   1.519  1.00  0.00    -0.289 N 
HETATM   27  H   UNL     1      43.555 -21.720   0.582  1.00  0.00     0.188 HD
HETATM   28  C   UNL     1      43.578 -20.230   2.127  1.00  0.00     0.123 A 
ENDBRANCH  19  23
ENDBRANCH   2  17
TORSDOF 4
ENDMDL
MODEL 9
REMARK VINA RESULT:      -8.5      2.124      8.356
REMARK  4 active torsions:
REMARK  status: ('A' for Active; 'I' for Inactive)
REMARK    1  A    between atoms: C_6  and  C_7 
REMARK    2  A    between atoms: C_7  and  C_8 
REMARK       I    between atoms: C_8  and  N_9 
REMARK    3  A    between atoms: N_9  and  C_10 
REMARK    4  A    between atoms: C_12  and  C_13 
ROOT
HETATM    1  C   UNL     1      40.629 -16.144   1.909  1.00  0.00     0.226 C 
HETATM    2  N   UNL     1      41.956 -16.103   2.308  1.00  0.00    -0.327 N 
HETATM    3  O   UNL     1      39.877 -17.111   1.992  1.00  0.00    -0.273 OA
HETATM    4  H   UNL     1      42.460 -15.254   2.090  1.00  0.00     0.169 HD
ENDROOT
BRANCH   1   5
HETATM    5  C   UNL     1      40.138 -14.808   1.363  1.00  0.00     0.144 C 
BRANCH   5   6
HETATM    6  C   UNL     1      40.897 -14.377   0.152  1.00  0.00    -0.021 A 
HETATM    7  C   UNL     1      41.518 -13.106  -0.085  1.00  0.00    -0.001 A 
HETATM    8  C   UNL     1      42.103 -13.156  -1.350  1.00  0.00     0.043 A 
HETATM    9  C   UNL     1      41.643 -11.913   0.656  1.00  0.00     0.015 A 
HETATM   10  C   UNL     1      42.809 -12.082  -1.908  1.00  0.00     0.037 A 
HETATM   11  N   UNL     1      41.843 -14.402  -1.869  1.00  0.00    -0.365 N 
HETATM   12  C   UNL     1      42.922 -10.903  -1.157  1.00  0.00    -0.060 A 
HETATM   13  C   UNL     1      43.706  -9.743  -1.699  1.00  0.00     0.048 C 
HETATM   14  C   UNL     1      42.352 -10.831   0.117  1.00  0.00     0.007 A 
HETATM   15  C   UNL     1      41.115 -15.142  -0.979  1.00  0.00     0.097 A 
HETATM   16  H   UNL     1      42.147 -14.720  -2.780  1.00  0.00     0.165 HD
ENDBRANCH   5   6
ENDBRANCH   1   5
BRANCH   2  17
HETATM   17  C   UNL     1      42.702 -17.108   2.956  1.00  0.00     0.035 A 
HETATM   18  C   UNL     1      42.793 -17.031   4.356  1.00  0.00     0.042 A 
HETATM   19  C   UNL     1      43.487 -18.001   5.098  1.00  0.00    -0.021 A 
HETATM   20  C   UNL     1      44.106 -19.051   4.413  1.00  0.00     0.012 A 
HETATM   21  C   UNL     1      44.027 -19.132   3.022  1.00  0.00     0.003 A 
HETATM   22  C   UNL     1      43.325 -18.165   2.296  1.00  0.00     0.029 A 
BRANCH  19  23
HETATM   23  C   UNL     1      43.567 -17.925   6.549  1.00  0.00     0.010 A 
HETATM   24  C   UNL     1      43.330 -16.846   7.435  1.00  0.00     0.152 A 
HETATM   25  N   UNL     1      43.531 -17.172   8.715  1.00  0.00    -0.187 NA
HETATM   26  N   UNL     1      43.903 -18.458   8.657  1.00  0.00    -0.289 N 
HETATM   27  H   UNL     1      44.121 -18.935   9.526  1.00  0.00     0.188 HD
HETATM   28  C   UNL     1      43.943 -18.956   7.386  1.00  0.00     0.123 A 
ENDBRANCH  19  23
ENDBRANCH   2  17
TORSDOF 4
ENDMDL
MODEL 10
REMARK VINA RESULT:      -8.4      1.164      1.535
REMARK  4 active torsions:
REMARK  status: ('A' for Active; 'I' for Inactive)
REMARK    1  A    between atoms: C_6  and  C_7 
REMARK    2  A    between atoms: C_7  and  C_8 
REMARK       I    between atoms: C_8  and  N_9 
REMARK    3  A    between atoms: N_9  and  C_10 
REMARK    4  A    between atoms: C_12  and  C_13 
ROOT
HETATM    1  C   UNL     1      42.435 -16.164   5.383  1.00  0.00     0.226 C 
HETATM    2  N   UNL     1      42.509 -15.022   4.600  1.00  0.00    -0.327 N 
HETATM    3  O   UNL     1      41.420 -16.812   5.627  1.00  0.00    -0.273 OA
HETATM    4  H   UNL     1      43.407 -14.560   4.571  1.00  0.00     0.169 HD
ENDROOT
BRANCH   1   5
HETATM    5  C   UNL     1      43.795 -16.598   5.917  1.00  0.00     0.144 C 
BRANCH   5   6
HETATM    6  C   UNL     1      44.031 -18.063   5.748  1.00  0.00    -0.021 A 
HETATM    7  C   UNL     1      44.043 -18.811   4.524  1.00  0.00    -0.001 A 
HETATM    8  C   UNL     1      44.295 -20.143   4.853  1.00  0.00     0.043 A 
HETATM    9  C   UNL     1      43.867 -18.485   3.164  1.00  0.00     0.015 A 
HETATM   10  C   UNL     1      44.387 -21.161   3.894  1.00  0.00     0.037 A 
HETATM   11  N   UNL     1      44.422 -20.208   6.220  1.00  0.00    -0.365 N 
HETATM   12  C   UNL     1      44.207 -20.818   2.546  1.00  0.00    -0.060 A 
HETATM   13  C   UNL     1      44.338 -21.871   1.482  1.00  0.00     0.048 C 
HETATM   14  C   UNL     1      43.963 -19.490   2.191  1.00  0.00     0.007 A 
HETATM   15  C   UNL     1      44.259 -18.966   6.768  1.00  0.00     0.097 A 
HETATM   16  H   UNL     1      44.606 -21.056   6.739  1.00  0.00     0.165 HD
ENDBRANCH   5   6
ENDBRANCH   1   5
BRANCH   2  17
HETATM   17  C   UNL     1      41.479 -14.406   3.859  1.00  0.00     0.035 A 
HETATM   18  C   UNL     1      41.402 -14.721   2.492  1.00  0.00     0.042 A 
HETATM   19  C   UNL     1      40.395 -14.185   1.674  1.00  0.00    -0.021 A 
HETATM   20  C   UNL     1      39.464 -13.310   2.245  1.00  0.00     0.012 A 
HETATM   21  C   UNL     1      39.537 -12.987   3.600  1.00  0.00     0.003 A 
HETATM   22  C   UNL     1      40.539 -13.535   4.405  1.00  0.00     0.029 A 
BRANCH  19  23
HETATM   23  C   UNL     1      40.310 -14.523   0.261  1.00  0.00     0.010 A 
HETATM   24  C   UNL     1      41.173 -15.289  -0.561  1.00  0.00     0.152 A 
HETATM   25  N   UNL     1      40.757 -15.356  -1.829  1.00  0.00    -0.187 NA
HETATM   26  N   UNL     1      39.630 -14.630  -1.828  1.00  0.00    -0.289 N 
HETATM   27  H   UNL     1      39.124 -14.528  -2.702  1.00  0.00     0.188 HD
HETATM   28  C   UNL     1      39.319 -14.109  -0.605  1.00  0.00     0.123 A 
ENDBRANCH  19  23
ENDBRANCH   2  17
TORSDOF 4
ENDMDL
