MODEL 1
REMARK VINA RESULT:      -9.6      0.000      0.000
REMARK  6 active torsions:
REMARK  status: ('A' for Active; 'I' for Inactive)
REMARK    1  A    between atoms: C_2  and  O_3 
REMARK    2  A    between atoms: C_2  and  C_4 
REMARK    3  A    between atoms: C_6  and  N_7 
REMARK       I    between atoms: N_7  and  C_8 
REMARK    4  A    between atoms: C_8  and  C_9 
REMARK    5  A    between atoms: C_14  and  C_15 
REMARK    6  A    between atoms: C_23  and  C_24 
ROOT
HETATM    1  C   UNL     1      42.559 -13.602   5.686  1.00  0.00     0.148 C 
HETATM    2  N   UNL     1      41.373 -14.175   5.364  1.00  0.00    -0.165 NA
HETATM    3  N   UNL     1      41.712 -15.056   4.407  1.00  0.00    -0.240 N 
HETATM    4  C   UNL     1      43.058 -15.185   4.220  1.00  0.00     0.123 C 
HETATM    5  N   UNL     1      43.556 -16.161   3.434  1.00  0.00    -0.366 N 
HETATM    6  C   UNL     1      42.760 -17.324   3.029  1.00  0.00     0.118 C 
HETATM    7  C   UNL     1      41.351 -17.328   3.664  1.00  0.00     0.066 C 
HETATM    8  C   UNL     1      40.746 -15.923   3.765  1.00  0.00     0.221 C 
HETATM    9  C   UNL     1      43.634 -14.190   4.960  1.00  0.00     0.089 C 
HETATM   10  H   UNL     1      44.563 -16.259   3.298  1.00  0.00     0.161 HD
ENDROOT
BRANCH   1  11
HETATM   11  C   UNL     1      42.664 -12.553   6.717  1.00  0.00     0.276 C 
HETATM   12  N   UNL     1      43.603 -12.876   7.677  1.00  0.00    -0.322 N 
HETATM   13  H   UNL     1      44.064 -13.767   7.505  1.00  0.00     0.169 HD
HETATM   14  O   UNL     1      42.004 -11.522   6.650  1.00  0.00    -0.266 OA
BRANCH  12  15
HETATM   15  C   UNL     1      44.025 -12.114   8.778  1.00  0.00     0.035 A 
HETATM   16  C   UNL     1      43.169 -11.679   9.793  1.00  0.00     0.039 A 
HETATM   17  C   UNL     1      43.655 -10.920  10.872  1.00  0.00    -0.028 A 
HETATM   18  C   UNL     1      45.015 -10.580  10.905  1.00  0.00     0.010 A 
HETATM   19  C   UNL     1      45.875 -11.010   9.897  1.00  0.00     0.003 A 
HETATM   20  C   UNL     1      45.382 -11.782   8.843  1.00  0.00     0.029 A 
BRANCH  17  21
HETATM   21  C   UNL     1      42.711 -10.476  11.968  1.00  0.00     0.147 C 
HETATM   22  C   UNL     1      43.431  -9.760  13.101  1.00  0.00     0.044 C 
BRANCH  21  23
HETATM   23  O   UNL     1      42.018 -11.604  12.502  1.00  0.00    -0.391 OA
HETATM   24  H   UNL     1      42.376 -11.755  13.394  1.00  0.00     0.210 HD
ENDBRANCH  21  23
ENDBRANCH  17  21
ENDBRANCH  12  15
ENDBRANCH   1  11
BRANCH   8  25
HETATM   25  C   UNL     1      40.345 -15.357   2.421  1.00  0.00     0.409 C 
HETATM   26  F   UNL     1      41.222 -14.432   1.973  1.00  0.00    -0.169 F 
HETATM   27  F   UNL     1      40.199 -16.290   1.459  1.00  0.00    -0.169 F 
HETATM   28  F   UNL     1      39.145 -14.729   2.534  1.00  0.00    -0.169 F 
ENDBRANCH   8  25
BRANCH   6  29
HETATM   29  C   UNL     1      43.501 -18.599   3.407  1.00  0.00    -0.035 A 
HETATM   30  C   UNL     1      43.927 -18.823   4.733  1.00  0.00     0.012 A 
HETATM   31  C   UNL     1      44.577 -20.006   5.084  1.00  0.00     0.043 A 
HETATM   32  C   UNL     1      44.797 -20.975   4.116  1.00  0.00     0.116 A 
HETATM   33  F   UNL     1      45.416 -22.115   4.450  1.00  0.00    -0.206 F 
HETATM   34  C   UNL     1      44.382 -20.781   2.802  1.00  0.00     0.043 A 
HETATM   35  C   UNL     1      43.736 -19.596   2.446  1.00  0.00     0.012 A 
ENDBRANCH   6  29
TORSDOF 6
ENDMDL
MODEL 2
REMARK VINA RESULT:      -9.2      1.758      2.641
REMARK  6 active torsions:
REMARK  status: ('A' for Active; 'I' for Inactive)
REMARK    1  A    between atoms: C_2  and  O_3 
REMARK    2  A    between atoms: C_2  and  C_4 
REMARK    3  A    between atoms: C_6  and  N_7 
REMARK       I    between atoms: N_7  and  C_8 
REMARK    4  A    between atoms: C_8  and  C_9 
REMARK    5  A    between atoms: C_14  and  C_15 
REMARK    6  A    between atoms: C_23  and  C_24 
ROOT
HETATM    1  C   UNL     1      41.508 -14.469   4.529  1.00  0.00     0.148 C 
HETATM    2  N   UNL     1      40.661 -14.943   3.582  1.00  0.00    -0.165 NA
HETATM    3  N   UNL     1      41.456 -15.715   2.823  1.00  0.00    -0.240 N 
HETATM    4  C   UNL     1      42.714 -15.884   3.325  1.00  0.00     0.123 C 
HETATM    5  N   UNL     1      43.562 -16.781   2.781  1.00  0.00    -0.366 N 
HETATM    6  C   UNL     1      43.105 -17.846   1.883  1.00  0.00     0.118 C 
HETATM    7  C   UNL     1      41.569 -17.861   1.714  1.00  0.00     0.066 C 
HETATM    8  C   UNL     1      40.967 -16.452   1.675  1.00  0.00     0.221 C 
HETATM    9  C   UNL     1      42.815 -15.015   4.376  1.00  0.00     0.089 C 
HETATM   10  H   UNL     1      44.501 -16.909   3.160  1.00  0.00     0.161 HD
ENDROOT
BRANCH   1  11
HETATM   11  C   UNL     1      41.054 -13.559   5.596  1.00  0.00     0.276 C 
HETATM   12  N   UNL     1      41.999 -12.590   5.873  1.00  0.00    -0.322 N 
HETATM   13  H   UNL     1      42.832 -12.663   5.293  1.00  0.00     0.169 HD
HETATM   14  O   UNL     1      39.945 -13.672   6.106  1.00  0.00    -0.266 OA
BRANCH  12  15
HETATM   15  C   UNL     1      41.915 -11.520   6.778  1.00  0.00     0.035 A 
HETATM   16  C   UNL     1      42.448 -11.553   8.068  1.00  0.00     0.039 A 
HETATM   17  C   UNL     1      42.333 -10.445   8.927  1.00  0.00    -0.028 A 
HETATM   18  C   UNL     1      41.648  -9.307   8.477  1.00  0.00     0.010 A 
HETATM   19  C   UNL     1      41.114  -9.266   7.191  1.00  0.00     0.003 A 
HETATM   20  C   UNL     1      41.255 -10.365   6.343  1.00  0.00     0.029 A 
BRANCH  17  21
HETATM   21  C   UNL     1      42.934 -10.499  10.314  1.00  0.00     0.147 C 
HETATM   22  C   UNL     1      44.455 -10.514  10.288  1.00  0.00     0.044 C 
BRANCH  21  23
HETATM   23  O   UNL     1      42.473 -11.662  11.001  1.00  0.00    -0.391 OA
HETATM   24  H   UNL     1      41.513 -11.557  11.114  1.00  0.00     0.210 HD
ENDBRANCH  21  23
ENDBRANCH  17  21
ENDBRANCH  12  15
ENDBRANCH   1  11
BRANCH   8  25
HETATM   25  C   UNL     1      41.290 -15.708   0.399  1.00  0.00     0.409 C 
HETATM   26  F   UNL     1      40.245 -14.978  -0.047  1.00  0.00    -0.169 F 
HETATM   27  F   UNL     1      42.355 -14.887   0.500  1.00  0.00    -0.169 F 
HETATM   28  F   UNL     1      41.584 -16.600  -0.583  1.00  0.00    -0.169 F 
ENDBRANCH   8  25
BRANCH   6  29
HETATM   29  C   UNL     1      43.578 -19.192   2.416  1.00  0.00    -0.035 A 
HETATM   30  C   UNL     1      43.469 -20.360   1.634  1.00  0.00     0.012 A 
HETATM   31  C   UNL     1      43.932 -21.585   2.112  1.00  0.00     0.043 A 
HETATM   32  C   UNL     1      44.514 -21.650   3.370  1.00  0.00     0.116 A 
HETATM   33  F   UNL     1      44.965 -22.824   3.830  1.00  0.00    -0.206 F 
HETATM   34  C   UNL     1      44.638 -20.512   4.160  1.00  0.00     0.043 A 
HETATM   35  C   UNL     1      44.171 -19.284   3.686  1.00  0.00     0.012 A 
ENDBRANCH   6  29
TORSDOF 6
ENDMDL
MODEL 3
REMARK VINA RESULT:      -9.0      6.417      9.771
REMARK  6 active torsions:
REMARK  status: ('A' for Active; 'I' for Inactive)
REMARK    1  A    between atoms: C_2  and  O_3 
REMARK    2  A    between atoms: C_2  and  C_4 
REMARK    3  A    between atoms: C_6  and  N_7 
REMARK       I    between atoms: N_7  and  C_8 
REMARK    4  A    between atoms: C_8  and  C_9 
REMARK    5  A    between atoms: C_14  and  C_15 
REMARK    6  A    between atoms: C_23  and  C_24 
ROOT
HETATM    1  C   UNL     1      41.055 -15.641   0.515  1.00  0.00     0.148 C 
HETATM    2  N   UNL     1      41.241 -15.845  -0.813  1.00  0.00    -0.165 NA
HETATM    3  N   UNL     1      40.918 -14.656  -1.349  1.00  0.00    -0.240 N 
HETATM    4  C   UNL     1      40.694 -13.672  -0.431  1.00  0.00     0.123 C 
HETATM    5  N   UNL     1      40.549 -12.387  -0.814  1.00  0.00    -0.366 N 
HETATM    6  C   UNL     1      40.958 -11.914  -2.141  1.00  0.00     0.118 C 
HETATM    7  C   UNL     1      41.630 -13.023  -2.983  1.00  0.00     0.066 C 
HETATM    8  C   UNL     1      40.984 -14.397  -2.773  1.00  0.00     0.221 C 
HETATM    9  C   UNL     1      40.678 -14.295   0.786  1.00  0.00     0.089 C 
HETATM   10  H   UNL     1      40.386 -11.651  -0.126  1.00  0.00     0.161 HD
ENDROOT
BRANCH   1  11
HETATM   11  C   UNL     1      41.295 -16.705   1.508  1.00  0.00     0.276 C 
HETATM   12  N   UNL     1      42.641 -16.984   1.638  1.00  0.00    -0.322 N 
HETATM   13  H   UNL     1      43.231 -16.408   1.040  1.00  0.00     0.169 HD
HETATM   14  O   UNL     1      40.375 -17.209   2.141  1.00  0.00    -0.266 OA
BRANCH  12  15
HETATM   15  C   UNL     1      43.267 -17.886   2.513  1.00  0.00     0.035 A 
HETATM   16  C   UNL     1      43.651 -19.179   2.149  1.00  0.00     0.039 A 
HETATM   17  C   UNL     1      44.277 -20.034   3.073  1.00  0.00    -0.028 A 
HETATM   18  C   UNL     1      44.490 -19.579   4.382  1.00  0.00     0.010 A 
HETATM   19  C   UNL     1      44.111 -18.291   4.753  1.00  0.00     0.003 A 
HETATM   20  C   UNL     1      43.510 -17.445   3.818  1.00  0.00     0.029 A 
BRANCH  17  21
HETATM   21  C   UNL     1      44.698 -21.424   2.649  1.00  0.00     0.147 C 
HETATM   22  C   UNL     1      43.906 -21.933   1.455  1.00  0.00     0.044 C 
BRANCH  21  23
HETATM   23  O   UNL     1      44.533 -22.336   3.735  1.00  0.00    -0.391 OA
HETATM   24  H   UNL     1      44.910 -21.905   4.521  1.00  0.00     0.210 HD
ENDBRANCH  21  23
ENDBRANCH  17  21
ENDBRANCH  12  15
ENDBRANCH   1  11
BRANCH   8  25
HETATM   25  C   UNL     1      39.607 -14.501  -3.389  1.00  0.00     0.409 C 
HETATM   26  F   UNL     1      39.530 -15.489  -4.307  1.00  0.00    -0.169 F 
HETATM   27  F   UNL     1      38.621 -14.693  -2.490  1.00  0.00    -0.169 F 
HETATM   28  F   UNL     1      39.314 -13.345  -4.041  1.00  0.00    -0.169 F 
ENDBRANCH   8  25
BRANCH   6  29
HETATM   29  C   UNL     1      41.909 -10.736  -1.985  1.00  0.00    -0.035 A 
HETATM   30  C   UNL     1      43.053 -10.831  -1.166  1.00  0.00     0.012 A 
HETATM   31  C   UNL     1      43.940  -9.761  -1.051  1.00  0.00     0.043 A 
HETATM   32  C   UNL     1      43.693  -8.593  -1.759  1.00  0.00     0.116 A 
HETATM   33  F   UNL     1      44.546  -7.565  -1.655  1.00  0.00    -0.206 F 
HETATM   34  C   UNL     1      42.575  -8.475  -2.577  1.00  0.00     0.043 A 
HETATM   35  C   UNL     1      41.682  -9.543  -2.691  1.00  0.00     0.012 A 
ENDBRANCH   6  29
TORSDOF 6
ENDMDL
MODEL 4
REMARK VINA RESULT:      -8.9      4.801      9.132
REMARK  6 active torsions:
REMARK  status: ('A' for Active; 'I' for Inactive)
REMARK    1  A    between atoms: C_2  and  O_3 
REMARK    2  A    between atoms: C_2  and  C_4 
REMARK    3  A    between atoms: C_6  and  N_7 
REMARK       I    between atoms: N_7  and  C_8 
REMARK    4  A    between atoms: C_8  and  C_9 
REMARK    5  A    between atoms: C_14  and  C_15 
REMARK    6  A    between atoms: C_23  and  C_24 
ROOT
HETATM    1  C   UNL     1      40.809 -14.568   1.108  1.00  0.00     0.148 C 
HETATM    2  N   UNL     1      41.776 -14.140   1.957  1.00  0.00    -0.165 NA
HETATM    3  N   UNL     1      41.914 -15.175   2.805  1.00  0.00    -0.240 N 
HETATM    4  C   UNL     1      41.208 -16.287   2.446  1.00  0.00     0.123 C 
HETATM    5  N   UNL     1      41.393 -17.459   3.087  1.00  0.00    -0.366 N 
HETATM    6  C   UNL     1      42.562 -17.714   3.934  1.00  0.00     0.118 C 
HETATM    7  C   UNL     1      43.564 -16.536   3.931  1.00  0.00     0.066 C 
HETATM    8  C   UNL     1      42.868 -15.171   3.894  1.00  0.00     0.221 C 
HETATM    9  C   UNL     1      40.406 -15.900   1.409  1.00  0.00     0.089 C 
HETATM   10  H   UNL     1      40.868 -18.291   2.816  1.00  0.00     0.161 HD
ENDROOT
BRANCH   1  11
HETATM   11  C   UNL     1      40.328 -13.734  -0.008  1.00  0.00     0.276 C 
HETATM   12  N   UNL     1      39.015 -14.022  -0.328  1.00  0.00    -0.322 N 
HETATM   13  H   UNL     1      38.607 -14.744   0.262  1.00  0.00     0.169 HD
HETATM   14  O   UNL     1      41.038 -12.876  -0.520  1.00  0.00    -0.266 OA
BRANCH  12  15
HETATM   15  C   UNL     1      38.194 -13.408  -1.287  1.00  0.00     0.035 A 
HETATM   16  C   UNL     1      37.886 -13.981  -2.523  1.00  0.00     0.039 A 
HETATM   17  C   UNL     1      37.053 -13.316  -3.441  1.00  0.00    -0.028 A 
HETATM   18  C   UNL     1      36.554 -12.049  -3.109  1.00  0.00     0.010 A 
HETATM   19  C   UNL     1      36.855 -11.471  -1.878  1.00  0.00     0.003 A 
HETATM   20  C   UNL     1      37.665 -12.153  -0.968  1.00  0.00     0.029 A 
BRANCH  17  21
HETATM   21  C   UNL     1      36.721 -13.965  -4.767  1.00  0.00     0.147 C 
HETATM   22  C   UNL     1      35.228 -14.203  -4.938  1.00  0.00     0.044 C 
BRANCH  21  23
HETATM   23  O   UNL     1      37.404 -15.213  -4.884  1.00  0.00    -0.391 OA
HETATM   24  H   UNL     1      38.269 -15.021  -5.284  1.00  0.00     0.210 HD
ENDBRANCH  21  23
ENDBRANCH  17  21
ENDBRANCH  12  15
ENDBRANCH   1  11
BRANCH   8  25
HETATM   25  C   UNL     1      42.177 -14.827   5.195  1.00  0.00     0.409 C 
HETATM   26  F   UNL     1      40.844 -15.038   5.138  1.00  0.00    -0.169 F 
HETATM   27  F   UNL     1      42.657 -15.499   6.261  1.00  0.00    -0.169 F 
HETATM   28  F   UNL     1      42.348 -13.506   5.464  1.00  0.00    -0.169 F 
ENDBRANCH   8  25
BRANCH   6  29
HETATM   29  C   UNL     1      43.258 -18.984   3.464  1.00  0.00    -0.035 A 
HETATM   30  C   UNL     1      44.174 -19.659   4.298  1.00  0.00     0.012 A 
HETATM   31  C   UNL     1      44.786 -20.839   3.878  1.00  0.00     0.043 A 
HETATM   32  C   UNL     1      44.481 -21.356   2.627  1.00  0.00     0.116 A 
HETATM   33  F   UNL     1      45.063 -22.493   2.222  1.00  0.00    -0.206 F 
HETATM   34  C   UNL     1      43.579 -20.713   1.787  1.00  0.00     0.043 A 
HETATM   35  C   UNL     1      42.967 -19.528   2.202  1.00  0.00     0.012 A 
ENDBRANCH   6  29
TORSDOF 6
ENDMDL
MODEL 5
REMARK VINA RESULT:      -8.9      6.380      9.567
REMARK  6 active torsions:
REMARK  status: ('A' for Active; 'I' for Inactive)
REMARK    1  A    between atoms: C_2  and  O_3 
REMARK    2  A    between atoms: C_2  and  C_4 
REMARK    3  A    between atoms: C_6  and  N_7 
REMARK       I    between atoms: N_7  and  C_8 
REMARK    4  A    between atoms: C_8  and  C_9 
REMARK    5  A    between atoms: C_14  and  C_15 
REMARK    6  A    between atoms: C_23  and  C_24 
ROOT
HETATM    1  C   UNL     1      41.738 -15.958   0.980  1.00  0.00     0.148 C 
HETATM    2  N   UNL     1      40.631 -15.763   1.739  1.00  0.00    -0.165 NA
HETATM    3  N   UNL     1      40.018 -14.739   1.121  1.00  0.00    -0.240 N 
HETATM    4  C   UNL     1      40.587 -14.383  -0.067  1.00  0.00     0.123 C 
HETATM    5  N   UNL     1      39.978 -13.506  -0.891  1.00  0.00    -0.366 N 
HETATM    6  C   UNL     1      38.560 -13.158  -0.755  1.00  0.00     0.118 C 
HETATM    7  C   UNL     1      37.858 -13.960   0.364  1.00  0.00     0.066 C 
HETATM    8  C   UNL     1      38.760 -14.188   1.582  1.00  0.00     0.221 C 
HETATM    9  C   UNL     1      41.759 -15.084  -0.144  1.00  0.00     0.089 C 
HETATM   10  H   UNL     1      40.402 -13.244  -1.781  1.00  0.00     0.161 HD
ENDROOT
BRANCH   1  11
HETATM   11  C   UNL     1      42.725 -17.007   1.297  1.00  0.00     0.276 C 
HETATM   12  N   UNL     1      42.613 -17.431   2.607  1.00  0.00    -0.322 N 
HETATM   13  H   UNL     1      41.872 -16.959   3.120  1.00  0.00     0.169 HD
HETATM   14  O   UNL     1      43.494 -17.440   0.447  1.00  0.00    -0.266 OA
BRANCH  12  15
HETATM   15  C   UNL     1      43.332 -18.443   3.263  1.00  0.00     0.035 A 
HETATM   16  C   UNL     1      43.703 -19.646   2.657  1.00  0.00     0.039 A 
HETATM   17  C   UNL     1      44.426 -20.621   3.368  1.00  0.00    -0.028 A 
HETATM   18  C   UNL     1      44.749 -20.379   4.710  1.00  0.00     0.010 A 
HETATM   19  C   UNL     1      44.384 -19.182   5.321  1.00  0.00     0.003 A 
HETATM   20  C   UNL     1      43.686 -18.215   4.597  1.00  0.00     0.029 A 
BRANCH  17  21
HETATM   21  C   UNL     1      44.831 -21.908   2.684  1.00  0.00     0.147 C 
HETATM   22  C   UNL     1      44.076 -22.137   1.383  1.00  0.00     0.044 C 
BRANCH  21  23
HETATM   23  O   UNL     1      44.599 -23.016   3.553  1.00  0.00    -0.391 OA
HETATM   24  H   UNL     1      44.186 -22.658   4.358  1.00  0.00     0.210 HD
ENDBRANCH  21  23
ENDBRANCH  17  21
ENDBRANCH  12  15
ENDBRANCH   1  11
BRANCH   8  25
HETATM   25  C   UNL     1      39.002 -12.926   2.379  1.00  0.00     0.409 C 
HETATM   26  F   UNL     1      37.996 -12.034   2.245  1.00  0.00    -0.169 F 
HETATM   27  F   UNL     1      39.190 -13.141   3.697  1.00  0.00    -0.169 F 
HETATM   28  F   UNL     1      40.126 -12.311   1.926  1.00  0.00    -0.169 F 
ENDBRANCH   8  25
BRANCH   6  29
HETATM   29  C   UNL     1      37.852 -13.394  -2.082  1.00  0.00    -0.035 A 
HETATM   30  C   UNL     1      37.852 -14.669  -2.686  1.00  0.00     0.012 A 
HETATM   31  C   UNL     1      37.177 -14.890  -3.885  1.00  0.00     0.043 A 
HETATM   32  C   UNL     1      36.491 -13.843  -4.484  1.00  0.00     0.116 A 
HETATM   33  F   UNL     1      35.836 -14.054  -5.633  1.00  0.00    -0.206 F 
HETATM   34  C   UNL     1      36.471 -12.578  -3.907  1.00  0.00     0.043 A 
HETATM   35  C   UNL     1      37.151 -12.351  -2.708  1.00  0.00     0.012 A 
ENDBRANCH   6  29
TORSDOF 6
ENDMDL
MODEL 6
REMARK VINA RESULT:      -8.9      4.762      7.890
REMARK  6 active torsions:
REMARK  status: ('A' for Active; 'I' for Inactive)
REMARK    1  A    between atoms: C_2  and  O_3 
REMARK    2  A    between atoms: C_2  and  C_4 
REMARK    3  A    between atoms: C_6  and  N_7 
REMARK       I    between atoms: N_7  and  C_8 
REMARK    4  A    between atoms: C_8  and  C_9 
REMARK    5  A    between atoms: C_14  and  C_15 
REMARK    6  A    between atoms: C_23  and  C_24 
ROOT
HETATM    1  C   UNL     1      41.317 -14.229   1.253  1.00  0.00     0.148 C 
HETATM    2  N   UNL     1      42.178 -13.939   2.260  1.00  0.00    -0.165 NA
HETATM    3  N   UNL     1      42.144 -15.049   3.017  1.00  0.00    -0.240 N 
HETATM    4  C   UNL     1      41.439 -16.079   2.465  1.00  0.00     0.123 C 
HETATM    5  N   UNL     1      41.473 -17.311   3.011  1.00  0.00    -0.366 N 
HETATM    6  C   UNL     1      42.499 -17.712   3.978  1.00  0.00     0.118 C 
HETATM    7  C   UNL     1      43.551 -16.604   4.219  1.00  0.00     0.066 C 
HETATM    8  C   UNL     1      42.938 -15.200   4.219  1.00  0.00     0.221 C 
HETATM    9  C   UNL     1      40.808 -15.554   1.371  1.00  0.00     0.089 C 
HETATM   10  H   UNL     1      40.948 -18.082   2.596  1.00  0.00     0.161 HD
ENDROOT
BRANCH   1  11
HETATM   11  C   UNL     1      41.037 -13.273   0.166  1.00  0.00     0.276 C 
HETATM   12  N   UNL     1      42.202 -12.807  -0.413  1.00  0.00    -0.322 N 
HETATM   13  H   UNL     1      43.043 -13.207  -0.002  1.00  0.00     0.169 HD
HETATM   14  O   UNL     1      39.890 -13.000  -0.167  1.00  0.00    -0.266 OA
BRANCH  12  15
HETATM   15  C   UNL     1      42.348 -11.935  -1.503  1.00  0.00     0.035 A 
HETATM   16  C   UNL     1      42.638 -10.575  -1.374  1.00  0.00     0.039 A 
HETATM   17  C   UNL     1      42.775  -9.754  -2.507  1.00  0.00    -0.028 A 
HETATM   18  C   UNL     1      42.590 -10.316  -3.778  1.00  0.00     0.010 A 
HETATM   19  C   UNL     1      42.301 -11.671  -3.916  1.00  0.00     0.003 A 
HETATM   20  C   UNL     1      42.190 -12.479  -2.783  1.00  0.00     0.029 A 
BRANCH  17  21
HETATM   21  C   UNL     1      43.106  -8.287  -2.341  1.00  0.00     0.147 C 
HETATM   22  C   UNL     1      44.087  -8.038  -1.205  1.00  0.00     0.044 C 
BRANCH  21  23
HETATM   23  O   UNL     1      41.914  -7.542  -2.092  1.00  0.00    -0.391 OA
HETATM   24  H   UNL     1      41.580  -7.253  -2.959  1.00  0.00     0.210 HD
ENDBRANCH  21  23
ENDBRANCH  17  21
ENDBRANCH  12  15
ENDBRANCH   1  11
BRANCH   8  25
HETATM   25  C   UNL     1      42.093 -14.926   5.443  1.00  0.00     0.409 C 
HETATM   26  F   UNL     1      40.770 -15.032   5.187  1.00  0.00    -0.169 F 
HETATM   27  F   UNL     1      42.377 -15.725   6.491  1.00  0.00    -0.169 F 
HETATM   28  F   UNL     1      42.303 -13.651   5.863  1.00  0.00    -0.169 F 
ENDBRANCH   8  25
BRANCH   6  29
HETATM   29  C   UNL     1      43.187 -18.979   3.488  1.00  0.00    -0.035 A 
HETATM   30  C   UNL     1      42.930 -19.490   2.199  1.00  0.00     0.012 A 
HETATM   31  C   UNL     1      43.586 -20.632   1.741  1.00  0.00     0.043 A 
HETATM   32  C   UNL     1      44.506 -21.266   2.563  1.00  0.00     0.116 A 
HETATM   33  F   UNL     1      45.142 -22.360   2.124  1.00  0.00    -0.206 F 
HETATM   34  C   UNL     1      44.781 -20.779   3.837  1.00  0.00     0.043 A 
HETATM   35  C   UNL     1      44.123 -19.638   4.301  1.00  0.00     0.012 A 
ENDBRANCH   6  29
TORSDOF 6
ENDMDL
MODEL 7
REMARK VINA RESULT:      -8.9      5.757      9.022
REMARK  6 active torsions:
REMARK  status: ('A' for Active; 'I' for Inactive)
REMARK    1  A    between atoms: C_2  and  O_3 
REMARK    2  A    between atoms: C_2  and  C_4 
REMARK    3  A    between atoms: C_6  and  N_7 
REMARK       I    between atoms: N_7  and  C_8 
REMARK    4  A    between atoms: C_8  and  C_9 
REMARK    5  A    between atoms: C_14  and  C_15 
REMARK    6  A    between atoms: C_23  and  C_24 
ROOT
HETATM    1  C   UNL     1      41.250 -15.985   0.902  1.00  0.00     0.148 C 
HETATM    2  N   UNL     1      41.494 -16.305  -0.393  1.00  0.00    -0.165 NA
HETATM    3  N   UNL     1      41.118 -15.197  -1.055  1.00  0.00    -0.240 N 
HETATM    4  C   UNL     1      40.803 -14.144  -0.245  1.00  0.00     0.123 C 
HETATM    5  N   UNL     1      40.593 -12.915  -0.759  1.00  0.00    -0.366 N 
HETATM    6  C   UNL     1      41.018 -12.549  -2.113  1.00  0.00     0.118 C 
HETATM    7  C   UNL     1      41.786 -13.688  -2.822  1.00  0.00     0.066 C 
HETATM    8  C   UNL     1      41.219 -15.074  -2.494  1.00  0.00     0.221 C 
HETATM    9  C   UNL     1      40.782 -14.646   1.027  1.00  0.00     0.089 C 
HETATM   10  H   UNL     1      40.361 -12.128  -0.152  1.00  0.00     0.161 HD
ENDROOT
BRANCH   1  11
HETATM   11  C   UNL     1      41.520 -16.929   2.002  1.00  0.00     0.276 C 
HETATM   12  N   UNL     1      42.761 -17.521   1.871  1.00  0.00    -0.322 N 
HETATM   13  H   UNL     1      43.274 -17.201   1.052  1.00  0.00     0.169 HD
HETATM   14  O   UNL     1      40.720 -17.092   2.917  1.00  0.00    -0.266 OA
BRANCH  12  15
HETATM   15  C   UNL     1      43.395 -18.424   2.739  1.00  0.00     0.035 A 
HETATM   16  C   UNL     1      43.631 -18.164   4.090  1.00  0.00     0.039 A 
HETATM   17  C   UNL     1      44.269 -19.112   4.909  1.00  0.00    -0.028 A 
HETATM   18  C   UNL     1      44.692 -20.322   4.341  1.00  0.00     0.010 A 
HETATM   19  C   UNL     1      44.459 -20.591   2.994  1.00  0.00     0.003 A 
HETATM   20  C   UNL     1      43.805 -19.648   2.199  1.00  0.00     0.029 A 
BRANCH  17  21
HETATM   21  C   UNL     1      44.498 -18.813   6.374  1.00  0.00     0.147 C 
HETATM   22  C   UNL     1      43.294 -18.151   7.027  1.00  0.00     0.044 C 
BRANCH  21  23
HETATM   23  O   UNL     1      45.633 -17.961   6.527  1.00  0.00    -0.391 OA
HETATM   24  H   UNL     1      45.486 -17.444   7.337  1.00  0.00     0.210 HD
ENDBRANCH  21  23
ENDBRANCH  17  21
ENDBRANCH  12  15
ENDBRANCH   1  11
BRANCH   8  25
HETATM   25  C   UNL     1      39.873 -15.326  -3.137  1.00  0.00     0.409 C 
HETATM   26  F   UNL     1      39.707 -16.620  -3.488  1.00  0.00    -0.169 F 
HETATM   27  F   UNL     1      38.826 -14.968  -2.367  1.00  0.00    -0.169 F 
HETATM   28  F   UNL     1      39.775 -14.599  -4.281  1.00  0.00    -0.169 F 
ENDBRANCH   8  25
BRANCH   6  29
HETATM   29  C   UNL     1      41.890 -11.302  -2.048  1.00  0.00    -0.035 A 
HETATM   30  C   UNL     1      41.720 -10.250  -2.973  1.00  0.00     0.012 A 
HETATM   31  C   UNL     1      42.497  -9.096  -2.892  1.00  0.00     0.043 A 
HETATM   32  C   UNL     1      43.443  -8.981  -1.884  1.00  0.00     0.116 A 
HETATM   33  F   UNL     1      44.188  -7.871  -1.799  1.00  0.00    -0.206 F 
HETATM   34  C   UNL     1      43.627 -10.001  -0.956  1.00  0.00     0.043 A 
HETATM   35  C   UNL     1      42.853 -11.161  -1.037  1.00  0.00     0.012 A 
ENDBRANCH   6  29
TORSDOF 6
ENDMDL
MODEL 8
REMARK VINA RESULT:      -8.9      4.827      8.644
REMARK  6 active torsions:
REMARK  status: ('A' for Active; 'I' for Inactive)
REMARK    1  A    between atoms: C_2  and  O_3 
REMARK    2  A    between atoms: C_2  and  C_4 
REMARK    3  A    between atoms: C_6  and  N_7 
REMARK       I    between atoms: N_7  and  C_8 
REMARK    4  A    between atoms: C_8  and  C_9 
REMARK    5  A    between atoms: C_14  and  C_15 
REMARK    6  A    between atoms: C_23  and  C_24 
ROOT
HETATM    1  C   UNL     1      42.107 -13.836   1.335  1.00  0.00     0.148 C 
HETATM    2  N   UNL     1      42.803 -13.687   2.490  1.00  0.00    -0.165 NA
HETATM    3  N   UNL     1      42.565 -14.840   3.138  1.00  0.00    -0.240 N 
HETATM    4  C   UNL     1      41.894 -15.768   2.396  1.00  0.00     0.123 C 
HETATM    5  N   UNL     1      41.750 -17.034   2.838  1.00  0.00    -0.366 N 
HETATM    6  C   UNL     1      42.568 -17.582   3.924  1.00  0.00     0.118 C 
HETATM    7  C   UNL     1      43.637 -16.584   4.424  1.00  0.00     0.066 C 
HETATM    8  C   UNL     1      43.131 -15.137   4.437  1.00  0.00     0.221 C 
HETATM    9  C   UNL     1      41.496 -15.120   1.260  1.00  0.00     0.089 C 
HETATM   10  H   UNL     1      41.251 -17.729   2.281  1.00  0.00     0.161 HD
ENDROOT
BRANCH   1  11
HETATM   11  C   UNL     1      42.083 -12.788   0.298  1.00  0.00     0.276 C 
HETATM   12  N   UNL     1      41.587 -13.268  -0.898  1.00  0.00    -0.322 N 
HETATM   13  H   UNL     1      41.317 -14.249  -0.857  1.00  0.00     0.169 HD
HETATM   14  O   UNL     1      42.430 -11.638   0.542  1.00  0.00    -0.266 OA
BRANCH  12  15
HETATM   15  C   UNL     1      41.358 -12.569  -2.094  1.00  0.00     0.035 A 
HETATM   16  C   UNL     1      40.092 -12.174  -2.530  1.00  0.00     0.039 A 
HETATM   17  C   UNL     1      39.929 -11.472  -3.738  1.00  0.00    -0.028 A 
HETATM   18  C   UNL     1      41.061 -11.193  -4.517  1.00  0.00     0.010 A 
HETATM   19  C   UNL     1      42.328 -11.582  -4.089  1.00  0.00     0.003 A 
HETATM   20  C   UNL     1      42.475 -12.259  -2.877  1.00  0.00     0.029 A 
BRANCH  17  21
HETATM   21  C   UNL     1      38.548 -11.040  -4.180  1.00  0.00     0.147 C 
HETATM   22  C   UNL     1      37.484 -12.078  -3.856  1.00  0.00     0.044 C 
BRANCH  21  23
HETATM   23  O   UNL     1      38.541 -10.796  -5.587  1.00  0.00    -0.391 OA
HETATM   24  H   UNL     1      38.146  -9.916  -5.715  1.00  0.00     0.210 HD
ENDBRANCH  21  23
ENDBRANCH  17  21
ENDBRANCH  12  15
ENDBRANCH   1  11
BRANCH   8  25
HETATM   25  C   UNL     1      42.111 -14.880   5.524  1.00  0.00     0.409 C 
HETATM   26  F   UNL     1      40.856 -14.781   5.036  1.00  0.00    -0.169 F 
HETATM   27  F   UNL     1      42.105 -15.814   6.497  1.00  0.00    -0.169 F 
HETATM   28  F   UNL     1      42.384 -13.695   6.131  1.00  0.00    -0.169 F 
ENDBRANCH   8  25
BRANCH   6  29
HETATM   29  C   UNL     1      43.240 -18.864   3.452  1.00  0.00    -0.035 A 
HETATM   30  C   UNL     1      44.154 -19.550   4.278  1.00  0.00     0.012 A 
HETATM   31  C   UNL     1      44.744 -20.741   3.856  1.00  0.00     0.043 A 
HETATM   32  C   UNL     1      44.419 -21.257   2.610  1.00  0.00     0.116 A 
HETATM   33  F   UNL     1      44.979 -22.404   2.203  1.00  0.00    -0.206 F 
HETATM   34  C   UNL     1      43.516 -20.604   1.778  1.00  0.00     0.043 A 
HETATM   35  C   UNL     1      42.927 -19.408   2.196  1.00  0.00     0.012 A 
ENDBRANCH   6  29
TORSDOF 6
ENDMDL
MODEL 9
REMARK VINA RESULT:      -8.8      4.960      9.085
REMARK  6 active torsions:
REMARK  status: ('A' for Active; 'I' for Inactive)
REMARK    1  A    between atoms: C_2  and  O_3 
REMARK    2  A    between atoms: C_2  and  C_4 
REMARK    3  A    between atoms: C_6  and  N_7 
REMARK       I    between atoms: N_7  and  C_8 
REMARK    4  A    between atoms: C_8  and  C_9 
REMARK    5  A    between atoms: C_14  and  C_15 
REMARK    6  A    between atoms: C_23  and  C_24 
ROOT
HETATM    1  C   UNL     1      39.591 -14.837   1.427  1.00  0.00     0.148 C 
HETATM    2  N   UNL     1      40.798 -14.222   1.484  1.00  0.00    -0.165 NA
HETATM    3  N   UNL     1      41.473 -14.962   2.380  1.00  0.00    -0.240 N 
HETATM    4  C   UNL     1      40.821 -16.096   2.770  1.00  0.00     0.123 C 
HETATM    5  N   UNL     1      41.446 -17.032   3.513  1.00  0.00    -0.366 N 
HETATM    6  C   UNL     1      42.905 -17.077   3.651  1.00  0.00     0.118 C 
HETATM    7  C   UNL     1      43.615 -16.002   2.797  1.00  0.00     0.066 C 
HETATM    8  C   UNL     1      42.843 -14.678   2.755  1.00  0.00     0.221 C 
HETATM    9  C   UNL     1      39.561 -15.999   2.249  1.00  0.00     0.089 C 
HETATM   10  H   UNL     1      40.959 -17.881   3.801  1.00  0.00     0.161 HD
ENDROOT
BRANCH   1  11
HETATM   11  C   UNL     1      38.509 -14.352   0.550  1.00  0.00     0.276 C 
HETATM   12  N   UNL     1      38.922 -14.263  -0.765  1.00  0.00    -0.322 N 
HETATM   13  H   UNL     1      39.887 -14.554  -0.904  1.00  0.00     0.169 HD
HETATM   14  O   UNL     1      37.388 -14.115   0.987  1.00  0.00    -0.266 OA
BRANCH  12  15
HETATM   15  C   UNL     1      38.171 -13.898  -1.894  1.00  0.00     0.035 A 
HETATM   16  C   UNL     1      37.660 -12.615  -2.103  1.00  0.00     0.039 A 
HETATM   17  C   UNL     1      36.917 -12.312  -3.257  1.00  0.00    -0.028 A 
HETATM   18  C   UNL     1      36.672 -13.328  -4.192  1.00  0.00     0.010 A 
HETATM   19  C   UNL     1      37.180 -14.609  -3.993  1.00  0.00     0.003 A 
HETATM   20  C   UNL     1      37.934 -14.890  -2.852  1.00  0.00     0.029 A 
BRANCH  17  21
HETATM   21  C   UNL     1      36.388 -10.910  -3.468  1.00  0.00     0.147 C 
HETATM   22  C   UNL     1      36.458 -10.067  -2.204  1.00  0.00     0.044 C 
BRANCH  21  23
HETATM   23  O   UNL     1      35.032 -10.962  -3.914  1.00  0.00    -0.391 OA
HETATM   24  H   UNL     1      34.546 -11.499  -3.265  1.00  0.00     0.210 HD
ENDBRANCH  21  23
ENDBRANCH  17  21
ENDBRANCH  12  15
ENDBRANCH   1  11
BRANCH   8  25
HETATM   25  C   UNL     1      42.883 -13.931   4.069  1.00  0.00     0.409 C 
HETATM   26  F   UNL     1      41.814 -14.206   4.848  1.00  0.00    -0.169 F 
HETATM   27  F   UNL     1      43.995 -14.165   4.795  1.00  0.00    -0.169 F 
HETATM   28  F   UNL     1      42.853 -12.594   3.831  1.00  0.00    -0.169 F 
ENDBRANCH   8  25
BRANCH   6  29
HETATM   29  C   UNL     1      43.406 -18.461   3.260  1.00  0.00    -0.035 A 
HETATM   30  C   UNL     1      44.304 -19.167   4.087  1.00  0.00     0.012 A 
HETATM   31  C   UNL     1      44.737 -20.446   3.742  1.00  0.00     0.043 A 
HETATM   32  C   UNL     1      44.269 -21.031   2.574  1.00  0.00     0.116 A 
HETATM   33  F   UNL     1      44.678 -22.263   2.242  1.00  0.00    -0.206 F 
HETATM   34  C   UNL     1      43.379 -20.359   1.743  1.00  0.00     0.043 A 
HETATM   35  C   UNL     1      42.948 -19.075   2.083  1.00  0.00     0.012 A 
ENDBRANCH   6  29
TORSDOF 6
ENDMDL
MODEL 10
REMARK VINA RESULT:      -8.7      5.657      8.988
REMARK  6 active torsions:
REMARK  status: ('A' for Active; 'I' for Inactive)
REMARK    1  A    between atoms: C_2  and  O_3 
REMARK    2  A    between atoms: C_2  and  C_4 
REMARK    3  A    between atoms: C_6  and  N_7 
REMARK       I    between atoms: N_7  and  C_8 
REMARK    4  A    between atoms: C_8  and  C_9 
REMARK    5  A    between atoms: C_14  and  C_15 
REMARK    6  A    between atoms: C_23  and  C_24 
ROOT
HETATM    1  C   UNL     1      41.712 -15.288   3.129  1.00  0.00     0.148 C 
HETATM    2  N   UNL     1      40.471 -14.757   2.994  1.00  0.00    -0.165 NA
HETATM    3  N   UNL     1      40.713 -13.563   2.427  1.00  0.00    -0.240 N 
HETATM    4  C   UNL     1      42.012 -13.376   2.053  1.00  0.00     0.123 C 
HETATM    5  N   UNL     1      42.370 -12.314   1.303  1.00  0.00    -0.366 N 
HETATM    6  C   UNL     1      41.390 -11.510   0.565  1.00  0.00     0.118 C 
HETATM    7  C   UNL     1      39.954 -12.069   0.685  1.00  0.00     0.066 C 
HETATM    8  C   UNL     1      39.657 -12.636   2.078  1.00  0.00     0.221 C 
HETATM    9  C   UNL     1      42.706 -14.430   2.579  1.00  0.00     0.089 C 
HETATM   10  H   UNL     1      43.340 -12.177   1.020  1.00  0.00     0.161 HD
ENDROOT
BRANCH   1  11
HETATM   11  C   UNL     1      41.930 -16.621   3.721  1.00  0.00     0.276 C 
HETATM   12  N   UNL     1      43.172 -17.127   3.389  1.00  0.00    -0.322 N 
HETATM   13  H   UNL     1      43.721 -16.497   2.808  1.00  0.00     0.169 HD
HETATM   14  O   UNL     1      41.092 -17.144   4.447  1.00  0.00    -0.266 OA
BRANCH  12  15
HETATM   15  C   UNL     1      43.763 -18.332   3.801  1.00  0.00     0.035 A 
HETATM   16  C   UNL     1      43.915 -19.444   2.970  1.00  0.00     0.039 A 
HETATM   17  C   UNL     1      44.519 -20.623   3.443  1.00  0.00    -0.028 A 
HETATM   18  C   UNL     1      44.948 -20.676   4.777  1.00  0.00     0.010 A 
HETATM   19  C   UNL     1      44.802 -19.571   5.611  1.00  0.00     0.003 A 
HETATM   20  C   UNL     1      44.220 -18.401   5.122  1.00  0.00     0.029 A 
BRANCH  17  21
HETATM   21  C   UNL     1      44.687 -21.809   2.518  1.00  0.00     0.147 C 
HETATM   22  C   UNL     1      43.579 -21.896   1.479  1.00  0.00     0.044 C 
BRANCH  21  23
HETATM   23  O   UNL     1      44.707 -23.019   3.275  1.00  0.00    -0.391 OA
HETATM   24  H   UNL     1      45.234 -22.840   4.073  1.00  0.00     0.210 HD
ENDBRANCH  21  23
ENDBRANCH  17  21
ENDBRANCH  12  15
ENDBRANCH   1  11
BRANCH   8  25
HETATM   25  C   UNL     1      39.530 -11.563   3.136  1.00  0.00     0.409 C 
HETATM   26  F   UNL     1      40.618 -11.498   3.934  1.00  0.00    -0.169 F 
HETATM   27  F   UNL     1      39.309 -10.329   2.637  1.00  0.00    -0.169 F 
HETATM   28  F   UNL     1      38.475 -11.845   3.944  1.00  0.00    -0.169 F 
ENDBRANCH   8  25
BRANCH   6  29
HETATM   29  C   UNL     1      41.796 -11.441  -0.901  1.00  0.00    -0.035 A 
HETATM   30  C   UNL     1      41.515 -12.506  -1.781  1.00  0.00     0.012 A 
HETATM   31  C   UNL     1      41.859 -12.427  -3.130  1.00  0.00     0.043 A 
HETATM   32  C   UNL     1      42.479 -11.282  -3.609  1.00  0.00     0.116 A 
HETATM   33  F   UNL     1      42.806 -11.200  -4.905  1.00  0.00    -0.206 F 
HETATM   34  C   UNL     1      42.763 -10.215  -2.763  1.00  0.00     0.043 A 
HETATM   35  C   UNL     1      42.424 -10.293  -1.410  1.00  0.00     0.012 A 
ENDBRANCH   6  29
TORSDOF 6
ENDMDL
