MODEL 1
REMARK VINA RESULT:      -7.2      0.000      0.000
REMARK  5 active torsions:
REMARK  status: ('A' for Active; 'I' for Inactive)
REMARK    1  A    between atoms: C_6  and  N_7 
REMARK       I    between atoms: N_7  and  C_8 
REMARK    2  A    between atoms: C_8  and  C_9 
REMARK    3  A    between atoms: C_9  and  O_10 
REMARK    4  A    between atoms: O_10  and  C_11 
REMARK    5  A    between atoms: C_18  and  C_19 
ROOT
HETATM    1  C   UNL     1      39.477 -15.204   1.829  1.00  0.00     0.073 C 
HETATM    2  C   UNL     1      40.521 -14.451   2.568  1.00  0.00     0.065 A 
HETATM    3  N   UNL     1      40.275 -13.201   2.984  1.00  0.00    -0.177 NA
HETATM    4  N   UNL     1      41.393 -12.851   3.643  1.00  0.00    -0.262 N 
HETATM    5  H   UNL     1      41.443 -11.918   4.043  1.00  0.00     0.191 HD
HETATM    6  C   UNL     1      42.356 -13.826   3.659  1.00  0.00     0.137 A 
HETATM    7  C   UNL     1      41.816 -14.887   2.956  1.00  0.00     0.046 A 
ENDROOT
BRANCH   6   8
HETATM    8  N   UNL     1      43.613 -13.699   4.213  1.00  0.00    -0.309 N 
HETATM    9  C   UNL     1      44.004 -13.980   5.495  1.00  0.00     0.247 C 
HETATM   10  O   UNL     1      45.108 -13.591   5.884  1.00  0.00    -0.271 OA
HETATM   11  H   UNL     1      44.369 -13.395   3.610  1.00  0.00     0.170 HD
BRANCH   9  12
HETATM   12  C   UNL     1      43.156 -14.922   6.344  1.00  0.00     0.278 C 
BRANCH  12  13
HETATM   13  O   UNL     1      43.899 -15.575   7.367  1.00  0.00    -0.342 OA
BRANCH  13  14
HETATM   14  C   UNL     1      44.026 -16.912   7.081  1.00  0.00     0.069 A 
HETATM   15  C   UNL     1      45.085 -17.296   6.263  1.00  0.00     0.037 A 
HETATM   16  C   UNL     1      45.236 -18.638   5.913  1.00  0.00     0.003 A 
HETATM   17  C   UNL     1      44.338 -19.592   6.394  1.00  0.00     0.000 A 
HETATM   18  C   UNL     1      43.302 -19.209   7.245  1.00  0.00     0.003 A 
HETATM   19  C   UNL     1      43.151 -17.869   7.600  1.00  0.00     0.037 A 
ENDBRANCH  13  14
ENDBRANCH  12  13
ENDBRANCH   9  12
ENDBRANCH   6   8
BRANCH   7  20
HETATM   20  C   UNL     1      42.418 -16.204   2.913  1.00  0.00    -0.020 A 
HETATM   21  C   UNL     1      43.427 -16.455   1.970  1.00  0.00     0.014 A 
HETATM   22  C   UNL     1      43.958 -17.738   1.830  1.00  0.00     0.020 A 
HETATM   23  C   UNL     1      43.481 -18.769   2.636  1.00  0.00     0.011 A 
HETATM   24 BR   UNL     1      44.171 -20.516   2.419  1.00  0.00    -0.051 Br
HETATM   25  C   UNL     1      42.492 -18.527   3.590  1.00  0.00     0.020 A 
HETATM   26  C   UNL     1      41.962 -17.241   3.731  1.00  0.00     0.014 A 
ENDBRANCH   7  20
TORSDOF 5
ENDMDL
MODEL 2
REMARK VINA RESULT:      -6.9      3.009      4.540
REMARK  5 active torsions:
REMARK  status: ('A' for Active; 'I' for Inactive)
REMARK    1  A    between atoms: C_6  and  N_7 
REMARK       I    between atoms: N_7  and  C_8 
REMARK    2  A    between atoms: C_8  and  C_9 
REMARK    3  A    between atoms: C_9  and  O_10 
REMARK    4  A    between atoms: O_10  and  C_11 
REMARK    5  A    between atoms: C_18  and  C_19 
ROOT
HETATM    1  C   UNL     1      40.103 -12.098   4.749  1.00  0.00     0.073 C 
HETATM    2  C   UNL     1      39.846 -13.176   3.762  1.00  0.00     0.065 A 
HETATM    3  N   UNL     1      39.249 -12.889   2.599  1.00  0.00    -0.177 NA
HETATM    4  N   UNL     1      39.221 -14.064   1.947  1.00  0.00    -0.262 N 
HETATM    5  H   UNL     1      38.791 -14.093   1.026  1.00  0.00     0.191 HD
HETATM    6  C   UNL     1      39.769 -15.103   2.653  1.00  0.00     0.137 A 
HETATM    7  C   UNL     1      40.183 -14.554   3.852  1.00  0.00     0.046 A 
ENDROOT
BRANCH   6   8
HETATM    8  N   UNL     1      39.810 -16.418   2.239  1.00  0.00    -0.309 N 
HETATM    9  C   UNL     1      40.790 -17.047   1.518  1.00  0.00     0.247 C 
HETATM   10  O   UNL     1      40.559 -18.159   1.036  1.00  0.00    -0.271 OA
HETATM   11  H   UNL     1      39.048 -17.027   2.518  1.00  0.00     0.170 HD
BRANCH   9  12
HETATM   12  C   UNL     1      42.193 -16.450   1.489  1.00  0.00     0.278 C 
BRANCH  12  13
HETATM   13  O   UNL     1      43.178 -17.362   1.015  1.00  0.00    -0.342 OA
BRANCH  13  14
HETATM   14  C   UNL     1      43.598 -18.179   2.036  1.00  0.00     0.069 A 
HETATM   15  C   UNL     1      43.796 -19.525   1.741  1.00  0.00     0.037 A 
HETATM   16  C   UNL     1      44.186 -20.404   2.752  1.00  0.00     0.003 A 
HETATM   17  C   UNL     1      44.392 -19.931   4.049  1.00  0.00     0.000 A 
HETATM   18  C   UNL     1      44.230 -18.575   4.332  1.00  0.00     0.003 A 
HETATM   19  C   UNL     1      43.844 -17.694   3.322  1.00  0.00     0.037 A 
ENDBRANCH  13  14
ENDBRANCH  12  13
ENDBRANCH   9  12
ENDBRANCH   6   8
BRANCH   7  20
HETATM   20  C   UNL     1      41.009 -15.260   4.810  1.00  0.00    -0.020 A 
HETATM   21  C   UNL     1      40.445 -16.320   5.536  1.00  0.00     0.014 A 
HETATM   22  C   UNL     1      41.177 -16.957   6.539  1.00  0.00     0.020 A 
HETATM   23  C   UNL     1      42.476 -16.534   6.813  1.00  0.00     0.011 A 
HETATM   24 BR   UNL     1      43.454 -17.369   8.199  1.00  0.00    -0.051 Br
HETATM   25  C   UNL     1      43.054 -15.494   6.085  1.00  0.00     0.020 A 
HETATM   26  C   UNL     1      42.320 -14.858   5.079  1.00  0.00     0.014 A 
ENDBRANCH   7  20
TORSDOF 5
ENDMDL
MODEL 3
REMARK VINA RESULT:      -6.8      3.605      5.060
REMARK  5 active torsions:
REMARK  status: ('A' for Active; 'I' for Inactive)
REMARK    1  A    between atoms: C_6  and  N_7 
REMARK       I    between atoms: N_7  and  C_8 
REMARK    2  A    between atoms: C_8  and  C_9 
REMARK    3  A    between atoms: C_9  and  O_10 
REMARK    4  A    between atoms: O_10  and  C_11 
REMARK    5  A    between atoms: C_18  and  C_19 
ROOT
HETATM    1  C   UNL     1      41.266 -13.968  -0.722  1.00  0.00     0.073 C 
HETATM    2  C   UNL     1      41.115 -15.109   0.215  1.00  0.00     0.065 A 
HETATM    3  N   UNL     1      41.211 -16.365  -0.241  1.00  0.00    -0.177 NA
HETATM    4  N   UNL     1      41.075 -17.123   0.861  1.00  0.00    -0.262 N 
HETATM    5  H   UNL     1      41.101 -18.134   0.755  1.00  0.00     0.191 HD
HETATM    6  C   UNL     1      40.884 -16.402   2.010  1.00  0.00     0.137 A 
HETATM    7  C   UNL     1      40.899 -15.076   1.619  1.00  0.00     0.046 A 
ENDROOT
BRANCH   6   8
HETATM    8  N   UNL     1      40.658 -16.936   3.261  1.00  0.00    -0.309 N 
HETATM    9  C   UNL     1      41.563 -17.524   4.106  1.00  0.00     0.247 C 
HETATM   10  O   UNL     1      41.149 -18.154   5.083  1.00  0.00    -0.271 OA
HETATM   11  H   UNL     1      39.721 -16.870   3.643  1.00  0.00     0.170 HD
BRANCH   9  12
HETATM   12  C   UNL     1      43.048 -17.228   3.930  1.00  0.00     0.278 C 
BRANCH  12  13
HETATM   13  O   UNL     1      43.576 -17.726   2.705  1.00  0.00    -0.342 OA
BRANCH  13  14
HETATM   14  C   UNL     1      43.886 -19.058   2.831  1.00  0.00     0.069 A 
HETATM   15  C   UNL     1      43.523 -19.904   1.786  1.00  0.00     0.037 A 
HETATM   16  C   UNL     1      43.783 -21.271   1.881  1.00  0.00     0.003 A 
HETATM   17  C   UNL     1      44.418 -21.785   3.012  1.00  0.00     0.000 A 
HETATM   18  C   UNL     1      44.815 -20.930   4.040  1.00  0.00     0.003 A 
HETATM   19  C   UNL     1      44.561 -19.562   3.946  1.00  0.00     0.037 A 
ENDBRANCH  13  14
ENDBRANCH  12  13
ENDBRANCH   9  12
ENDBRANCH   6   8
BRANCH   7  20
HETATM   20  C   UNL     1      40.944 -13.969   2.552  1.00  0.00    -0.020 A 
HETATM   21  C   UNL     1      42.171 -13.635   3.145  1.00  0.00     0.014 A 
HETATM   22  C   UNL     1      42.234 -12.643   4.125  1.00  0.00     0.020 A 
HETATM   23  C   UNL     1      41.068 -11.983   4.509  1.00  0.00     0.011 A 
HETATM   24 BR   UNL     1      41.145 -10.667   5.864  1.00  0.00    -0.051 Br
HETATM   25  C   UNL     1      39.846 -12.294   3.911  1.00  0.00     0.020 A 
HETATM   26  C   UNL     1      39.784 -13.286   2.929  1.00  0.00     0.014 A 
ENDBRANCH   7  20
TORSDOF 5
ENDMDL
MODEL 4
REMARK VINA RESULT:      -6.8      1.564      2.047
REMARK  5 active torsions:
REMARK  status: ('A' for Active; 'I' for Inactive)
REMARK    1  A    between atoms: C_6  and  N_7 
REMARK       I    between atoms: N_7  and  C_8 
REMARK    2  A    between atoms: C_8  and  C_9 
REMARK    3  A    between atoms: C_9  and  O_10 
REMARK    4  A    between atoms: O_10  and  C_11 
REMARK    5  A    between atoms: C_18  and  C_19 
ROOT
HETATM    1  C   UNL     1      40.644 -15.108  -0.559  1.00  0.00     0.073 C 
HETATM    2  C   UNL     1      41.351 -14.522   0.606  1.00  0.00     0.065 A 
HETATM    3  N   UNL     1      41.090 -13.263   0.982  1.00  0.00    -0.177 NA
HETATM    4  N   UNL     1      41.854 -13.083   2.073  1.00  0.00    -0.262 N 
HETATM    5  H   UNL     1      41.830 -12.176   2.532  1.00  0.00     0.191 HD
HETATM    6  C   UNL     1      42.607 -14.177   2.409  1.00  0.00     0.137 A 
HETATM    7  C   UNL     1      42.304 -15.137   1.462  1.00  0.00     0.046 A 
ENDROOT
BRANCH   6   8
HETATM    8  N   UNL     1      43.517 -14.234   3.445  1.00  0.00    -0.309 N 
HETATM    9  C   UNL     1      43.265 -14.379   4.784  1.00  0.00     0.247 C 
HETATM   10  O   UNL     1      44.178 -14.177   5.590  1.00  0.00    -0.271 OA
HETATM   11  H   UNL     1      44.503 -14.202   3.213  1.00  0.00     0.170 HD
BRANCH   9  12
HETATM   12  C   UNL     1      41.931 -14.965   5.233  1.00  0.00     0.278 C 
BRANCH  12  13
HETATM   13  O   UNL     1      41.822 -16.362   4.982  1.00  0.00    -0.342 OA
BRANCH  13  14
HETATM   14  C   UNL     1      42.686 -17.057   5.792  1.00  0.00     0.069 A 
HETATM   15  C   UNL     1      42.479 -16.981   7.167  1.00  0.00     0.037 A 
HETATM   16  C   UNL     1      43.352 -17.640   8.034  1.00  0.00     0.003 A 
HETATM   17  C   UNL     1      44.417 -18.384   7.523  1.00  0.00     0.000 A 
HETATM   18  C   UNL     1      44.597 -18.489   6.145  1.00  0.00     0.003 A 
HETATM   19  C   UNL     1      43.724 -17.836   5.275  1.00  0.00     0.037 A 
ENDBRANCH  13  14
ENDBRANCH  12  13
ENDBRANCH   9  12
ENDBRANCH   6   8
BRANCH   7  20
HETATM   20  C   UNL     1      42.721 -16.520   1.566  1.00  0.00    -0.020 A 
HETATM   21  C   UNL     1      41.750 -17.501   1.818  1.00  0.00     0.014 A 
HETATM   22  C   UNL     1      42.126 -18.829   2.026  1.00  0.00     0.020 A 
HETATM   23  C   UNL     1      43.474 -19.175   1.979  1.00  0.00     0.011 A 
HETATM   24 BR   UNL     1      43.988 -20.966   2.302  1.00  0.00    -0.051 Br
HETATM   25  C   UNL     1      44.447 -18.211   1.711  1.00  0.00     0.020 A 
HETATM   26  C   UNL     1      44.070 -16.882   1.500  1.00  0.00     0.014 A 
ENDBRANCH   7  20
TORSDOF 5
ENDMDL
MODEL 5
REMARK VINA RESULT:      -6.7      3.256      6.133
REMARK  5 active torsions:
REMARK  status: ('A' for Active; 'I' for Inactive)
REMARK    1  A    between atoms: C_6  and  N_7 
REMARK       I    between atoms: N_7  and  C_8 
REMARK    2  A    between atoms: C_8  and  C_9 
REMARK    3  A    between atoms: C_9  and  O_10 
REMARK    4  A    between atoms: O_10  and  C_11 
REMARK    5  A    between atoms: C_18  and  C_19 
ROOT
HETATM    1  C   UNL     1      44.311 -14.381   6.377  1.00  0.00     0.073 C 
HETATM    2  C   UNL     1      42.996 -14.309   5.693  1.00  0.00     0.065 A 
HETATM    3  N   UNL     1      42.263 -13.192   5.770  1.00  0.00    -0.177 NA
HETATM    4  N   UNL     1      41.184 -13.456   5.013  1.00  0.00    -0.262 N 
HETATM    5  H   UNL     1      40.466 -12.741   4.933  1.00  0.00     0.191 HD
HETATM    6  C   UNL     1      41.190 -14.709   4.459  1.00  0.00     0.137 A 
HETATM    7  C   UNL     1      42.364 -15.297   4.891  1.00  0.00     0.046 A 
ENDROOT
BRANCH   6   8
HETATM    8  N   UNL     1      40.177 -15.250   3.694  1.00  0.00    -0.309 N 
HETATM    9  C   UNL     1      39.887 -15.002   2.378  1.00  0.00     0.247 C 
HETATM   10  O   UNL     1      38.811 -15.392   1.918  1.00  0.00    -0.271 OA
HETATM   11  H   UNL     1      39.578 -15.946   4.123  1.00  0.00     0.170 HD
BRANCH   9  12
HETATM   12  C   UNL     1      40.970 -14.425   1.472  1.00  0.00     0.278 C 
BRANCH  12  13
HETATM   13  O   UNL     1      41.479 -15.371   0.537  1.00  0.00    -0.342 OA
BRANCH  13  14
HETATM   14  C   UNL     1      41.395 -14.868  -0.738  1.00  0.00     0.069 A 
HETATM   15  C   UNL     1      40.996 -15.740  -1.748  1.00  0.00     0.037 A 
HETATM   16  C   UNL     1      40.931 -15.287  -3.066  1.00  0.00     0.003 A 
HETATM   17  C   UNL     1      41.249 -13.962  -3.367  1.00  0.00     0.000 A 
HETATM   18  C   UNL     1      41.610 -13.082  -2.348  1.00  0.00     0.003 A 
HETATM   19  C   UNL     1      41.672 -13.530  -1.029  1.00  0.00     0.037 A 
ENDBRANCH  13  14
ENDBRANCH  12  13
ENDBRANCH   9  12
ENDBRANCH   6   8
BRANCH   7  20
HETATM   20  C   UNL     1      42.869 -16.549   4.367  1.00  0.00    -0.020 A 
HETATM   21  C   UNL     1      43.423 -16.567   3.078  1.00  0.00     0.014 A 
HETATM   22  C   UNL     1      43.826 -17.772   2.500  1.00  0.00     0.020 A 
HETATM   23  C   UNL     1      43.678 -18.959   3.214  1.00  0.00     0.011 A 
HETATM   24 BR   UNL     1      44.186 -20.596   2.418  1.00  0.00    -0.051 Br
HETATM   25  C   UNL     1      43.146 -18.950   4.505  1.00  0.00     0.020 A 
HETATM   26  C   UNL     1      42.744 -17.743   5.084  1.00  0.00     0.014 A 
ENDBRANCH   7  20
TORSDOF 5
ENDMDL
MODEL 6
REMARK VINA RESULT:      -6.7      3.421      5.403
REMARK  5 active torsions:
REMARK  status: ('A' for Active; 'I' for Inactive)
REMARK    1  A    between atoms: C_6  and  N_7 
REMARK       I    between atoms: N_7  and  C_8 
REMARK    2  A    between atoms: C_8  and  C_9 
REMARK    3  A    between atoms: C_9  and  O_10 
REMARK    4  A    between atoms: O_10  and  C_11 
REMARK    5  A    between atoms: C_18  and  C_19 
ROOT
HETATM    1  C   UNL     1      44.836 -13.889   7.187  1.00  0.00     0.073 C 
HETATM    2  C   UNL     1      44.111 -15.067   6.646  1.00  0.00     0.065 A 
HETATM    3  N   UNL     1      44.197 -16.248   7.271  1.00  0.00    -0.177 NA
HETATM    4  N   UNL     1      43.397 -17.056   6.553  1.00  0.00    -0.262 N 
HETATM    5  H   UNL     1      43.315 -18.028   6.838  1.00  0.00     0.191 HD
HETATM    6  C   UNL     1      42.807 -16.440   5.480  1.00  0.00     0.137 A 
HETATM    7  C   UNL     1      43.261 -15.135   5.510  1.00  0.00     0.046 A 
ENDROOT
BRANCH   6   8
HETATM    8  N   UNL     1      41.994 -17.057   4.552  1.00  0.00    -0.309 N 
HETATM    9  C   UNL     1      42.345 -17.582   3.337  1.00  0.00     0.247 C 
HETATM   10  O   UNL     1      41.457 -17.886   2.536  1.00  0.00    -0.271 OA
HETATM   11  H   UNL     1      41.015 -17.181   4.787  1.00  0.00     0.170 HD
BRANCH   9  12
HETATM   12  C   UNL     1      43.801 -17.954   3.078  1.00  0.00     0.278 C 
BRANCH  12  13
HETATM   13  O   UNL     1      44.412 -18.621   4.177  1.00  0.00    -0.342 OA
BRANCH  13  14
HETATM   14  C   UNL     1      44.469 -19.972   3.939  1.00  0.00     0.069 A 
HETATM   15  C   UNL     1      44.726 -20.805   5.025  1.00  0.00     0.037 A 
HETATM   16  C   UNL     1      44.830 -22.183   4.829  1.00  0.00     0.003 A 
HETATM   17  C   UNL     1      44.662 -22.723   3.553  1.00  0.00     0.000 A 
HETATM   18  C   UNL     1      44.367 -21.888   2.475  1.00  0.00     0.003 A 
HETATM   19  C   UNL     1      44.258 -20.512   2.668  1.00  0.00     0.037 A 
ENDBRANCH  13  14
ENDBRANCH  12  13
ENDBRANCH   9  12
ENDBRANCH   6   8
BRANCH   7  20
HETATM   20  C   UNL     1      42.717 -14.082   4.677  1.00  0.00    -0.020 A 
HETATM   21  C   UNL     1      41.693 -13.273   5.193  1.00  0.00     0.014 A 
HETATM   22  C   UNL     1      41.075 -12.318   4.386  1.00  0.00     0.020 A 
HETATM   23  C   UNL     1      41.484 -12.169   3.062  1.00  0.00     0.011 A 
HETATM   24 BR   UNL     1      40.620 -10.902   1.956  1.00  0.00    -0.051 Br
HETATM   25  C   UNL     1      42.515 -12.955   2.544  1.00  0.00     0.020 A 
HETATM   26  C   UNL     1      43.135 -13.911   3.354  1.00  0.00     0.014 A 
ENDBRANCH   7  20
TORSDOF 5
ENDMDL
MODEL 7
REMARK VINA RESULT:      -6.5      3.896      5.749
REMARK  5 active torsions:
REMARK  status: ('A' for Active; 'I' for Inactive)
REMARK    1  A    between atoms: C_6  and  N_7 
REMARK       I    between atoms: N_7  and  C_8 
REMARK    2  A    between atoms: C_8  and  C_9 
REMARK    3  A    between atoms: C_9  and  O_10 
REMARK    4  A    between atoms: O_10  and  C_11 
REMARK    5  A    between atoms: C_18  and  C_19 
ROOT
HETATM    1  C   UNL     1      43.794 -15.790   7.617  1.00  0.00     0.073 C 
HETATM    2  C   UNL     1      42.997 -16.536   6.613  1.00  0.00     0.065 A 
HETATM    3  N   UNL     1      42.987 -17.876   6.628  1.00  0.00    -0.177 NA
HETATM    4  N   UNL     1      42.144 -18.207   5.635  1.00  0.00    -0.262 N 
HETATM    5  H   UNL     1      41.987 -19.194   5.447  1.00  0.00     0.191 HD
HETATM    6  C   UNL     1      41.617 -17.130   4.972  1.00  0.00     0.137 A 
HETATM    7  C   UNL     1      42.162 -16.018   5.586  1.00  0.00     0.046 A 
ENDROOT
BRANCH   6   8
HETATM    8  N   UNL     1      40.777 -17.196   3.880  1.00  0.00    -0.309 N 
HETATM    9  C   UNL     1      41.115 -17.198   2.552  1.00  0.00     0.247 C 
HETATM   10  O   UNL     1      40.231 -17.027   1.709  1.00  0.00    -0.271 OA
HETATM   11  H   UNL     1      39.782 -17.288   4.051  1.00  0.00     0.170 HD
BRANCH   9  12
HETATM   12  C   UNL     1      42.529 -17.598   2.144  1.00  0.00     0.278 C 
BRANCH  12  13
HETATM   13  O   UNL     1      42.585 -18.859   1.484  1.00  0.00    -0.342 OA
BRANCH  13  14
HETATM   14  C   UNL     1      43.371 -19.731   2.196  1.00  0.00     0.069 A 
HETATM   15  C   UNL     1      43.425 -21.052   1.756  1.00  0.00     0.037 A 
HETATM   16  C   UNL     1      44.180 -21.986   2.466  1.00  0.00     0.003 A 
HETATM   17  C   UNL     1      44.890 -21.594   3.602  1.00  0.00     0.000 A 
HETATM   18  C   UNL     1      44.864 -20.262   4.017  1.00  0.00     0.003 A 
HETATM   19  C   UNL     1      44.114 -19.326   3.307  1.00  0.00     0.037 A 
ENDBRANCH  13  14
ENDBRANCH  12  13
ENDBRANCH   9  12
ENDBRANCH   6   8
BRANCH   7  20
HETATM   20  C   UNL     1      41.709 -14.665   5.335  1.00  0.00    -0.020 A 
HETATM   21  C   UNL     1      42.509 -13.819   4.553  1.00  0.00     0.014 A 
HETATM   22  C   UNL     1      42.157 -12.481   4.375  1.00  0.00     0.020 A 
HETATM   23  C   UNL     1      41.000 -11.990   4.977  1.00  0.00     0.011 A 
HETATM   24 BR   UNL     1      40.543 -10.167   4.769  1.00  0.00    -0.051 Br
HETATM   25  C   UNL     1      40.186 -12.828   5.741  1.00  0.00     0.020 A 
HETATM   26  C   UNL     1      40.539 -14.169   5.917  1.00  0.00     0.014 A 
ENDBRANCH   7  20
TORSDOF 5
ENDMDL
MODEL 8
REMARK VINA RESULT:      -6.4      2.842      4.349
REMARK  5 active torsions:
REMARK  status: ('A' for Active; 'I' for Inactive)
REMARK    1  A    between atoms: C_6  and  N_7 
REMARK       I    between atoms: N_7  and  C_8 
REMARK    2  A    between atoms: C_8  and  C_9 
REMARK    3  A    between atoms: C_9  and  O_10 
REMARK    4  A    between atoms: O_10  and  C_11 
REMARK    5  A    between atoms: C_18  and  C_19 
ROOT
HETATM    1  C   UNL     1      40.718 -10.892   4.560  1.00  0.00     0.073 C 
HETATM    2  C   UNL     1      40.470 -12.191   5.235  1.00  0.00     0.065 A 
HETATM    3  N   UNL     1      40.137 -12.216   6.532  1.00  0.00    -0.177 NA
HETATM    4  N   UNL     1      39.944 -13.520   6.794  1.00  0.00    -0.262 N 
HETATM    5  H   UNL     1      39.692 -13.788   7.742  1.00  0.00     0.191 HD
HETATM    6  C   UNL     1      40.152 -14.339   5.715  1.00  0.00     0.137 A 
HETATM    7  C   UNL     1      40.505 -13.497   4.677  1.00  0.00     0.046 A 
ENDROOT
BRANCH   6   8
HETATM    8  N   UNL     1      40.080 -15.716   5.731  1.00  0.00    -0.309 N 
HETATM    9  C   UNL     1      41.067 -16.618   5.428  1.00  0.00     0.247 C 
HETATM   10  O   UNL     1      40.766 -17.803   5.269  1.00  0.00    -0.271 OA
HETATM   11  H   UNL     1      39.212 -16.143   6.034  1.00  0.00     0.170 HD
BRANCH   9  12
HETATM   12  C   UNL     1      42.524 -16.173   5.482  1.00  0.00     0.278 C 
BRANCH  12  13
HETATM   13  O   UNL     1      43.443 -17.246   5.300  1.00  0.00    -0.342 OA
BRANCH  13  14
HETATM   14  C   UNL     1      43.559 -17.549   3.966  1.00  0.00     0.069 A 
HETATM   15  C   UNL     1      43.614 -18.895   3.615  1.00  0.00     0.037 A 
HETATM   16  C   UNL     1      43.769 -19.254   2.275  1.00  0.00     0.003 A 
HETATM   17  C   UNL     1      43.852 -18.268   1.292  1.00  0.00     0.000 A 
HETATM   18  C   UNL     1      43.758 -16.922   1.643  1.00  0.00     0.003 A 
HETATM   19  C   UNL     1      43.598 -16.560   2.980  1.00  0.00     0.037 A 
ENDBRANCH  13  14
ENDBRANCH  12  13
ENDBRANCH   9  12
ENDBRANCH   6   8
BRANCH   7  20
HETATM   20  C   UNL     1      40.605 -13.929   3.299  1.00  0.00    -0.020 A 
HETATM   21  C   UNL     1      41.737 -13.559   2.556  1.00  0.00     0.014 A 
HETATM   22  C   UNL     1      41.821 -13.868   1.198  1.00  0.00     0.020 A 
HETATM   23  C   UNL     1      40.774 -14.553   0.584  1.00  0.00     0.011 A 
HETATM   24 BR   UNL     1      40.870 -14.938  -1.265  1.00  0.00    -0.051 Br
HETATM   25  C   UNL     1      39.653 -14.943   1.317  1.00  0.00     0.020 A 
HETATM   26  C   UNL     1      39.570 -14.633   2.678  1.00  0.00     0.014 A 
ENDBRANCH   7  20
TORSDOF 5
ENDMDL
MODEL 9
REMARK VINA RESULT:      -6.4      3.699      4.878
REMARK  5 active torsions:
REMARK  status: ('A' for Active; 'I' for Inactive)
REMARK    1  A    between atoms: C_6  and  N_7 
REMARK       I    between atoms: N_7  and  C_8 
REMARK    2  A    between atoms: C_8  and  C_9 
REMARK    3  A    between atoms: C_9  and  O_10 
REMARK    4  A    between atoms: O_10  and  C_11 
REMARK    5  A    between atoms: C_18  and  C_19 
ROOT
HETATM    1  C   UNL     1      40.114 -15.026   4.825  1.00  0.00     0.073 C 
HETATM    2  C   UNL     1      41.348 -14.387   5.347  1.00  0.00     0.065 A 
HETATM    3  N   UNL     1      41.270 -13.229   6.014  1.00  0.00    -0.177 NA
HETATM    4  N   UNL     1      42.539 -12.973   6.373  1.00  0.00    -0.262 N 
HETATM    5  H   UNL     1      42.730 -12.118   6.889  1.00  0.00     0.191 HD
HETATM    6  C   UNL     1      43.436 -13.919   5.952  1.00  0.00     0.137 A 
HETATM    7  C   UNL     1      42.686 -14.859   5.270  1.00  0.00     0.046 A 
ENDROOT
BRANCH   6   8
HETATM    8  N   UNL     1      44.802 -13.864   6.135  1.00  0.00    -0.309 N 
HETATM    9  C   UNL     1      45.496 -13.243   7.139  1.00  0.00     0.247 C 
HETATM   10  O   UNL     1      46.716 -13.095   7.022  1.00  0.00    -0.271 OA
HETATM   11  H   UNL     1      45.390 -14.366   5.478  1.00  0.00     0.170 HD
BRANCH   9  12
HETATM   12  C   UNL     1      44.785 -12.922   8.449  1.00  0.00     0.278 C 
BRANCH  12  13
HETATM   13  O   UNL     1      45.453 -11.928   9.219  1.00  0.00    -0.342 OA
BRANCH  13  14
HETATM   14  C   UNL     1      44.694 -11.585  10.311  1.00  0.00     0.069 A 
HETATM   15  C   UNL     1      44.434 -10.232  10.514  1.00  0.00     0.037 A 
HETATM   16  C   UNL     1      43.699  -9.830  11.629  1.00  0.00     0.003 A 
HETATM   17  C   UNL     1      43.213 -10.781  12.528  1.00  0.00     0.000 A 
HETATM   18  C   UNL     1      43.443 -12.138  12.300  1.00  0.00     0.003 A 
HETATM   19  C   UNL     1      44.174 -12.544  11.184  1.00  0.00     0.037 A 
ENDBRANCH  13  14
ENDBRANCH  12  13
ENDBRANCH   9  12
ENDBRANCH   6   8
BRANCH   7  20
HETATM   20  C   UNL     1      43.209 -16.139   4.840  1.00  0.00    -0.020 A 
HETATM   21  C   UNL     1      43.386 -16.371   3.468  1.00  0.00     0.014 A 
HETATM   22  C   UNL     1      43.790 -17.626   3.010  1.00  0.00     0.020 A 
HETATM   23  C   UNL     1      44.022 -18.648   3.928  1.00  0.00     0.011 A 
HETATM   24 BR   UNL     1      44.531 -20.360   3.307  1.00  0.00    -0.051 Br
HETATM   25  C   UNL     1      43.869 -18.423   5.297  1.00  0.00     0.020 A 
HETATM   26  C   UNL     1      43.465 -17.165   5.754  1.00  0.00     0.014 A 
ENDBRANCH   7  20
TORSDOF 5
ENDMDL
MODEL 10
REMARK VINA RESULT:      -6.4      3.925      6.949
REMARK  5 active torsions:
REMARK  status: ('A' for Active; 'I' for Inactive)
REMARK    1  A    between atoms: C_6  and  N_7 
REMARK       I    between atoms: N_7  and  C_8 
REMARK    2  A    between atoms: C_8  and  C_9 
REMARK    3  A    between atoms: C_9  and  O_10 
REMARK    4  A    between atoms: O_10  and  C_11 
REMARK    5  A    between atoms: C_18  and  C_19 
ROOT
HETATM    1  C   UNL     1      43.588 -18.264   2.149  1.00  0.00     0.073 C 
HETATM    2  C   UNL     1      42.301 -17.534   2.034  1.00  0.00     0.065 A 
HETATM    3  N   UNL     1      41.367 -17.957   1.173  1.00  0.00    -0.177 NA
HETATM    4  N   UNL     1      40.340 -17.112   1.364  1.00  0.00    -0.262 N 
HETATM    5  H   UNL     1      39.505 -17.234   0.796  1.00  0.00     0.191 HD
HETATM    6  C   UNL     1      40.581 -16.151   2.310  1.00  0.00     0.137 A 
HETATM    7  C   UNL     1      41.863 -16.397   2.765  1.00  0.00     0.046 A 
ENDROOT
BRANCH   6   8
HETATM    8  N   UNL     1      39.719 -15.129   2.651  1.00  0.00    -0.309 N 
HETATM    9  C   UNL     1      39.714 -13.839   2.193  1.00  0.00     0.247 C 
HETATM   10  O   UNL     1      39.022 -12.999   2.774  1.00  0.00    -0.271 OA
HETATM   11  H   UNL     1      38.963 -15.341   3.293  1.00  0.00     0.170 HD
BRANCH   9  12
HETATM   12  C   UNL     1      40.408 -13.513   0.874  1.00  0.00     0.278 C 
BRANCH  12  13
HETATM   13  O   UNL     1      39.501 -13.134  -0.156  1.00  0.00    -0.342 OA
BRANCH  13  14
HETATM   14  C   UNL     1      39.617 -13.985  -1.227  1.00  0.00     0.069 A 
HETATM   15  C   UNL     1      40.772 -14.759  -1.310  1.00  0.00     0.037 A 
HETATM   16  C   UNL     1      40.954 -15.612  -2.399  1.00  0.00     0.003 A 
HETATM   17  C   UNL     1      39.977 -15.700  -3.391  1.00  0.00     0.000 A 
HETATM   18  C   UNL     1      38.805 -14.952  -3.284  1.00  0.00     0.003 A 
HETATM   19  C   UNL     1      38.617 -14.102  -2.195  1.00  0.00     0.037 A 
ENDBRANCH  13  14
ENDBRANCH  12  13
ENDBRANCH   9  12
ENDBRANCH   6   8
BRANCH   7  20
HETATM   20  C   UNL     1      42.438 -15.744   3.923  1.00  0.00    -0.020 A 
HETATM   21  C   UNL     1      43.106 -14.523   3.748  1.00  0.00     0.014 A 
HETATM   22  C   UNL     1      43.760 -13.916   4.821  1.00  0.00     0.020 A 
HETATM   23  C   UNL     1      43.741 -14.530   6.072  1.00  0.00     0.011 A 
HETATM   24 BR   UNL     1      44.660 -13.729   7.517  1.00  0.00    -0.051 Br
HETATM   25  C   UNL     1      43.064 -15.735   6.262  1.00  0.00     0.020 A 
HETATM   26  C   UNL     1      42.407 -16.342   5.187  1.00  0.00     0.014 A 
ENDBRANCH   7  20
TORSDOF 5
ENDMDL
