MODEL 1
REMARK VINA RESULT:      -8.3      0.000      0.000
REMARK  3 active torsions:
REMARK  status: ('A' for Active; 'I' for Inactive)
REMARK    1  A    between atoms: C_9  and  C_10 
REMARK    2  A    between atoms: C_16  and  C_17 
REMARK       I    between atoms: C_17  and  N_18 
REMARK    3  A    between atoms: N_18  and  C_19 
ROOT
HETATM    1  C   UNL     1      42.855 -17.291   7.772  1.00  0.00     0.070 C 
HETATM    2  C   UNL     1      42.822 -16.429   6.536  1.00  0.00     0.037 A 
HETATM    3  N   UNL     1      42.161 -15.212   6.666  1.00  0.00    -0.192 N 
HETATM    4  C   UNL     1      42.197 -14.252   5.720  1.00  0.00     0.725 A 
HETATM    5  N   UNL     1      42.803 -14.512   4.519  1.00  0.00    -0.082 N 
HETATM    6  N   UNL     1      42.872 -13.397   3.757  1.00  0.00    -0.149 NA
HETATM    7  C   UNL     1      42.208 -12.530   4.529  1.00  0.00     0.275 A 
HETATM    8  N   UNL     1      41.783 -13.012   5.741  1.00  0.00    -0.054 NA
HETATM    9  C   UNL     1      43.423 -15.791   4.172  1.00  0.00     0.221 A 
HETATM   10  C   UNL     1      43.424 -16.740   5.363  1.00  0.00     0.064 A 
HETATM   11  H   UNL     1      41.777 -14.976   7.576  1.00  0.00     0.184 HD
ENDROOT
BRANCH  10  12
HETATM   12  C   UNL     1      44.189 -17.987   5.127  1.00  0.00     0.256 C 
HETATM   13  N   UNL     1      43.546 -18.870   4.292  1.00  0.00    -0.322 N 
HETATM   14  H   UNL     1      42.683 -18.548   3.868  1.00  0.00     0.169 HD
HETATM   15  O   UNL     1      45.296 -18.110   5.635  1.00  0.00    -0.267 OA
BRANCH  13  16
HETATM   16  C   UNL     1      43.987 -20.159   3.932  1.00  0.00     0.052 A 
HETATM   17  C   UNL     1      44.456 -21.124   4.820  1.00  0.00     0.145 A 
HETATM   18  N   UNL     1      44.858 -22.369   4.450  1.00  0.00    -0.271 NA
HETATM   19  C   UNL     1      44.787 -22.668   3.137  1.00  0.00     0.116 A 
HETATM   20  C   UNL     1      44.337 -21.782   2.175  1.00  0.00     0.021 A 
HETATM   21  C   UNL     1      43.937 -20.510   2.580  1.00  0.00     0.032 A 
ENDBRANCH  13  16
ENDBRANCH  10  12
BRANCH   9  22
HETATM   22  C   UNL     1      42.709 -16.376   2.958  1.00  0.00     0.064 A 
HETATM   23  N   UNL     1      41.386 -16.691   3.072  1.00  0.00    -0.263 NA
HETATM   24  C   UNL     1      40.766 -17.181   1.975  1.00  0.00     0.117 A 
HETATM   25  C   UNL     1      41.394 -17.388   0.759  1.00  0.00     0.019 A 
HETATM   26  C   UNL     1      42.742 -17.069   0.655  1.00  0.00     0.003 A 
HETATM   27  C   UNL     1      43.409 -16.554   1.763  1.00  0.00     0.030 A 
ENDBRANCH   9  22
TORSDOF 3
ENDMDL
MODEL 2
REMARK VINA RESULT:      -8.0      2.049      3.981
REMARK  3 active torsions:
REMARK  status: ('A' for Active; 'I' for Inactive)
REMARK    1  A    between atoms: C_9  and  C_10 
REMARK    2  A    between atoms: C_16  and  C_17 
REMARK       I    between atoms: C_17  and  N_18 
REMARK    3  A    between atoms: N_18  and  C_19 
ROOT
HETATM    1  C   UNL     1      40.564 -16.280   1.387  1.00  0.00     0.070 C 
HETATM    2  C   UNL     1      40.591 -15.550   2.704  1.00  0.00     0.037 A 
HETATM    3  N   UNL     1      40.087 -14.255   2.689  1.00  0.00    -0.192 N 
HETATM    4  C   UNL     1      39.871 -13.537   3.809  1.00  0.00     0.725 A 
HETATM    5  N   UNL     1      40.274 -14.038   5.018  1.00  0.00    -0.082 N 
HETATM    6  N   UNL     1      39.848 -13.255   6.036  1.00  0.00    -0.149 NA
HETATM    7  C   UNL     1      39.274 -12.257   5.355  1.00  0.00     0.275 A 
HETATM    8  N   UNL     1      39.262 -12.393   3.991  1.00  0.00    -0.054 NA
HETATM    9  C   UNL     1      40.947 -15.325   5.191  1.00  0.00     0.221 A 
HETATM   10  C   UNL     1      41.017 -16.086   3.874  1.00  0.00     0.064 A 
HETATM   11  H   UNL     1      39.713 -13.903   1.812  1.00  0.00     0.184 HD
ENDROOT
BRANCH  10  12
HETATM   12  C   UNL     1      41.534 -17.468   4.015  1.00  0.00     0.256 C 
HETATM   13  N   UNL     1      42.666 -17.704   3.272  1.00  0.00    -0.322 N 
HETATM   14  H   UNL     1      43.067 -16.907   2.789  1.00  0.00     0.169 HD
HETATM   15  O   UNL     1      40.965 -18.240   4.775  1.00  0.00    -0.267 OA
BRANCH  13  16
HETATM   16  C   UNL     1      43.350 -18.930   3.148  1.00  0.00     0.052 A 
HETATM   17  C   UNL     1      44.264 -19.435   4.070  1.00  0.00     0.145 A 
HETATM   18  N   UNL     1      44.896 -20.632   3.938  1.00  0.00    -0.271 NA
HETATM   19  C   UNL     1      44.604 -21.360   2.842  1.00  0.00     0.116 A 
HETATM   20  C   UNL     1      43.711 -20.949   1.868  1.00  0.00     0.021 A 
HETATM   21  C   UNL     1      43.081 -19.715   2.024  1.00  0.00     0.032 A 
ENDBRANCH  13  16
ENDBRANCH  10  12
BRANCH   9  22
HETATM   22  C   UNL     1      42.323 -15.089   5.804  1.00  0.00     0.064 A 
HETATM   23  N   UNL     1      43.066 -14.039   5.347  1.00  0.00    -0.263 NA
HETATM   24  C   UNL     1      44.271 -13.831   5.926  1.00  0.00     0.117 A 
HETATM   25  C   UNL     1      44.789 -14.620   6.937  1.00  0.00     0.019 A 
HETATM   26  C   UNL     1      44.026 -15.688   7.392  1.00  0.00     0.003 A 
HETATM   27  C   UNL     1      42.778 -15.926   6.825  1.00  0.00     0.030 A 
ENDBRANCH   9  22
TORSDOF 3
ENDMDL
MODEL 3
REMARK VINA RESULT:      -7.6      2.682      5.200
REMARK  3 active torsions:
REMARK  status: ('A' for Active; 'I' for Inactive)
REMARK    1  A    between atoms: C_9  and  C_10 
REMARK    2  A    between atoms: C_16  and  C_17 
REMARK       I    between atoms: C_17  and  N_18 
REMARK    3  A    between atoms: N_18  and  C_19 
ROOT
HETATM    1  C   UNL     1      43.705 -17.704   1.133  1.00  0.00     0.070 C 
HETATM    2  C   UNL     1      42.591 -16.692   1.214  1.00  0.00     0.037 A 
HETATM    3  N   UNL     1      42.325 -15.990   0.044  1.00  0.00    -0.192 N 
HETATM    4  C   UNL     1      41.252 -15.188  -0.104  1.00  0.00     0.725 A 
HETATM    5  N   UNL     1      40.440 -14.944   0.971  1.00  0.00    -0.082 N 
HETATM    6  N   UNL     1      39.342 -14.244   0.603  1.00  0.00    -0.149 NA
HETATM    7  C   UNL     1      39.610 -14.028  -0.689  1.00  0.00     0.275 A 
HETATM    8  N   UNL     1      40.766 -14.594  -1.163  1.00  0.00    -0.054 NA
HETATM    9  C   UNL     1      40.660 -15.495   2.308  1.00  0.00     0.221 A 
HETATM   10  C   UNL     1      41.826 -16.475   2.311  1.00  0.00     0.064 A 
HETATM   11  H   UNL     1      42.871 -16.221  -0.782  1.00  0.00     0.184 HD
ENDROOT
BRANCH  10  12
HETATM   12  C   UNL     1      41.992 -17.195   3.595  1.00  0.00     0.256 C 
HETATM   13  N   UNL     1      42.891 -16.594   4.444  1.00  0.00    -0.322 N 
HETATM   14  H   UNL     1      43.269 -15.701   4.147  1.00  0.00     0.169 HD
HETATM   15  O   UNL     1      41.318 -18.195   3.807  1.00  0.00    -0.267 OA
BRANCH  13  16
HETATM   16  C   UNL     1      43.308 -17.072   5.703  1.00  0.00     0.052 A 
HETATM   17  C   UNL     1      42.678 -16.796   6.913  1.00  0.00     0.145 A 
HETATM   18  N   UNL     1      43.087 -17.286   8.114  1.00  0.00    -0.271 NA
HETATM   19  C   UNL     1      44.170 -18.089   8.109  1.00  0.00     0.116 A 
HETATM   20  C   UNL     1      44.867 -18.424   6.962  1.00  0.00     0.021 A 
HETATM   21  C   UNL     1      44.430 -17.903   5.745  1.00  0.00     0.032 A 
ENDBRANCH  13  16
ENDBRANCH  10  12
BRANCH   9  22
HETATM   22  C   UNL     1      40.860 -14.346   3.292  1.00  0.00     0.064 A 
HETATM   23  N   UNL     1      42.026 -13.639   3.237  1.00  0.00    -0.263 NA
HETATM   24  C   UNL     1      42.168 -12.607   4.099  1.00  0.00     0.117 A 
HETATM   25  C   UNL     1      41.212 -12.239   5.030  1.00  0.00     0.019 A 
HETATM   26  C   UNL     1      40.031 -12.969   5.080  1.00  0.00     0.003 A 
HETATM   27  C   UNL     1      39.848 -14.032   4.202  1.00  0.00     0.030 A 
ENDBRANCH   9  22
TORSDOF 3
ENDMDL
MODEL 4
REMARK VINA RESULT:      -7.6      2.275      2.803
REMARK  3 active torsions:
REMARK  status: ('A' for Active; 'I' for Inactive)
REMARK    1  A    between atoms: C_9  and  C_10 
REMARK    2  A    between atoms: C_16  and  C_17 
REMARK       I    between atoms: C_17  and  N_18 
REMARK    3  A    between atoms: N_18  and  C_19 
ROOT
HETATM    1  C   UNL     1      40.855 -16.785   6.641  1.00  0.00     0.070 C 
HETATM    2  C   UNL     1      40.764 -15.521   5.825  1.00  0.00     0.037 A 
HETATM    3  N   UNL     1      39.812 -14.598   6.243  1.00  0.00    -0.192 N 
HETATM    4  C   UNL     1      39.728 -13.350   5.739  1.00  0.00     0.725 A 
HETATM    5  N   UNL     1      40.525 -12.995   4.684  1.00  0.00    -0.082 N 
HETATM    6  N   UNL     1      40.411 -11.675   4.409  1.00  0.00    -0.149 NA
HETATM    7  C   UNL     1      39.462 -11.324   5.284  1.00  0.00     0.275 A 
HETATM    8  N   UNL     1      39.021 -12.318   6.120  1.00  0.00    -0.054 NA
HETATM    9  C   UNL     1      41.481 -13.894   4.036  1.00  0.00     0.221 A 
HETATM   10  C   UNL     1      41.566 -15.223   4.774  1.00  0.00     0.064 A 
HETATM   11  H   UNL     1      39.271 -14.819   7.073  1.00  0.00     0.184 HD
ENDROOT
BRANCH  10  12
HETATM   12  C   UNL     1      42.639 -16.113   4.270  1.00  0.00     0.256 C 
HETATM   13  N   UNL     1      42.207 -17.390   4.003  1.00  0.00    -0.322 N 
HETATM   14  H   UNL     1      41.211 -17.561   4.093  1.00  0.00     0.169 HD
HETATM   15  O   UNL     1      43.761 -15.653   4.101  1.00  0.00    -0.267 OA
BRANCH  13  16
HETATM   16  C   UNL     1      43.000 -18.474   3.576  1.00  0.00     0.052 A 
HETATM   17  C   UNL     1      43.953 -19.126   4.354  1.00  0.00     0.145 A 
HETATM   18  N   UNL     1      44.693 -20.184   3.926  1.00  0.00    -0.271 NA
HETATM   19  C   UNL     1      44.472 -20.614   2.667  1.00  0.00     0.116 A 
HETATM   20  C   UNL     1      43.548 -20.036   1.814  1.00  0.00     0.021 A 
HETATM   21  C   UNL     1      42.808 -18.949   2.276  1.00  0.00     0.032 A 
ENDBRANCH  13  16
ENDBRANCH  10  12
BRANCH   9  22
HETATM   22  C   UNL     1      41.091 -14.063   2.571  1.00  0.00     0.064 A 
HETATM   23  N   UNL     1      41.988 -13.685   1.613  1.00  0.00    -0.263 NA
HETATM   24  C   UNL     1      41.632 -13.871   0.322  1.00  0.00     0.117 A 
HETATM   25  C   UNL     1      40.421 -14.406  -0.078  1.00  0.00     0.019 A 
HETATM   26  C   UNL     1      39.515 -14.783   0.905  1.00  0.00     0.003 A 
HETATM   27  C   UNL     1      39.850 -14.614   2.245  1.00  0.00     0.030 A 
ENDBRANCH   9  22
TORSDOF 3
ENDMDL
MODEL 5
REMARK VINA RESULT:      -7.3      3.329      6.157
REMARK  3 active torsions:
REMARK  status: ('A' for Active; 'I' for Inactive)
REMARK    1  A    between atoms: C_9  and  C_10 
REMARK    2  A    between atoms: C_16  and  C_17 
REMARK       I    between atoms: C_17  and  N_18 
REMARK    3  A    between atoms: N_18  and  C_19 
ROOT
HETATM    1  C   UNL     1      41.712 -11.945   1.659  1.00  0.00     0.070 C 
HETATM    2  C   UNL     1      42.012 -13.136   2.531  1.00  0.00     0.037 A 
HETATM    3  N   UNL     1      42.819 -12.890   3.636  1.00  0.00    -0.192 N 
HETATM    4  C   UNL     1      43.031 -13.799   4.608  1.00  0.00     0.725 A 
HETATM    5  N   UNL     1      42.539 -15.068   4.462  1.00  0.00    -0.082 N 
HETATM    6  N   UNL     1      42.718 -15.793   5.591  1.00  0.00    -0.149 NA
HETATM    7  C   UNL     1      43.404 -14.920   6.337  1.00  0.00     0.275 A 
HETATM    8  N   UNL     1      43.612 -13.687   5.775  1.00  0.00    -0.054 NA
HETATM    9  C   UNL     1      41.788 -15.529   3.294  1.00  0.00     0.221 A 
HETATM   10  C   UNL     1      41.513 -14.381   2.333  1.00  0.00     0.064 A 
HETATM   11  H   UNL     1      43.124 -11.934   3.795  1.00  0.00     0.184 HD
ENDROOT
BRANCH  10  12
HETATM   12  C   UNL     1      40.611 -14.746   1.215  1.00  0.00     0.256 C 
HETATM   13  N   UNL     1      41.187 -14.585  -0.023  1.00  0.00    -0.322 N 
HETATM   14  H   UNL     1      42.167 -14.326  -0.038  1.00  0.00     0.169 HD
HETATM   15  O   UNL     1      39.495 -15.180   1.470  1.00  0.00    -0.267 OA
BRANCH  13  16
HETATM   16  C   UNL     1      40.564 -14.788  -1.271  1.00  0.00     0.052 A 
HETATM   17  C   UNL     1      40.971 -15.711  -2.230  1.00  0.00     0.145 A 
HETATM   18  N   UNL     1      40.342 -15.902  -3.420  1.00  0.00    -0.271 NA
HETATM   19  C   UNL     1      39.256 -15.141  -3.665  1.00  0.00     0.116 A 
HETATM   20  C   UNL     1      38.770 -14.196  -2.780  1.00  0.00     0.021 A 
HETATM   21  C   UNL     1      39.438 -14.016  -1.570  1.00  0.00     0.032 A 
ENDBRANCH  13  16
ENDBRANCH  10  12
BRANCH   9  22
HETATM   22  C   UNL     1      42.548 -16.675   2.635  1.00  0.00     0.064 A 
HETATM   23  N   UNL     1      43.670 -16.381   1.915  1.00  0.00    -0.263 NA
HETATM   24  C   UNL     1      44.344 -17.416   1.364  1.00  0.00     0.117 A 
HETATM   25  C   UNL     1      43.959 -18.740   1.480  1.00  0.00     0.019 A 
HETATM   26  C   UNL     1      42.813 -19.027   2.211  1.00  0.00     0.003 A 
HETATM   27  C   UNL     1      42.099 -17.987   2.799  1.00  0.00     0.030 A 
ENDBRANCH   9  22
TORSDOF 3
ENDMDL
MODEL 6
REMARK VINA RESULT:      -7.3      2.475      6.384
REMARK  3 active torsions:
REMARK  status: ('A' for Active; 'I' for Inactive)
REMARK    1  A    between atoms: C_9  and  C_10 
REMARK    2  A    between atoms: C_16  and  C_17 
REMARK       I    between atoms: C_17  and  N_18 
REMARK    3  A    between atoms: N_18  and  C_19 
ROOT
HETATM    1  C   UNL     1      44.951 -14.017   7.010  1.00  0.00     0.070 C 
HETATM    2  C   UNL     1      44.311 -15.265   6.459  1.00  0.00     0.037 A 
HETATM    3  N   UNL     1      44.868 -16.467   6.882  1.00  0.00    -0.192 N 
HETATM    4  C   UNL     1      44.305 -17.666   6.631  1.00  0.00     0.725 A 
HETATM    5  N   UNL     1      43.203 -17.736   5.822  1.00  0.00    -0.082 N 
HETATM    6  N   UNL     1      42.692 -18.989   5.802  1.00  0.00    -0.149 NA
HETATM    7  C   UNL     1      43.593 -19.633   6.551  1.00  0.00     0.275 A 
HETATM    8  N   UNL     1      44.593 -18.860   7.082  1.00  0.00    -0.054 NA
HETATM    9  C   UNL     1      42.577 -16.578   5.184  1.00  0.00     0.221 A 
HETATM   10  C   UNL     1      43.229 -15.282   5.645  1.00  0.00     0.064 A 
HETATM   11  H   UNL     1      45.637 -16.426   7.545  1.00  0.00     0.184 HD
ENDROOT
BRANCH  10  12
HETATM   12  C   UNL     1      42.531 -14.065   5.167  1.00  0.00     0.256 C 
HETATM   13  N   UNL     1      41.295 -13.885   5.741  1.00  0.00    -0.322 N 
HETATM   14  H   UNL     1      41.036 -14.537   6.474  1.00  0.00     0.169 HD
HETATM   15  O   UNL     1      43.098 -13.329   4.370  1.00  0.00    -0.267 OA
BRANCH  13  16
HETATM   16  C   UNL     1      40.371 -12.863   5.445  1.00  0.00     0.052 A 
HETATM   17  C   UNL     1      39.964 -11.868   6.331  1.00  0.00     0.145 A 
HETATM   18  N   UNL     1      39.086 -10.880   6.016  1.00  0.00    -0.271 NA
HETATM   19  C   UNL     1      38.592 -10.879   4.761  1.00  0.00     0.116 A 
HETATM   20  C   UNL     1      38.932 -11.821   3.806  1.00  0.00     0.021 A 
HETATM   21  C   UNL     1      39.829 -12.828   4.158  1.00  0.00     0.032 A 
ENDBRANCH  13  16
ENDBRANCH  10  12
BRANCH   9  22
HETATM   22  C   UNL     1      42.632 -16.755   3.670  1.00  0.00     0.064 A 
HETATM   23  N   UNL     1      41.463 -16.702   2.967  1.00  0.00    -0.263 NA
HETATM   24  C   UNL     1      41.540 -16.832   1.623  1.00  0.00     0.117 A 
HETATM   25  C   UNL     1      42.722 -17.023   0.930  1.00  0.00     0.019 A 
HETATM   26  C   UNL     1      43.905 -17.080   1.656  1.00  0.00     0.003 A 
HETATM   27  C   UNL     1      43.864 -16.942   3.040  1.00  0.00     0.030 A 
ENDBRANCH   9  22
TORSDOF 3
ENDMDL
MODEL 7
REMARK VINA RESULT:      -7.1      2.485      6.169
REMARK  3 active torsions:
REMARK  status: ('A' for Active; 'I' for Inactive)
REMARK    1  A    between atoms: C_9  and  C_10 
REMARK    2  A    between atoms: C_16  and  C_17 
REMARK       I    between atoms: C_17  and  N_18 
REMARK    3  A    between atoms: N_18  and  C_19 
ROOT
HETATM    1  C   UNL     1      43.853 -13.698   6.877  1.00  0.00     0.070 C 
HETATM    2  C   UNL     1      43.624 -15.078   6.316  1.00  0.00     0.037 A 
HETATM    3  N   UNL     1      44.560 -16.041   6.676  1.00  0.00    -0.192 N 
HETATM    4  C   UNL     1      44.402 -17.353   6.412  1.00  0.00     0.725 A 
HETATM    5  N   UNL     1      43.342 -17.764   5.649  1.00  0.00    -0.082 N 
HETATM    6  N   UNL     1      43.263 -19.115   5.612  1.00  0.00    -0.149 NA
HETATM    7  C   UNL     1      44.362 -19.444   6.301  1.00  0.00     0.275 A 
HETATM    8  N   UNL     1      45.083 -18.396   6.813  1.00  0.00    -0.054 NA
HETATM    9  C   UNL     1      42.344 -16.862   5.075  1.00  0.00     0.221 A 
HETATM   10  C   UNL     1      42.565 -15.431   5.548  1.00  0.00     0.064 A 
HETATM   11  H   UNL     1      45.307 -15.763   7.307  1.00  0.00     0.184 HD
ENDROOT
BRANCH  10  12
HETATM   12  C   UNL     1      41.488 -14.499   5.139  1.00  0.00     0.256 C 
HETATM   13  N   UNL     1      41.693 -13.940   3.900  1.00  0.00    -0.322 N 
HETATM   14  H   UNL     1      42.491 -14.280   3.375  1.00  0.00     0.169 HD
HETATM   15  O   UNL     1      40.527 -14.340   5.881  1.00  0.00    -0.267 OA
BRANCH  13  16
HETATM   16  C   UNL     1      40.883 -12.974   3.269  1.00  0.00     0.052 A 
HETATM   17  C   UNL     1      41.082 -11.597   3.331  1.00  0.00     0.145 A 
HETATM   18  N   UNL     1      40.298 -10.685   2.696  1.00  0.00    -0.271 NA
HETATM   19  C   UNL     1      39.272 -11.166   1.965  1.00  0.00     0.116 A 
HETATM   20  C   UNL     1      38.990 -12.514   1.838  1.00  0.00     0.021 A 
HETATM   21  C   UNL     1      39.805 -13.428   2.504  1.00  0.00     0.032 A 
ENDBRANCH  13  16
ENDBRANCH  10  12
BRANCH   9  22
HETATM   22  C   UNL     1      42.376 -16.987   3.555  1.00  0.00     0.064 A 
HETATM   23  N   UNL     1      41.191 -17.095   2.887  1.00  0.00    -0.263 NA
HETATM   24  C   UNL     1      41.243 -17.175   1.538  1.00  0.00     0.117 A 
HETATM   25  C   UNL     1      42.417 -17.165   0.807  1.00  0.00     0.019 A 
HETATM   26  C   UNL     1      43.618 -17.060   1.498  1.00  0.00     0.003 A 
HETATM   27  C   UNL     1      43.602 -16.967   2.886  1.00  0.00     0.030 A 
ENDBRANCH   9  22
TORSDOF 3
ENDMDL
MODEL 8
REMARK VINA RESULT:      -6.9      4.185      5.603
REMARK  3 active torsions:
REMARK  status: ('A' for Active; 'I' for Inactive)
REMARK    1  A    between atoms: C_9  and  C_10 
REMARK    2  A    between atoms: C_16  and  C_17 
REMARK       I    between atoms: C_17  and  N_18 
REMARK    3  A    between atoms: N_18  and  C_19 
ROOT
HETATM    1  C   UNL     1      41.427 -12.496   3.265  1.00  0.00     0.070 C 
HETATM    2  C   UNL     1      41.666 -12.391   1.781  1.00  0.00     0.037 A 
HETATM    3  N   UNL     1      41.859 -11.105   1.289  1.00  0.00    -0.192 N 
HETATM    4  C   UNL     1      42.263 -10.854   0.028  1.00  0.00     0.725 A 
HETATM    5  N   UNL     1      42.376 -11.889  -0.862  1.00  0.00    -0.082 N 
HETATM    6  N   UNL     1      42.929 -11.474  -2.025  1.00  0.00    -0.149 NA
HETATM    7  C   UNL     1      43.038 -10.162  -1.790  1.00  0.00     0.275 A 
HETATM    8  N   UNL     1      42.646  -9.742  -0.545  1.00  0.00    -0.054 NA
HETATM    9  C   UNL     1      42.075 -13.285  -0.541  1.00  0.00     0.221 A 
HETATM   10  C   UNL     1      41.752 -13.448   0.938  1.00  0.00     0.064 A 
HETATM   11  H   UNL     1      41.855 -10.338   1.955  1.00  0.00     0.184 HD
ENDROOT
BRANCH  10  12
HETATM   12  C   UNL     1      41.605 -14.861   1.359  1.00  0.00     0.256 C 
HETATM   13  N   UNL     1      42.766 -15.404   1.857  1.00  0.00    -0.322 N 
HETATM   14  H   UNL     1      43.554 -14.774   1.962  1.00  0.00     0.169 HD
HETATM   15  O   UNL     1      40.507 -15.396   1.275  1.00  0.00    -0.267 OA
BRANCH  13  16
HETATM   16  C   UNL     1      42.959 -16.736   2.277  1.00  0.00     0.052 A 
HETATM   17  C   UNL     1      42.643 -17.233   3.538  1.00  0.00     0.145 A 
HETATM   18  N   UNL     1      42.820 -18.528   3.913  1.00  0.00    -0.271 NA
HETATM   19  C   UNL     1      43.332 -19.367   2.989  1.00  0.00     0.116 A 
HETATM   20  C   UNL     1      43.679 -18.973   1.709  1.00  0.00     0.021 A 
HETATM   21  C   UNL     1      43.494 -17.638   1.353  1.00  0.00     0.032 A 
ENDBRANCH  13  16
ENDBRANCH  10  12
BRANCH   9  22
HETATM   22  C   UNL     1      40.945 -13.770  -1.444  1.00  0.00     0.064 A 
HETATM   23  N   UNL     1      41.195 -14.805  -2.298  1.00  0.00    -0.263 NA
HETATM   24  C   UNL     1      40.171 -15.236  -3.068  1.00  0.00     0.117 A 
HETATM   25  C   UNL     1      38.901 -14.688  -3.045  1.00  0.00     0.019 A 
HETATM   26  C   UNL     1      38.659 -13.632  -2.175  1.00  0.00     0.003 A 
HETATM   27  C   UNL     1      39.688 -13.167  -1.362  1.00  0.00     0.030 A 
ENDBRANCH   9  22
TORSDOF 3
ENDMDL
MODEL 9
REMARK VINA RESULT:      -6.8      3.234      5.347
REMARK  3 active torsions:
REMARK  status: ('A' for Active; 'I' for Inactive)
REMARK    1  A    between atoms: C_9  and  C_10 
REMARK    2  A    between atoms: C_16  and  C_17 
REMARK       I    between atoms: C_17  and  N_18 
REMARK    3  A    between atoms: N_18  and  C_19 
ROOT
HETATM    1  C   UNL     1      41.248 -15.705  -1.192  1.00  0.00     0.070 C 
HETATM    2  C   UNL     1      40.608 -14.844  -0.134  1.00  0.00     0.037 A 
HETATM    3  N   UNL     1      40.134 -13.609  -0.564  1.00  0.00    -0.192 N 
HETATM    4  C   UNL     1      39.379 -12.803   0.208  1.00  0.00     0.725 A 
HETATM    5  N   UNL     1      39.158 -13.138   1.517  1.00  0.00    -0.082 N 
HETATM    6  N   UNL     1      38.266 -12.297   2.091  1.00  0.00    -0.149 NA
HETATM    7  C   UNL     1      38.066 -11.432   1.091  1.00  0.00     0.275 A 
HETATM    8  N   UNL     1      38.723 -11.709  -0.080  1.00  0.00    -0.054 NA
HETATM    9  C   UNL     1      39.703 -14.333   2.163  1.00  0.00     0.221 A 
HETATM   10  C   UNL     1      40.429 -15.215   1.157  1.00  0.00     0.064 A 
HETATM   11  H   UNL     1      40.223 -13.386  -1.551  1.00  0.00     0.184 HD
ENDROOT
BRANCH  10  12
HETATM   12  C   UNL     1      40.855 -16.521   1.712  1.00  0.00     0.256 C 
HETATM   13  N   UNL     1      42.173 -16.543   2.101  1.00  0.00    -0.322 N 
HETATM   14  H   UNL     1      42.677 -15.664   2.050  1.00  0.00     0.169 HD
HETATM   15  O   UNL     1      40.030 -17.420   1.815  1.00  0.00    -0.267 OA
BRANCH  13  16
HETATM   16  C   UNL     1      42.883 -17.652   2.604  1.00  0.00     0.052 A 
HETATM   17  C   UNL     1      43.284 -18.754   1.854  1.00  0.00     0.145 A 
HETATM   18  N   UNL     1      43.986 -19.804   2.359  1.00  0.00    -0.271 NA
HETATM   19  C   UNL     1      44.306 -19.752   3.667  1.00  0.00     0.116 A 
HETATM   20  C   UNL     1      43.956 -18.703   4.498  1.00  0.00     0.021 A 
HETATM   21  C   UNL     1      43.231 -17.643   3.957  1.00  0.00     0.032 A 
ENDBRANCH  13  16
ENDBRANCH  10  12
BRANCH   9  22
HETATM   22  C   UNL     1      40.599 -13.907   3.322  1.00  0.00     0.064 A 
HETATM   23  N   UNL     1      41.796 -13.317   3.034  1.00  0.00    -0.263 NA
HETATM   24  C   UNL     1      42.560 -12.921   4.077  1.00  0.00     0.117 A 
HETATM   25  C   UNL     1      42.205 -13.089   5.404  1.00  0.00     0.019 A 
HETATM   26  C   UNL     1      40.987 -13.694   5.685  1.00  0.00     0.003 A 
HETATM   27  C   UNL     1      40.171 -14.107   4.636  1.00  0.00     0.030 A 
ENDBRANCH   9  22
TORSDOF 3
ENDMDL
MODEL 10
REMARK VINA RESULT:      -6.8      4.671      8.017
REMARK  3 active torsions:
REMARK  status: ('A' for Active; 'I' for Inactive)
REMARK    1  A    between atoms: C_9  and  C_10 
REMARK    2  A    between atoms: C_16  and  C_17 
REMARK       I    between atoms: C_17  and  N_18 
REMARK    3  A    between atoms: N_18  and  C_19 
ROOT
HETATM    1  C   UNL     1      42.131 -16.666   0.944  1.00  0.00     0.070 C 
HETATM    2  C   UNL     1      41.516 -15.706  -0.041  1.00  0.00     0.037 A 
HETATM    3  N   UNL     1      41.346 -16.190  -1.333  1.00  0.00    -0.192 N 
HETATM    4  C   UNL     1      40.650 -15.529  -2.280  1.00  0.00     0.725 A 
HETATM    5  N   UNL     1      40.183 -14.269  -2.016  1.00  0.00    -0.082 N 
HETATM    6  N   UNL     1      39.389 -13.825  -3.018  1.00  0.00    -0.149 NA
HETATM    7  C   UNL     1      39.500 -14.836  -3.886  1.00  0.00     0.275 A 
HETATM    8  N   UNL     1      40.257 -15.901  -3.471  1.00  0.00    -0.054 NA
HETATM    9  C   UNL     1      40.397 -13.561  -0.754  1.00  0.00     0.221 A 
HETATM   10  C   UNL     1      41.085 -14.458   0.266  1.00  0.00     0.064 A 
HETATM   11  H   UNL     1      41.618 -17.151  -1.518  1.00  0.00     0.184 HD
ENDROOT
BRANCH  10  12
HETATM   12  C   UNL     1      41.176 -13.857   1.618  1.00  0.00     0.256 C 
HETATM   13  N   UNL     1      40.013 -13.967   2.342  1.00  0.00    -0.322 N 
HETATM   14  H   UNL     1      39.265 -14.509   1.921  1.00  0.00     0.169 HD
HETATM   15  O   UNL     1      42.239 -13.371   1.981  1.00  0.00    -0.267 OA
BRANCH  13  16
HETATM   16  C   UNL     1      39.769 -13.441   3.626  1.00  0.00     0.052 A 
HETATM   17  C   UNL     1      39.097 -12.251   3.891  1.00  0.00     0.145 A 
HETATM   18  N   UNL     1      38.856 -11.773   5.141  1.00  0.00    -0.271 NA
HETATM   19  C   UNL     1      39.303 -12.515   6.175  1.00  0.00     0.116 A 
HETATM   20  C   UNL     1      39.981 -13.711   6.019  1.00  0.00     0.021 A 
HETATM   21  C   UNL     1      40.220 -14.175   4.727  1.00  0.00     0.032 A 
ENDBRANCH  13  16
ENDBRANCH  10  12
BRANCH   9  22
HETATM   22  C   UNL     1      41.179 -12.281  -1.029  1.00  0.00     0.064 A 
HETATM   23  N   UNL     1      40.570 -11.083  -0.784  1.00  0.00    -0.263 NA
HETATM   24  C   UNL     1      41.293  -9.962  -1.007  1.00  0.00     0.117 A 
HETATM   25  C   UNL     1      42.596  -9.961  -1.473  1.00  0.00     0.019 A 
HETATM   26  C   UNL     1      43.204 -11.185  -1.723  1.00  0.00     0.003 A 
HETATM   27  C   UNL     1      42.492 -12.359  -1.496  1.00  0.00     0.030 A 
ENDBRANCH   9  22
TORSDOF 3
ENDMDL
