MODEL 1
REMARK VINA RESULT:      -7.9      0.000      0.000
REMARK  6 active torsions:
REMARK  status: ('A' for Active; 'I' for Inactive)
REMARK    1  A    between atoms: C_3  and  C_4 
REMARK    2  A    between atoms: C_4  and  C_5 
REMARK    3  A    between atoms: C_5  and  C_6 
REMARK    4  A    between atoms: C_6  and  C_7 
REMARK       I    between atoms: C_7  and  N_8 
REMARK    5  A    between atoms: N_8  and  C_9 
REMARK    6  A    between atoms: C_11  and  C_12 
ROOT
HETATM    1  C   UNL     1      41.465 -16.778   4.213  1.00  0.00     0.222 C 
HETATM    2  N   UNL     1      40.781 -16.948   3.022  1.00  0.00    -0.327 N 
HETATM    3  O   UNL     1      41.882 -15.720   4.672  1.00  0.00    -0.273 OA
HETATM    4  H   UNL     1      40.504 -17.891   2.782  1.00  0.00     0.169 HD
ENDROOT
BRANCH   2   5
HETATM    5  C   UNL     1      40.405 -15.950   2.097  1.00  0.00     0.035 A 
HETATM    6  C   UNL     1      40.920 -15.849   0.800  1.00  0.00     0.042 A 
HETATM    7  C   UNL     1      40.497 -14.834  -0.077  1.00  0.00    -0.021 A 
HETATM    8  C   UNL     1      39.551 -13.906   0.377  1.00  0.00     0.012 A 
HETATM    9  C   UNL     1      39.036 -13.993   1.671  1.00  0.00     0.003 A 
HETATM   10  C   UNL     1      39.459 -15.012   2.524  1.00  0.00     0.029 A 
BRANCH   7  11
HETATM   11  C   UNL     1      41.025 -14.736  -1.432  1.00  0.00     0.010 A 
HETATM   12  C   UNL     1      40.886 -15.601  -2.547  1.00  0.00     0.152 A 
HETATM   13  N   UNL     1      41.541 -15.168  -3.628  1.00  0.00    -0.187 NA
HETATM   14  N   UNL     1      42.102 -14.022  -3.214  1.00  0.00    -0.289 N 
HETATM   15  H   UNL     1      42.665 -13.494  -3.873  1.00  0.00     0.188 HD
HETATM   16  C   UNL     1      41.829 -13.723  -1.911  1.00  0.00     0.123 A 
ENDBRANCH   7  11
ENDBRANCH   2   5
BRANCH   1  17
HETATM   17  C   UNL     1      41.672 -18.085   4.964  1.00  0.00     0.103 C 
BRANCH  17  18
HETATM   18  C   UNL     1      43.059 -18.146   5.601  1.00  0.00     0.014 C 
BRANCH  18  19
HETATM   19  C   UNL     1      44.170 -18.151   4.544  1.00  0.00     0.047 C 
BRANCH  19  20
HETATM   20  C   UNL     1      44.213 -19.452   3.793  1.00  0.00    -0.012 A 
HETATM   21  C   UNL     1      43.893 -19.688   2.464  1.00  0.00    -0.049 A 
HETATM   22  C   UNL     1      43.429 -18.655   1.488  1.00  0.00     0.049 C 
HETATM   23  C   UNL     1      44.076 -21.071   2.131  1.00  0.00     0.015 A 
HETATM   24  C   UNL     1      44.515 -21.822   3.197  1.00  0.00     0.051 A 
HETATM   25  S   UNL     1      44.717 -20.877   4.602  1.00  0.00    -0.106 SA
ENDBRANCH  19  20
ENDBRANCH  18  19
ENDBRANCH  17  18
ENDBRANCH   1  17
TORSDOF 6
ENDMDL
MODEL 2
REMARK VINA RESULT:      -7.7      3.451      6.860
REMARK  6 active torsions:
REMARK  status: ('A' for Active; 'I' for Inactive)
REMARK    1  A    between atoms: C_3  and  C_4 
REMARK    2  A    between atoms: C_4  and  C_5 
REMARK    3  A    between atoms: C_5  and  C_6 
REMARK    4  A    between atoms: C_6  and  C_7 
REMARK       I    between atoms: C_7  and  N_8 
REMARK    5  A    between atoms: N_8  and  C_9 
REMARK    6  A    between atoms: C_11  and  C_12 
ROOT
HETATM    1  C   UNL     1      41.062 -16.037   5.578  1.00  0.00     0.222 C 
HETATM    2  N   UNL     1      42.240 -16.221   4.876  1.00  0.00    -0.327 N 
HETATM    3  O   UNL     1      40.603 -16.777   6.441  1.00  0.00    -0.273 OA
HETATM    4  H   UNL     1      42.482 -15.516   4.190  1.00  0.00     0.169 HD
ENDROOT
BRANCH   2   5
HETATM    5  C   UNL     1      43.166 -17.279   5.011  1.00  0.00     0.035 A 
HETATM    6  C   UNL     1      43.219 -18.388   4.160  1.00  0.00     0.042 A 
HETATM    7  C   UNL     1      44.172 -19.406   4.346  1.00  0.00    -0.021 A 
HETATM    8  C   UNL     1      45.070 -19.297   5.415  1.00  0.00     0.012 A 
HETATM    9  C   UNL     1      45.022 -18.198   6.273  1.00  0.00     0.003 A 
HETATM   10  C   UNL     1      44.077 -17.193   6.069  1.00  0.00     0.029 A 
BRANCH   7  11
HETATM   11  C   UNL     1      44.235 -20.555   3.453  1.00  0.00     0.010 A 
HETATM   12  C   UNL     1      44.648 -21.891   3.685  1.00  0.00     0.152 A 
HETATM   13  N   UNL     1      44.573 -22.659   2.594  1.00  0.00    -0.187 NA
HETATM   14  N   UNL     1      44.110 -21.821   1.655  1.00  0.00    -0.289 N 
HETATM   15  H   UNL     1      43.965 -22.178   0.717  1.00  0.00     0.188 HD
HETATM   16  C   UNL     1      43.896 -20.554   2.115  1.00  0.00     0.123 A 
ENDBRANCH   7  11
ENDBRANCH   2   5
BRANCH   1  17
HETATM   17  C   UNL     1      40.332 -14.764   5.178  1.00  0.00     0.103 C 
BRANCH  17  18
HETATM   18  C   UNL     1      40.655 -14.367   3.738  1.00  0.00     0.014 C 
BRANCH  18  19
HETATM   19  C   UNL     1      39.703 -15.034   2.739  1.00  0.00     0.047 C 
BRANCH  19  20
HETATM   20  C   UNL     1      40.302 -15.095   1.361  1.00  0.00    -0.012 A 
HETATM   21  C   UNL     1      40.934 -16.165   0.745  1.00  0.00    -0.049 A 
HETATM   22  C   UNL     1      41.147 -17.513   1.356  1.00  0.00     0.049 C 
HETATM   23  C   UNL     1      41.357 -15.816  -0.580  1.00  0.00     0.015 A 
HETATM   24  C   UNL     1      41.043 -14.520  -0.915  1.00  0.00     0.051 A 
HETATM   25  S   UNL     1      40.233 -13.713   0.350  1.00  0.00    -0.106 SA
ENDBRANCH  19  20
ENDBRANCH  18  19
ENDBRANCH  17  18
ENDBRANCH   1  17
TORSDOF 6
ENDMDL
MODEL 3
REMARK VINA RESULT:      -7.5      1.871      2.687
REMARK  6 active torsions:
REMARK  status: ('A' for Active; 'I' for Inactive)
REMARK    1  A    between atoms: C_3  and  C_4 
REMARK    2  A    between atoms: C_4  and  C_5 
REMARK    3  A    between atoms: C_5  and  C_6 
REMARK    4  A    between atoms: C_6  and  C_7 
REMARK       I    between atoms: C_7  and  N_8 
REMARK    5  A    between atoms: N_8  and  C_9 
REMARK    6  A    between atoms: C_11  and  C_12 
ROOT
HETATM    1  C   UNL     1      43.357 -17.152   6.508  1.00  0.00     0.222 C 
HETATM    2  N   UNL     1      42.106 -17.281   5.930  1.00  0.00    -0.327 N 
HETATM    3  O   UNL     1      44.136 -16.217   6.361  1.00  0.00    -0.273 OA
HETATM    4  H   UNL     1      41.582 -18.118   6.151  1.00  0.00     0.169 HD
ENDROOT
BRANCH   2   5
HETATM    5  C   UNL     1      41.457 -16.367   5.070  1.00  0.00     0.035 A 
HETATM    6  C   UNL     1      41.600 -16.363   3.679  1.00  0.00     0.042 A 
HETATM    7  C   UNL     1      40.919 -15.429   2.877  1.00  0.00    -0.021 A 
HETATM    8  C   UNL     1      40.096 -14.484   3.501  1.00  0.00     0.012 A 
HETATM    9  C   UNL     1      39.951 -14.475   4.889  1.00  0.00     0.003 A 
HETATM   10  C   UNL     1      40.625 -15.414   5.668  1.00  0.00     0.029 A 
BRANCH   7  11
HETATM   11  C   UNL     1      41.059 -15.433   1.427  1.00  0.00     0.010 A 
HETATM   12  C   UNL     1      41.000 -14.375   0.486  1.00  0.00     0.152 A 
HETATM   13  N   UNL     1      41.165 -14.787  -0.775  1.00  0.00    -0.187 NA
HETATM   14  N   UNL     1      41.332 -16.112  -0.650  1.00  0.00    -0.289 N 
HETATM   15  H   UNL     1      41.478 -16.662  -1.489  1.00  0.00     0.188 HD
HETATM   16  C   UNL     1      41.273 -16.548   0.642  1.00  0.00     0.123 A 
ENDBRANCH   7  11
ENDBRANCH   2   5
BRANCH   1  17
HETATM   17  C   UNL     1      43.716 -18.330   7.400  1.00  0.00     0.103 C 
BRANCH  17  18
HETATM   18  C   UNL     1      43.903 -19.608   6.585  1.00  0.00     0.014 C 
BRANCH  18  19
HETATM   19  C   UNL     1      44.860 -19.395   5.407  1.00  0.00     0.047 C 
BRANCH  19  20
HETATM   20  C   UNL     1      44.676 -20.445   4.347  1.00  0.00    -0.012 A 
HETATM   21  C   UNL     1      44.304 -20.274   3.022  1.00  0.00    -0.049 A 
HETATM   22  C   UNL     1      44.006 -18.962   2.369  1.00  0.00     0.049 C 
HETATM   23  C   UNL     1      44.251 -21.533   2.339  1.00  0.00     0.015 A 
HETATM   24  C   UNL     1      44.572 -22.595   3.152  1.00  0.00     0.051 A 
HETATM   25  S   UNL     1      44.947 -22.092   4.737  1.00  0.00    -0.106 SA
ENDBRANCH  19  20
ENDBRANCH  18  19
ENDBRANCH  17  18
ENDBRANCH   1  17
TORSDOF 6
ENDMDL
MODEL 4
REMARK VINA RESULT:      -7.4      3.126      7.534
REMARK  6 active torsions:
REMARK  status: ('A' for Active; 'I' for Inactive)
REMARK    1  A    between atoms: C_3  and  C_4 
REMARK    2  A    between atoms: C_4  and  C_5 
REMARK    3  A    between atoms: C_5  and  C_6 
REMARK    4  A    between atoms: C_6  and  C_7 
REMARK       I    between atoms: C_7  and  N_8 
REMARK    5  A    between atoms: N_8  and  C_9 
REMARK    6  A    between atoms: C_11  and  C_12 
ROOT
HETATM    1  C   UNL     1      41.605 -16.959   0.993  1.00  0.00     0.222 C 
HETATM    2  N   UNL     1      42.911 -17.165   1.402  1.00  0.00    -0.327 N 
HETATM    3  O   UNL     1      40.600 -17.471   1.473  1.00  0.00    -0.273 OA
HETATM    4  H   UNL     1      43.635 -16.666   0.900  1.00  0.00     0.169 HD
ENDROOT
BRANCH   2   5
HETATM    5  C   UNL     1      43.362 -17.988   2.458  1.00  0.00     0.035 A 
HETATM    6  C   UNL     1      43.271 -17.646   3.811  1.00  0.00     0.042 A 
HETATM    7  C   UNL     1      43.733 -18.515   4.817  1.00  0.00    -0.021 A 
HETATM    8  C   UNL     1      44.303 -19.737   4.438  1.00  0.00     0.012 A 
HETATM    9  C   UNL     1      44.404 -20.085   3.090  1.00  0.00     0.003 A 
HETATM   10  C   UNL     1      43.932 -19.216   2.107  1.00  0.00     0.029 A 
BRANCH   7  11
HETATM   11  C   UNL     1      43.627 -18.164   6.227  1.00  0.00     0.010 A 
HETATM   12  C   UNL     1      43.190 -16.971   6.857  1.00  0.00     0.152 A 
HETATM   13  N   UNL     1      43.255 -17.031   8.191  1.00  0.00    -0.187 NA
HETATM   14  N   UNL     1      43.731 -18.263   8.424  1.00  0.00    -0.289 N 
HETATM   15  H   UNL     1      43.871 -18.552   9.386  1.00  0.00     0.188 HD
HETATM   16  C   UNL     1      43.974 -18.976   7.287  1.00  0.00     0.123 A 
ENDBRANCH   7  11
ENDBRANCH   2   5
BRANCH   1  17
HETATM   17  C   UNL     1      41.500 -15.982  -0.168  1.00  0.00     0.103 C 
BRANCH  17  18
HETATM   18  C   UNL     1      40.764 -14.708   0.241  1.00  0.00     0.014 C 
BRANCH  18  19
HETATM   19  C   UNL     1      41.629 -13.817   1.139  1.00  0.00     0.047 C 
BRANCH  19  20
HETATM   20  C   UNL     1      41.318 -14.029   2.594  1.00  0.00    -0.012 A 
HETATM   21  C   UNL     1      42.202 -14.102   3.661  1.00  0.00    -0.049 A 
HETATM   22  C   UNL     1      43.688 -13.976   3.563  1.00  0.00     0.049 C 
HETATM   23  C   UNL     1      41.500 -14.304   4.894  1.00  0.00     0.015 A 
HETATM   24  C   UNL     1      40.137 -14.382   4.726  1.00  0.00     0.051 A 
HETATM   25  S   UNL     1      39.687 -14.206   3.091  1.00  0.00    -0.106 SA
ENDBRANCH  19  20
ENDBRANCH  18  19
ENDBRANCH  17  18
ENDBRANCH   1  17
TORSDOF 6
ENDMDL
MODEL 5
REMARK VINA RESULT:      -7.2      3.306      7.347
REMARK  6 active torsions:
REMARK  status: ('A' for Active; 'I' for Inactive)
REMARK    1  A    between atoms: C_3  and  C_4 
REMARK    2  A    between atoms: C_4  and  C_5 
REMARK    3  A    between atoms: C_5  and  C_6 
REMARK    4  A    between atoms: C_6  and  C_7 
REMARK       I    between atoms: C_7  and  N_8 
REMARK    5  A    between atoms: N_8  and  C_9 
REMARK    6  A    between atoms: C_11  and  C_12 
ROOT
HETATM    1  C   UNL     1      42.523 -15.143   3.362  1.00  0.00     0.222 C 
HETATM    2  N   UNL     1      42.341 -16.114   4.332  1.00  0.00    -0.327 N 
HETATM    3  O   UNL     1      43.450 -15.074   2.563  1.00  0.00    -0.273 OA
HETATM    4  H   UNL     1      41.520 -16.030   4.918  1.00  0.00     0.169 HD
ENDROOT
BRANCH   2   5
HETATM    5  C   UNL     1      43.166 -17.229   4.597  1.00  0.00     0.035 A 
HETATM    6  C   UNL     1      43.245 -18.358   3.776  1.00  0.00     0.042 A 
HETATM    7  C   UNL     1      44.094 -19.435   4.094  1.00  0.00    -0.021 A 
HETATM    8  C   UNL     1      44.857 -19.364   5.266  1.00  0.00     0.012 A 
HETATM    9  C   UNL     1      44.781 -18.244   6.095  1.00  0.00     0.003 A 
HETATM   10  C   UNL     1      43.942 -17.182   5.760  1.00  0.00     0.029 A 
BRANCH   7  11
HETATM   11  C   UNL     1      44.185 -20.606   3.232  1.00  0.00     0.010 A 
HETATM   12  C   UNL     1      44.684 -21.908   3.484  1.00  0.00     0.152 A 
HETATM   13  N   UNL     1      44.608 -22.713   2.419  1.00  0.00    -0.187 NA
HETATM   14  N   UNL     1      44.058 -21.932   1.478  1.00  0.00    -0.289 N 
HETATM   15  H   UNL     1      43.894 -22.326   0.558  1.00  0.00     0.188 HD
HETATM   16  C   UNL     1      43.791 -20.665   1.910  1.00  0.00     0.123 A 
ENDBRANCH   7  11
ENDBRANCH   2   5
BRANCH   1  17
HETATM   17  C   UNL     1      41.413 -14.103   3.356  1.00  0.00     0.103 C 
BRANCH  17  18
HETATM   18  C   UNL     1      40.044 -14.753   3.160  1.00  0.00     0.014 C 
BRANCH  18  19
HETATM   19  C   UNL     1      39.979 -15.559   1.858  1.00  0.00     0.047 C 
BRANCH  19  20
HETATM   20  C   UNL     1      39.869 -14.662   0.657  1.00  0.00    -0.012 A 
HETATM   21  C   UNL     1      38.748 -14.000   0.179  1.00  0.00    -0.049 A 
HETATM   22  C   UNL     1      37.385 -14.051   0.791  1.00  0.00     0.049 C 
HETATM   23  C   UNL     1      39.066 -13.235  -0.992  1.00  0.00     0.015 A 
HETATM   24  C   UNL     1      40.388 -13.345  -1.357  1.00  0.00     0.051 A 
HETATM   25  S   UNL     1      41.259 -14.359  -0.299  1.00  0.00    -0.106 SA
ENDBRANCH  19  20
ENDBRANCH  18  19
ENDBRANCH  17  18
ENDBRANCH   1  17
TORSDOF 6
ENDMDL
MODEL 6
REMARK VINA RESULT:      -7.1      3.159      6.570
REMARK  6 active torsions:
REMARK  status: ('A' for Active; 'I' for Inactive)
REMARK    1  A    between atoms: C_3  and  C_4 
REMARK    2  A    between atoms: C_4  and  C_5 
REMARK    3  A    between atoms: C_5  and  C_6 
REMARK    4  A    between atoms: C_6  and  C_7 
REMARK       I    between atoms: C_7  and  N_8 
REMARK    5  A    between atoms: N_8  and  C_9 
REMARK    6  A    between atoms: C_11  and  C_12 
ROOT
HETATM    1  C   UNL     1      42.677 -13.869   3.674  1.00  0.00     0.222 C 
HETATM    2  N   UNL     1      42.319 -14.870   4.560  1.00  0.00    -0.327 N 
HETATM    3  O   UNL     1      43.755 -13.753   3.100  1.00  0.00    -0.273 OA
HETATM    4  H   UNL     1      41.386 -14.825   4.952  1.00  0.00     0.169 HD
ENDROOT
BRANCH   2   5
HETATM    5  C   UNL     1      43.101 -15.969   4.978  1.00  0.00     0.035 A 
HETATM    6  C   UNL     1      43.250 -17.150   4.244  1.00  0.00     0.042 A 
HETATM    7  C   UNL     1      44.051 -18.207   4.714  1.00  0.00    -0.021 A 
HETATM    8  C   UNL     1      44.695 -18.062   5.949  1.00  0.00     0.012 A 
HETATM    9  C   UNL     1      44.549 -16.890   6.693  1.00  0.00     0.003 A 
HETATM   10  C   UNL     1      43.759 -15.849   6.207  1.00  0.00     0.029 A 
BRANCH   7  11
HETATM   11  C   UNL     1      44.214 -19.433   3.944  1.00  0.00     0.010 A 
HETATM   12  C   UNL     1      43.880 -19.737   2.600  1.00  0.00     0.152 A 
HETATM   13  N   UNL     1      44.178 -20.994   2.259  1.00  0.00    -0.187 NA
HETATM   14  N   UNL     1      44.707 -21.504   3.381  1.00  0.00    -0.289 N 
HETATM   15  H   UNL     1      45.018 -22.469   3.374  1.00  0.00     0.188 HD
HETATM   16  C   UNL     1      44.747 -20.615   4.416  1.00  0.00     0.123 A 
ENDBRANCH   7  11
ENDBRANCH   2   5
BRANCH   1  17
HETATM   17  C   UNL     1      41.562 -12.861   3.444  1.00  0.00     0.103 C 
BRANCH  17  18
HETATM   18  C   UNL     1      40.194 -13.540   3.423  1.00  0.00     0.014 C 
BRANCH  18  19
HETATM   19  C   UNL     1      39.731 -13.839   1.993  1.00  0.00     0.047 C 
BRANCH  19  20
HETATM   20  C   UNL     1      40.393 -15.072   1.443  1.00  0.00    -0.012 A 
HETATM   21  C   UNL     1      41.267 -15.172   0.370  1.00  0.00    -0.049 A 
HETATM   22  C   UNL     1      41.735 -14.031  -0.475  1.00  0.00     0.049 C 
HETATM   23  C   UNL     1      41.682 -16.530   0.174  1.00  0.00     0.015 A 
HETATM   24  C   UNL     1      41.119 -17.397   1.082  1.00  0.00     0.051 A 
HETATM   25  S   UNL     1      40.094 -16.590   2.180  1.00  0.00    -0.106 SA
ENDBRANCH  19  20
ENDBRANCH  18  19
ENDBRANCH  17  18
ENDBRANCH   1  17
TORSDOF 6
ENDMDL
MODEL 7
REMARK VINA RESULT:      -7.0      3.316      7.128
REMARK  6 active torsions:
REMARK  status: ('A' for Active; 'I' for Inactive)
REMARK    1  A    between atoms: C_3  and  C_4 
REMARK    2  A    between atoms: C_4  and  C_5 
REMARK    3  A    between atoms: C_5  and  C_6 
REMARK    4  A    between atoms: C_6  and  C_7 
REMARK       I    between atoms: C_7  and  N_8 
REMARK    5  A    between atoms: N_8  and  C_9 
REMARK    6  A    between atoms: C_11  and  C_12 
ROOT
HETATM    1  C   UNL     1      41.159 -16.465   5.096  1.00  0.00     0.222 C 
HETATM    2  N   UNL     1      42.024 -16.286   4.031  1.00  0.00    -0.327 N 
HETATM    3  O   UNL     1      40.839 -17.534   5.605  1.00  0.00    -0.273 OA
HETATM    4  H   UNL     1      42.186 -15.334   3.726  1.00  0.00     0.169 HD
ENDROOT
BRANCH   2   5
HETATM    5  C   UNL     1      42.729 -17.281   3.318  1.00  0.00     0.035 A 
HETATM    6  C   UNL     1      43.173 -18.482   3.881  1.00  0.00     0.042 A 
HETATM    7  C   UNL     1      43.864 -19.436   3.112  1.00  0.00    -0.021 A 
HETATM    8  C   UNL     1      44.115 -19.158   1.763  1.00  0.00     0.012 A 
HETATM    9  C   UNL     1      43.681 -17.960   1.193  1.00  0.00     0.003 A 
HETATM   10  C   UNL     1      42.989 -17.029   1.967  1.00  0.00     0.029 A 
BRANCH   7  11
HETATM   11  C   UNL     1      44.317 -20.692   3.696  1.00  0.00     0.010 A 
HETATM   12  C   UNL     1      44.868 -20.979   4.970  1.00  0.00     0.152 A 
HETATM   13  N   UNL     1      45.176 -22.270   5.127  1.00  0.00    -0.187 NA
HETATM   14  N   UNL     1      44.823 -22.820   3.956  1.00  0.00    -0.289 N 
HETATM   15  H   UNL     1      44.963 -23.816   3.828  1.00  0.00     0.188 HD
HETATM   16  C   UNL     1      44.310 -21.921   3.067  1.00  0.00     0.123 A 
ENDBRANCH   7  11
ENDBRANCH   2   5
BRANCH   1  17
HETATM   17  C   UNL     1      40.602 -15.154   5.629  1.00  0.00     0.103 C 
BRANCH  17  18
HETATM   18  C   UNL     1      41.270 -13.954   4.960  1.00  0.00     0.014 C 
BRANCH  18  19
HETATM   19  C   UNL     1      40.305 -13.217   4.024  1.00  0.00     0.047 C 
BRANCH  19  20
HETATM   20  C   UNL     1      40.669 -13.424   2.580  1.00  0.00    -0.012 A 
HETATM   21  C   UNL     1      40.109 -14.311   1.671  1.00  0.00    -0.049 A 
HETATM   22  C   UNL     1      38.995 -15.263   1.965  1.00  0.00     0.049 C 
HETATM   23  C   UNL     1      40.735 -14.191   0.387  1.00  0.00     0.015 A 
HETATM   24  C   UNL     1      41.731 -13.242   0.366  1.00  0.00     0.051 A 
HETATM   25  S   UNL     1      41.919 -12.482   1.881  1.00  0.00    -0.106 SA
ENDBRANCH  19  20
ENDBRANCH  18  19
ENDBRANCH  17  18
ENDBRANCH   1  17
TORSDOF 6
ENDMDL
MODEL 8
REMARK VINA RESULT:      -7.0      2.540      5.024
REMARK  6 active torsions:
REMARK  status: ('A' for Active; 'I' for Inactive)
REMARK    1  A    between atoms: C_3  and  C_4 
REMARK    2  A    between atoms: C_4  and  C_5 
REMARK    3  A    between atoms: C_5  and  C_6 
REMARK    4  A    between atoms: C_6  and  C_7 
REMARK       I    between atoms: C_7  and  N_8 
REMARK    5  A    between atoms: N_8  and  C_9 
REMARK    6  A    between atoms: C_11  and  C_12 
ROOT
HETATM    1  C   UNL     1      43.154 -17.186   1.673  1.00  0.00     0.222 C 
HETATM    2  N   UNL     1      41.785 -17.016   1.569  1.00  0.00    -0.327 N 
HETATM    3  O   UNL     1      43.971 -16.341   2.022  1.00  0.00    -0.273 OA
HETATM    4  H   UNL     1      41.244 -17.816   1.264  1.00  0.00     0.169 HD
ENDROOT
BRANCH   2   5
HETATM    5  C   UNL     1      41.039 -15.851   1.853  1.00  0.00     0.035 A 
HETATM    6  C   UNL     1      40.787 -15.377   3.145  1.00  0.00     0.042 A 
HETATM    7  C   UNL     1      40.042 -14.204   3.360  1.00  0.00    -0.021 A 
HETATM    8  C   UNL     1      39.538 -13.516   2.249  1.00  0.00     0.012 A 
HETATM    9  C   UNL     1      39.778 -13.983   0.956  1.00  0.00     0.003 A 
HETATM   10  C   UNL     1      40.528 -15.142   0.760  1.00  0.00     0.029 A 
BRANCH   7  11
HETATM   11  C   UNL     1      39.790 -13.704   4.705  1.00  0.00     0.010 A 
HETATM   12  C   UNL     1      39.147 -12.522   5.152  1.00  0.00     0.152 A 
HETATM   13  N   UNL     1      39.125 -12.411   6.484  1.00  0.00    -0.187 NA
HETATM   14  N   UNL     1      39.752 -13.521   6.899  1.00  0.00    -0.289 N 
HETATM   15  H   UNL     1      39.863 -13.668   7.897  1.00  0.00     0.188 HD
HETATM   16  C   UNL     1      40.172 -14.323   5.878  1.00  0.00     0.123 A 
ENDBRANCH   7  11
ENDBRANCH   2   5
BRANCH   1  17
HETATM   17  C   UNL     1      43.602 -18.592   1.304  1.00  0.00     0.103 C 
BRANCH  17  18
HETATM   18  C   UNL     1      43.354 -19.573   2.449  1.00  0.00     0.014 C 
BRANCH  18  19
HETATM   19  C   UNL     1      44.612 -19.780   3.301  1.00  0.00     0.047 C 
BRANCH  19  20
HETATM   20  C   UNL     1      44.282 -19.865   4.764  1.00  0.00    -0.012 A 
HETATM   21  C   UNL     1      44.376 -20.966   5.604  1.00  0.00    -0.049 A 
HETATM   22  C   UNL     1      44.845 -22.326   5.199  1.00  0.00     0.049 C 
HETATM   23  C   UNL     1      43.973 -20.628   6.938  1.00  0.00     0.015 A 
HETATM   24  C   UNL     1      43.589 -19.313   7.061  1.00  0.00     0.051 A 
HETATM   25  S   UNL     1      43.715 -18.471   5.584  1.00  0.00    -0.106 SA
ENDBRANCH  19  20
ENDBRANCH  18  19
ENDBRANCH  17  18
ENDBRANCH   1  17
TORSDOF 6
ENDMDL
MODEL 9
REMARK VINA RESULT:      -6.8      2.463      3.292
REMARK  6 active torsions:
REMARK  status: ('A' for Active; 'I' for Inactive)
REMARK    1  A    between atoms: C_3  and  C_4 
REMARK    2  A    between atoms: C_4  and  C_5 
REMARK    3  A    between atoms: C_5  and  C_6 
REMARK    4  A    between atoms: C_6  and  C_7 
REMARK       I    between atoms: C_7  and  N_8 
REMARK    5  A    between atoms: N_8  and  C_9 
REMARK    6  A    between atoms: C_11  and  C_12 
ROOT
HETATM    1  C   UNL     1      43.047 -16.095   4.357  1.00  0.00     0.222 C 
HETATM    2  N   UNL     1      42.214 -16.745   3.464  1.00  0.00    -0.327 N 
HETATM    3  O   UNL     1      43.429 -14.932   4.286  1.00  0.00    -0.273 OA
HETATM    4  H   UNL     1      41.991 -17.712   3.663  1.00  0.00     0.169 HD
ENDROOT
BRANCH   2   5
HETATM    5  C   UNL     1      41.617 -16.212   2.300  1.00  0.00     0.035 A 
HETATM    6  C   UNL     1      40.562 -15.294   2.310  1.00  0.00     0.042 A 
HETATM    7  C   UNL     1      40.017 -14.795   1.113  1.00  0.00    -0.021 A 
HETATM    8  C   UNL     1      40.543 -15.246  -0.104  1.00  0.00     0.012 A 
HETATM    9  C   UNL     1      41.592 -16.166  -0.125  1.00  0.00     0.003 A 
HETATM   10  C   UNL     1      42.127 -16.643   1.070  1.00  0.00     0.029 A 
BRANCH   7  11
HETATM   11  C   UNL     1      38.925 -13.830   1.125  1.00  0.00     0.010 A 
HETATM   12  C   UNL     1      37.678 -13.830   0.451  1.00  0.00     0.152 A 
HETATM   13  N   UNL     1      36.943 -12.744   0.711  1.00  0.00    -0.187 NA
HETATM   14  N   UNL     1      37.714 -12.041   1.554  1.00  0.00    -0.289 N 
HETATM   15  H   UNL     1      37.365 -11.155   1.902  1.00  0.00     0.188 HD
HETATM   16  C   UNL     1      38.908 -12.643   1.829  1.00  0.00     0.123 A 
ENDBRANCH   7  11
ENDBRANCH   2   5
BRANCH   1  17
HETATM   17  C   UNL     1      43.480 -16.985   5.512  1.00  0.00     0.103 C 
BRANCH  17  18
HETATM   18  C   UNL     1      43.246 -18.461   5.194  1.00  0.00     0.014 C 
BRANCH  18  19
HETATM   19  C   UNL     1      44.566 -19.210   4.975  1.00  0.00     0.047 C 
BRANCH  19  20
HETATM   20  C   UNL     1      44.436 -20.259   3.906  1.00  0.00    -0.012 A 
HETATM   21  C   UNL     1      44.669 -21.622   4.007  1.00  0.00    -0.049 A 
HETATM   22  C   UNL     1      45.107 -22.336   5.246  1.00  0.00     0.049 C 
HETATM   23  C   UNL     1      44.422 -22.278   2.757  1.00  0.00     0.015 A 
HETATM   24  C   UNL     1      44.024 -21.408   1.769  1.00  0.00     0.051 A 
HETATM   25  S   UNL     1      43.936 -19.801   2.332  1.00  0.00    -0.106 SA
ENDBRANCH  19  20
ENDBRANCH  18  19
ENDBRANCH  17  18
ENDBRANCH   1  17
TORSDOF 6
ENDMDL
MODEL 10
REMARK VINA RESULT:      -6.7      3.202      4.079
REMARK  6 active torsions:
REMARK  status: ('A' for Active; 'I' for Inactive)
REMARK    1  A    between atoms: C_3  and  C_4 
REMARK    2  A    between atoms: C_4  and  C_5 
REMARK    3  A    between atoms: C_5  and  C_6 
REMARK    4  A    between atoms: C_6  and  C_7 
REMARK       I    between atoms: C_7  and  N_8 
REMARK    5  A    between atoms: N_8  and  C_9 
REMARK    6  A    between atoms: C_11  and  C_12 
ROOT
HETATM    1  C   UNL     1      42.205 -16.855   6.014  1.00  0.00     0.222 C 
HETATM    2  N   UNL     1      42.366 -16.410   4.713  1.00  0.00    -0.327 N 
HETATM    3  O   UNL     1      41.156 -16.895   6.647  1.00  0.00    -0.273 OA
HETATM    4  H   UNL     1      43.302 -16.441   4.329  1.00  0.00     0.169 HD
ENDROOT
BRANCH   2   5
HETATM    5  C   UNL     1      41.367 -15.926   3.840  1.00  0.00     0.035 A 
HETATM    6  C   UNL     1      40.741 -14.683   3.977  1.00  0.00     0.042 A 
HETATM    7  C   UNL     1      39.757 -14.257   3.067  1.00  0.00    -0.021 A 
HETATM    8  C   UNL     1      39.400 -15.110   2.015  1.00  0.00     0.012 A 
HETATM    9  C   UNL     1      40.014 -16.355   1.873  1.00  0.00     0.003 A 
HETATM   10  C   UNL     1      40.995 -16.758   2.778  1.00  0.00     0.029 A 
BRANCH   7  11
HETATM   11  C   UNL     1      39.113 -12.956   3.203  1.00  0.00     0.010 A 
HETATM   12  C   UNL     1      38.524 -12.105   2.235  1.00  0.00     0.152 A 
HETATM   13  N   UNL     1      38.044 -10.973   2.758  1.00  0.00    -0.187 NA
HETATM   14  N   UNL     1      38.321 -11.091   4.065  1.00  0.00    -0.289 N 
HETATM   15  H   UNL     1      38.047 -10.338   4.687  1.00  0.00     0.188 HD
HETATM   16  C   UNL     1      38.961 -12.253   4.381  1.00  0.00     0.123 A 
ENDBRANCH   7  11
ENDBRANCH   2   5
BRANCH   1  17
HETATM   17  C   UNL     1      43.508 -17.328   6.639  1.00  0.00     0.103 C 
BRANCH  17  18
HETATM   18  C   UNL     1      44.471 -17.863   5.580  1.00  0.00     0.014 C 
BRANCH  18  19
HETATM   19  C   UNL     1      44.688 -19.374   5.724  1.00  0.00     0.047 C 
BRANCH  19  20
HETATM   20  C   UNL     1      44.478 -20.090   4.419  1.00  0.00    -0.012 A 
HETATM   21  C   UNL     1      44.683 -21.431   4.131  1.00  0.00    -0.049 A 
HETATM   22  C   UNL     1      45.169 -22.460   5.101  1.00  0.00     0.049 C 
HETATM   23  C   UNL     1      44.355 -21.718   2.765  1.00  0.00     0.015 A 
HETATM   24  C   UNL     1      43.926 -20.608   2.076  1.00  0.00     0.051 A 
HETATM   25  S   UNL     1      43.906 -19.215   3.060  1.00  0.00    -0.106 SA
ENDBRANCH  19  20
ENDBRANCH  18  19
ENDBRANCH  17  18
ENDBRANCH   1  17
TORSDOF 6
ENDMDL
