MODEL 1
REMARK VINA RESULT:      -8.2      0.000      0.000
REMARK  4 active torsions:
REMARK  status: ('A' for Active; 'I' for Inactive)
REMARK    1  A    between atoms: C_5  and  C_6 
REMARK    2  A    between atoms: N_7  and  N_8 
REMARK       I    between atoms: N_8  and  C_9 
REMARK    3  A    between atoms: C_9  and  C_10 
REMARK    4  A    between atoms: C_21  and  O_22 
ROOT
HETATM    1  N   UNL     1      43.961 -15.678   6.249  1.00  0.00    -0.242 N 
HETATM    2  C   UNL     1      43.115 -16.772   6.347  1.00  0.00     0.292 C 
HETATM    3  O   UNL     1      42.559 -17.140   7.378  1.00  0.00    -0.264 OA
HETATM    4  H   UNL     1      44.356 -15.484   5.331  1.00  0.00     0.192 HD
ENDROOT
BRANCH   1   5
HETATM    5  N   UNL     1      44.229 -14.902   7.333  1.00  0.00    -0.183 NA
HETATM    6  C   UNL     1      44.797 -13.766   7.083  1.00  0.00     0.153 C 
BRANCH   6   7
HETATM    7  C   UNL     1      45.129 -12.836   8.181  1.00  0.00     0.017 A 
HETATM    8  C   UNL     1      44.186 -12.653   9.197  1.00  0.00     0.034 A 
HETATM    9  C   UNL     1      44.474 -11.783  10.250  1.00  0.00     0.012 A 
HETATM   10  C   UNL     1      45.688 -11.097  10.299  1.00  0.00     0.022 A 
HETATM   11 BR   UNL     1      43.202 -11.530  11.626  1.00  0.00    -0.051 Br
HETATM   12  C   UNL     1      46.626 -11.282   9.284  1.00  0.00     0.039 A 
HETATM   13  C   UNL     1      46.349 -12.148   8.229  1.00  0.00     0.077 A 
BRANCH  13  14
HETATM   14  O   UNL     1      47.323 -12.272   7.277  1.00  0.00    -0.360 OA
HETATM   15  H   UNL     1      47.956 -11.523   7.377  1.00  0.00     0.217 HD
ENDBRANCH  13  14
ENDBRANCH   6   7
ENDBRANCH   1   5
BRANCH   2  16
HETATM   16  C   UNL     1      42.948 -17.459   5.055  1.00  0.00     0.154 A 
HETATM   17  N   UNL     1      42.032 -17.049   4.143  1.00  0.00    -0.169 NA
HETATM   18  N   UNL     1      42.183 -17.902   3.110  1.00  0.00    -0.281 N 
HETATM   19  H   UNL     1      41.588 -17.788   2.295  1.00  0.00     0.189 HD
HETATM   20  C   UNL     1      43.150 -18.833   3.323  1.00  0.00     0.036 A 
HETATM   21  C   UNL     1      43.664 -18.585   4.574  1.00  0.00     0.002 A 
HETATM   22  C   UNL     1      43.552 -19.922   2.401  1.00  0.00     0.059 C 
HETATM   23  C   UNL     1      44.764 -19.390   5.171  1.00  0.00     0.043 C 
HETATM   24  C   UNL     1      44.956 -20.710   4.397  1.00  0.00     0.005 C 
HETATM   25  C   UNL     1      44.899 -20.513   2.868  1.00  0.00     0.006 C 
ENDBRANCH   2  16
TORSDOF 4
ENDMDL
MODEL 2
REMARK VINA RESULT:      -8.0      6.479      8.630
REMARK  4 active torsions:
REMARK  status: ('A' for Active; 'I' for Inactive)
REMARK    1  A    between atoms: C_5  and  C_6 
REMARK    2  A    between atoms: N_7  and  N_8 
REMARK       I    between atoms: N_8  and  C_9 
REMARK    3  A    between atoms: C_9  and  C_10 
REMARK    4  A    between atoms: C_21  and  O_22 
ROOT
HETATM    1  N   UNL     1      42.274 -16.953   0.759  1.00  0.00    -0.242 N 
HETATM    2  C   UNL     1      41.699 -17.354   1.955  1.00  0.00     0.292 C 
HETATM    3  O   UNL     1      40.503 -17.274   2.222  1.00  0.00    -0.264 OA
HETATM    4  H   UNL     1      43.281 -17.076   0.670  1.00  0.00     0.192 HD
ENDROOT
BRANCH   1   5
HETATM    5  N   UNL     1      41.515 -16.435  -0.242  1.00  0.00    -0.183 NA
HETATM    6  C   UNL     1      41.449 -15.143  -0.284  1.00  0.00     0.153 C 
BRANCH   6   7
HETATM    7  C   UNL     1      40.658 -14.466  -1.333  1.00  0.00     0.017 A 
HETATM    8  C   UNL     1      39.654 -13.579  -0.931  1.00  0.00     0.034 A 
HETATM    9  C   UNL     1      38.892 -12.923  -1.900  1.00  0.00     0.012 A 
HETATM   10  C   UNL     1      39.122 -13.142  -3.259  1.00  0.00     0.022 A 
HETATM   11 BR   UNL     1      37.534 -11.723  -1.364  1.00  0.00    -0.051 Br
HETATM   12  C   UNL     1      40.123 -14.028  -3.656  1.00  0.00     0.039 A 
HETATM   13  C   UNL     1      40.889 -14.688  -2.697  1.00  0.00     0.077 A 
BRANCH  13  14
HETATM   14  O   UNL     1      41.850 -15.538  -3.172  1.00  0.00    -0.360 OA
HETATM   15  H   UNL     1      41.577 -16.463  -2.969  1.00  0.00     0.217 HD
ENDBRANCH  13  14
ENDBRANCH   6   7
ENDBRANCH   1   5
BRANCH   2  16
HETATM   16  C   UNL     1      42.695 -17.903   2.891  1.00  0.00     0.154 A 
HETATM   17  N   UNL     1      43.140 -17.191   3.956  1.00  0.00    -0.169 NA
HETATM   18  N   UNL     1      44.016 -18.015   4.567  1.00  0.00    -0.281 N 
HETATM   19  H   UNL     1      44.488 -17.689   5.404  1.00  0.00     0.189 HD
HETATM   20  C   UNL     1      44.147 -19.214   3.940  1.00  0.00     0.036 A 
HETATM   21  C   UNL     1      43.314 -19.179   2.847  1.00  0.00     0.002 A 
HETATM   22  C   UNL     1      45.036 -20.332   4.338  1.00  0.00     0.059 C 
HETATM   23  C   UNL     1      43.165 -20.321   1.905  1.00  0.00     0.043 C 
HETATM   24  C   UNL     1      44.310 -21.338   2.095  1.00  0.00     0.005 C 
HETATM   25  C   UNL     1      44.620 -21.610   3.582  1.00  0.00     0.006 C 
ENDBRANCH   2  16
TORSDOF 4
ENDMDL
MODEL 3
REMARK VINA RESULT:      -8.0      6.557      7.952
REMARK  4 active torsions:
REMARK  status: ('A' for Active; 'I' for Inactive)
REMARK    1  A    between atoms: C_5  and  C_6 
REMARK    2  A    between atoms: N_7  and  N_8 
REMARK       I    between atoms: N_8  and  C_9 
REMARK    3  A    between atoms: C_9  and  C_10 
REMARK    4  A    between atoms: C_21  and  O_22 
ROOT
HETATM    1  N   UNL     1      41.731 -17.511   1.961  1.00  0.00    -0.242 N 
HETATM    2  C   UNL     1      43.035 -17.906   1.701  1.00  0.00     0.292 C 
HETATM    3  O   UNL     1      43.633 -17.706   0.647  1.00  0.00    -0.264 OA
HETATM    4  H   UNL     1      41.357 -17.741   2.879  1.00  0.00     0.192 HD
ENDROOT
BRANCH   1   5
HETATM    5  N   UNL     1      41.007 -16.835   1.030  1.00  0.00    -0.183 NA
HETATM    6  C   UNL     1      40.893 -15.560   1.225  1.00  0.00     0.153 C 
BRANCH   6   7
HETATM    7  C   UNL     1      40.134 -14.722   0.276  1.00  0.00     0.017 A 
HETATM    8  C   UNL     1      39.065 -13.968   0.772  1.00  0.00     0.034 A 
HETATM    9  C   UNL     1      38.331 -13.163  -0.101  1.00  0.00     0.012 A 
HETATM   10  C   UNL     1      38.651 -13.103  -1.458  1.00  0.00     0.022 A 
HETATM   11 BR   UNL     1      36.885 -12.142   0.563  1.00  0.00    -0.051 Br
HETATM   12  C   UNL     1      39.717 -13.857  -1.950  1.00  0.00     0.039 A 
HETATM   13  C   UNL     1      40.456 -14.663  -1.087  1.00  0.00     0.077 A 
BRANCH  13  14
HETATM   14  O   UNL     1      41.484 -15.367  -1.650  1.00  0.00    -0.360 OA
HETATM   15  H   UNL     1      42.005 -15.792  -0.929  1.00  0.00     0.217 HD
ENDBRANCH  13  14
ENDBRANCH   6   7
ENDBRANCH   1   5
BRANCH   2  16
HETATM   16  C   UNL     1      43.641 -18.603   2.848  1.00  0.00     0.154 A 
HETATM   17  N   UNL     1      43.942 -17.953   3.999  1.00  0.00    -0.169 NA
HETATM   18  N   UNL     1      44.460 -18.908   4.797  1.00  0.00    -0.281 N 
HETATM   19  H   UNL     1      44.766 -18.649   5.730  1.00  0.00     0.189 HD
HETATM   20  C   UNL     1      44.503 -20.131   4.207  1.00  0.00     0.036 A 
HETATM   21  C   UNL     1      43.989 -19.975   2.942  1.00  0.00     0.002 A 
HETATM   22  C   UNL     1      45.029 -21.385   4.799  1.00  0.00     0.059 C 
HETATM   23  C   UNL     1      43.854 -21.100   1.977  1.00  0.00     0.043 C 
HETATM   24  C   UNL     1      44.693 -22.312   2.432  1.00  0.00     0.005 C 
HETATM   25  C   UNL     1      44.568 -22.585   3.945  1.00  0.00     0.006 C 
ENDBRANCH   2  16
TORSDOF 4
ENDMDL
MODEL 4
REMARK VINA RESULT:      -7.8      6.745      9.164
REMARK  4 active torsions:
REMARK  status: ('A' for Active; 'I' for Inactive)
REMARK    1  A    between atoms: C_5  and  C_6 
REMARK    2  A    between atoms: N_7  and  N_8 
REMARK       I    between atoms: N_8  and  C_9 
REMARK    3  A    between atoms: C_9  and  C_10 
REMARK    4  A    between atoms: C_21  and  O_22 
ROOT
HETATM    1  N   UNL     1      42.184 -16.047  -0.219  1.00  0.00    -0.242 N 
HETATM    2  C   UNL     1      41.384 -14.914  -0.235  1.00  0.00     0.292 C 
HETATM    3  O   UNL     1      40.726 -14.505   0.717  1.00  0.00    -0.264 OA
HETATM    4  H   UNL     1      42.677 -16.273  -1.080  1.00  0.00     0.192 HD
ENDROOT
BRANCH   1   5
HETATM    5  N   UNL     1      42.305 -16.801   0.906  1.00  0.00    -0.183 NA
HETATM    6  C   UNL     1      43.459 -17.359   1.084  1.00  0.00     0.153 C 
BRANCH   6   7
HETATM    7  C   UNL     1      43.711 -18.197   2.275  1.00  0.00     0.017 A 
HETATM    8  C   UNL     1      43.970 -19.557   2.080  1.00  0.00     0.034 A 
HETATM    9  C   UNL     1      44.214 -20.373   3.186  1.00  0.00     0.012 A 
HETATM   10  C   UNL     1      44.203 -19.847   4.479  1.00  0.00     0.022 A 
HETATM   11 BR   UNL     1      44.563 -22.213   2.930  1.00  0.00    -0.051 Br
HETATM   12  C   UNL     1      43.944 -18.490   4.669  1.00  0.00     0.039 A 
HETATM   13  C   UNL     1      43.699 -17.667   3.572  1.00  0.00     0.077 A 
BRANCH  13  14
HETATM   14  O   UNL     1      43.455 -16.350   3.847  1.00  0.00    -0.360 OA
HETATM   15  H   UNL     1      44.166 -16.018   4.444  1.00  0.00     0.217 HD
ENDBRANCH  13  14
ENDBRANCH   6   7
ENDBRANCH   1   5
BRANCH   2  16
HETATM   16  C   UNL     1      41.411 -14.236  -1.543  1.00  0.00     0.154 A 
HETATM   17  N   UNL     1      40.926 -14.829  -2.662  1.00  0.00    -0.169 NA
HETATM   18  N   UNL     1      41.114 -13.912  -3.633  1.00  0.00    -0.281 N 
HETATM   19  H   UNL     1      40.824 -14.139  -4.579  1.00  0.00     0.189 HD
HETATM   20  C   UNL     1      41.694 -12.769  -3.183  1.00  0.00     0.036 A 
HETATM   21  C   UNL     1      41.909 -12.942  -1.836  1.00  0.00     0.002 A 
HETATM   22  C   UNL     1      42.054 -11.578  -3.990  1.00  0.00     0.059 C 
HETATM   23  C   UNL     1      42.522 -11.895  -0.973  1.00  0.00     0.043 C 
HETATM   24  C   UNL     1      43.206 -10.811  -1.832  1.00  0.00     0.005 C 
HETATM   25  C   UNL     1      42.353 -10.394  -3.047  1.00  0.00     0.006 C 
ENDBRANCH   2  16
TORSDOF 4
ENDMDL
MODEL 5
REMARK VINA RESULT:      -7.7      5.832      7.831
REMARK  4 active torsions:
REMARK  status: ('A' for Active; 'I' for Inactive)
REMARK    1  A    between atoms: C_5  and  C_6 
REMARK    2  A    between atoms: N_7  and  N_8 
REMARK       I    between atoms: N_8  and  C_9 
REMARK    3  A    between atoms: C_9  and  C_10 
REMARK    4  A    between atoms: C_21  and  O_22 
ROOT
HETATM    1  N   UNL     1      41.994 -17.407   3.101  1.00  0.00    -0.242 N 
HETATM    2  C   UNL     1      43.265 -17.160   3.596  1.00  0.00     0.292 C 
HETATM    3  O   UNL     1      43.853 -16.084   3.519  1.00  0.00    -0.264 OA
HETATM    4  H   UNL     1      41.625 -18.346   3.233  1.00  0.00     0.192 HD
ENDROOT
BRANCH   1   5
HETATM    5  N   UNL     1      41.282 -16.427   2.484  1.00  0.00    -0.183 NA
HETATM    6  C   UNL     1      41.273 -16.471   1.191  1.00  0.00     0.153 C 
BRANCH   6   7
HETATM    7  C   UNL     1      40.527 -15.461   0.412  1.00  0.00     0.017 A 
HETATM    8  C   UNL     1      41.017 -15.109  -0.850  1.00  0.00     0.034 A 
HETATM    9  C   UNL     1      40.331 -14.160  -1.611  1.00  0.00     0.012 A 
HETATM   10  C   UNL     1      39.167 -13.562  -1.127  1.00  0.00     0.022 A 
HETATM   11 BR   UNL     1      40.989 -13.679  -3.316  1.00  0.00    -0.051 Br
HETATM   12  C   UNL     1      38.682 -13.915   0.132  1.00  0.00     0.039 A 
HETATM   13  C   UNL     1      39.358 -14.861   0.899  1.00  0.00     0.077 A 
BRANCH  13  14
HETATM   14  O   UNL     1      38.814 -15.150   2.120  1.00  0.00    -0.360 OA
HETATM   15  H   UNL     1      39.354 -15.858   2.543  1.00  0.00     0.217 HD
ENDBRANCH  13  14
ENDBRANCH   6   7
ENDBRANCH   1   5
BRANCH   2  16
HETATM   16  C   UNL     1      43.848 -18.349   4.242  1.00  0.00     0.154 A 
HETATM   17  N   UNL     1      44.255 -18.329   5.535  1.00  0.00    -0.169 NA
HETATM   18  N   UNL     1      44.712 -19.578   5.761  1.00  0.00    -0.281 N 
HETATM   19  H   UNL     1      45.078 -19.803   6.681  1.00  0.00     0.189 HD
HETATM   20  C   UNL     1      44.614 -20.387   4.673  1.00  0.00     0.036 A 
HETATM   21  C   UNL     1      44.067 -19.626   3.667  1.00  0.00     0.002 A 
HETATM   22  C   UNL     1      45.042 -21.803   4.578  1.00  0.00     0.059 C 
HETATM   23  C   UNL     1      43.787 -20.163   2.307  1.00  0.00     0.043 C 
HETATM   24  C   UNL     1      44.525 -21.500   2.085  1.00  0.00     0.005 C 
HETATM   25  C   UNL     1      44.435 -22.435   3.309  1.00  0.00     0.006 C 
ENDBRANCH   2  16
TORSDOF 4
ENDMDL
MODEL 6
REMARK VINA RESULT:      -7.4      6.170      8.640
REMARK  4 active torsions:
REMARK  status: ('A' for Active; 'I' for Inactive)
REMARK    1  A    between atoms: C_5  and  C_6 
REMARK    2  A    between atoms: N_7  and  N_8 
REMARK       I    between atoms: N_8  and  C_9 
REMARK    3  A    between atoms: C_9  and  C_10 
REMARK    4  A    between atoms: C_21  and  O_22 
ROOT
HETATM    1  N   UNL     1      42.394 -16.280   1.200  1.00  0.00    -0.242 N 
HETATM    2  C   UNL     1      41.733 -17.074   2.125  1.00  0.00     0.292 C 
HETATM    3  O   UNL     1      40.540 -16.983   2.403  1.00  0.00    -0.264 OA
HETATM    4  H   UNL     1      43.386 -16.463   1.066  1.00  0.00     0.192 HD
ENDROOT
BRANCH   1   5
HETATM    5  N   UNL     1      41.732 -15.320   0.502  1.00  0.00    -0.183 NA
HETATM    6  C   UNL     1      41.403 -15.635  -0.709  1.00  0.00     0.153 C 
BRANCH   6   7
HETATM    7  C   UNL     1      40.674 -14.673  -1.562  1.00  0.00     0.017 A 
HETATM    8  C   UNL     1      39.603 -13.972  -0.997  1.00  0.00     0.034 A 
HETATM    9  C   UNL     1      38.898 -13.054  -1.777  1.00  0.00     0.012 A 
HETATM   10  C   UNL     1      39.249 -12.830  -3.109  1.00  0.00     0.022 A 
HETATM   11 BR   UNL     1      37.449 -12.105  -1.020  1.00  0.00    -0.051 Br
HETATM   12  C   UNL     1      40.317 -13.530  -3.669  1.00  0.00     0.039 A 
HETATM   13  C   UNL     1      41.027 -14.448  -2.899  1.00  0.00     0.077 A 
BRANCH  13  14
HETATM   14  O   UNL     1      42.060 -15.091  -3.525  1.00  0.00    -0.360 OA
HETATM   15  H   UNL     1      42.065 -14.825  -4.474  1.00  0.00     0.217 HD
ENDBRANCH  13  14
ENDBRANCH   6   7
ENDBRANCH   1   5
BRANCH   2  16
HETATM   16  C   UNL     1      42.630 -18.061   2.750  1.00  0.00     0.154 A 
HETATM   17  N   UNL     1      42.929 -19.236   2.144  1.00  0.00    -0.169 NA
HETATM   18  N   UNL     1      43.768 -19.851   3.003  1.00  0.00    -0.281 N 
HETATM   19  H   UNL     1      44.129 -20.767   2.757  1.00  0.00     0.189 HD
HETATM   20  C   UNL     1      44.014 -19.122   4.123  1.00  0.00     0.036 A 
HETATM   21  C   UNL     1      43.290 -17.959   4.001  1.00  0.00     0.002 A 
HETATM   22  C   UNL     1      44.871 -19.514   5.268  1.00  0.00     0.059 C 
HETATM   23  C   UNL     1      43.305 -16.884   5.030  1.00  0.00     0.043 C 
HETATM   24  C   UNL     1      43.899 -17.406   6.356  1.00  0.00     0.005 C 
HETATM   25  C   UNL     1      45.155 -18.275   6.141  1.00  0.00     0.006 C 
ENDBRANCH   2  16
TORSDOF 4
ENDMDL
MODEL 7
REMARK VINA RESULT:      -7.4      6.202      8.524
REMARK  4 active torsions:
REMARK  status: ('A' for Active; 'I' for Inactive)
REMARK    1  A    between atoms: C_5  and  C_6 
REMARK    2  A    between atoms: N_7  and  N_8 
REMARK       I    between atoms: N_8  and  C_9 
REMARK    3  A    between atoms: C_9  and  C_10 
REMARK    4  A    between atoms: C_21  and  O_22 
ROOT
HETATM    1  N   UNL     1      42.170 -16.181  -0.100  1.00  0.00    -0.242 N 
HETATM    2  C   UNL     1      41.166 -15.236  -0.245  1.00  0.00     0.292 C 
HETATM    3  O   UNL     1      40.297 -15.000   0.590  1.00  0.00    -0.264 OA
HETATM    4  H   UNL     1      42.827 -16.275  -0.872  1.00  0.00     0.192 HD
ENDROOT
BRANCH   1   5
HETATM    5  N   UNL     1      42.268 -16.929   1.031  1.00  0.00    -0.183 NA
HETATM    6  C   UNL     1      43.384 -16.823   1.677  1.00  0.00     0.153 C 
BRANCH   6   7
HETATM    7  C   UNL     1      43.603 -17.583   2.925  1.00  0.00     0.017 A 
HETATM    8  C   UNL     1      43.593 -16.881   4.134  1.00  0.00     0.034 A 
HETATM    9  C   UNL     1      43.794 -17.574   5.330  1.00  0.00     0.012 A 
HETATM   10  C   UNL     1      44.003 -18.953   5.330  1.00  0.00     0.022 A 
HETATM   11 BR   UNL     1      43.784 -16.630   6.968  1.00  0.00    -0.051 Br
HETATM   12  C   UNL     1      44.012 -19.651   4.122  1.00  0.00     0.039 A 
HETATM   13  C   UNL     1      43.813 -18.969   2.924  1.00  0.00     0.077 A 
BRANCH  13  14
HETATM   14  O   UNL     1      43.836 -19.728   1.786  1.00  0.00    -0.360 OA
HETATM   15  H   UNL     1      43.236 -20.499   1.912  1.00  0.00     0.217 HD
ENDBRANCH  13  14
ENDBRANCH   6   7
ENDBRANCH   1   5
BRANCH   2  16
HETATM   16  C   UNL     1      41.256 -14.527  -1.533  1.00  0.00     0.154 A 
HETATM   17  N   UNL     1      40.796 -15.078  -2.683  1.00  0.00    -0.169 NA
HETATM   18  N   UNL     1      41.040 -14.142  -3.623  1.00  0.00    -0.281 N 
HETATM   19  H   UNL     1      40.778 -14.338  -4.584  1.00  0.00     0.189 HD
HETATM   20  C   UNL     1      41.632 -13.026  -3.124  1.00  0.00     0.036 A 
HETATM   21  C   UNL     1      41.796 -13.238  -1.776  1.00  0.00     0.002 A 
HETATM   22  C   UNL     1      42.050 -11.825  -3.887  1.00  0.00     0.059 C 
HETATM   23  C   UNL     1      42.404 -12.230  -0.865  1.00  0.00     0.043 C 
HETATM   24  C   UNL     1      43.144 -11.142  -1.671  1.00  0.00     0.005 C 
HETATM   25  C   UNL     1      42.345 -10.673  -2.904  1.00  0.00     0.006 C 
ENDBRANCH   2  16
TORSDOF 4
ENDMDL
MODEL 8
REMARK VINA RESULT:      -7.3      5.608      8.291
REMARK  4 active torsions:
REMARK  status: ('A' for Active; 'I' for Inactive)
REMARK    1  A    between atoms: C_5  and  C_6 
REMARK    2  A    between atoms: N_7  and  N_8 
REMARK       I    between atoms: N_8  and  C_9 
REMARK    3  A    between atoms: C_9  and  C_10 
REMARK    4  A    between atoms: C_21  and  O_22 
ROOT
HETATM    1  N   UNL     1      41.780 -15.050   3.536  1.00  0.00    -0.242 N 
HETATM    2  C   UNL     1      42.171 -13.818   3.035  1.00  0.00     0.292 C 
HETATM    3  O   UNL     1      43.332 -13.487   2.810  1.00  0.00    -0.264 OA
HETATM    4  H   UNL     1      40.781 -15.192   3.675  1.00  0.00     0.192 HD
ENDROOT
BRANCH   1   5
HETATM    5  N   UNL     1      42.696 -16.017   3.808  1.00  0.00    -0.183 NA
HETATM    6  C   UNL     1      42.353 -17.221   3.480  1.00  0.00     0.153 C 
BRANCH   6   7
HETATM    7  C   UNL     1      43.271 -18.353   3.721  1.00  0.00     0.017 A 
HETATM    8  C   UNL     1      43.324 -19.373   2.765  1.00  0.00     0.034 A 
HETATM    9  C   UNL     1      44.184 -20.455   2.965  1.00  0.00     0.012 A 
HETATM   10  C   UNL     1      44.988 -20.528   4.103  1.00  0.00     0.022 A 
HETATM   11 BR   UNL     1      44.260 -21.837   1.678  1.00  0.00    -0.051 Br
HETATM   12  C   UNL     1      44.933 -19.509   5.055  1.00  0.00     0.039 A 
HETATM   13  C   UNL     1      44.078 -18.426   4.865  1.00  0.00     0.077 A 
BRANCH  13  14
HETATM   14  O   UNL     1      44.085 -17.471   5.844  1.00  0.00    -0.360 OA
HETATM   15  H   UNL     1      43.724 -16.634   5.469  1.00  0.00     0.217 HD
ENDBRANCH  13  14
ENDBRANCH   6   7
ENDBRANCH   1   5
BRANCH   2  16
HETATM   16  C   UNL     1      41.022 -12.928   2.793  1.00  0.00     0.154 A 
HETATM   17  N   UNL     1      41.005 -11.648   3.238  1.00  0.00    -0.169 NA
HETATM   18  N   UNL     1      39.817 -11.164   2.822  1.00  0.00    -0.281 N 
HETATM   19  H   UNL     1      39.578 -10.204   3.047  1.00  0.00     0.189 HD
HETATM   20  C   UNL     1      39.081 -12.076   2.135  1.00  0.00     0.036 A 
HETATM   21  C   UNL     1      39.822 -13.234   2.100  1.00  0.00     0.002 A 
HETATM   22  C   UNL     1      37.729 -11.875   1.560  1.00  0.00     0.059 C 
HETATM   23  C   UNL     1      39.358 -14.473   1.419  1.00  0.00     0.043 C 
HETATM   24  C   UNL     1      37.845 -14.398   1.122  1.00  0.00     0.005 C 
HETATM   25  C   UNL     1      37.417 -13.021   0.576  1.00  0.00     0.006 C 
ENDBRANCH   2  16
TORSDOF 4
ENDMDL
MODEL 9
REMARK VINA RESULT:      -7.1      6.103      7.389
REMARK  4 active torsions:
REMARK  status: ('A' for Active; 'I' for Inactive)
REMARK    1  A    between atoms: C_5  and  C_6 
REMARK    2  A    between atoms: N_7  and  N_8 
REMARK       I    between atoms: N_8  and  C_9 
REMARK    3  A    between atoms: C_9  and  C_10 
REMARK    4  A    between atoms: C_21  and  O_22 
ROOT
HETATM    1  N   UNL     1      42.798 -16.533   1.709  1.00  0.00    -0.242 N 
HETATM    2  C   UNL     1      42.174 -17.255   2.715  1.00  0.00     0.292 C 
HETATM    3  O   UNL     1      40.974 -17.207   2.973  1.00  0.00    -0.264 OA
HETATM    4  H   UNL     1      43.802 -16.667   1.604  1.00  0.00     0.192 HD
ENDROOT
BRANCH   1   5
HETATM    5  N   UNL     1      42.088 -15.702   0.901  1.00  0.00    -0.183 NA
HETATM    6  C   UNL     1      42.172 -14.441   1.183  1.00  0.00     0.153 C 
BRANCH   6   7
HETATM    7  C   UNL     1      41.448 -13.442   0.370  1.00  0.00     0.017 A 
HETATM    8  C   UNL     1      42.036 -12.185   0.194  1.00  0.00     0.034 A 
HETATM    9  C   UNL     1      41.377 -11.222  -0.572  1.00  0.00     0.012 A 
HETATM   10  C   UNL     1      40.143 -11.499  -1.162  1.00  0.00     0.022 A 
HETATM   11 BR   UNL     1      42.166  -9.521  -0.813  1.00  0.00    -0.051 Br
HETATM   12  C   UNL     1      39.559 -12.753  -0.984  1.00  0.00     0.039 A 
HETATM   13  C   UNL     1      40.209 -13.721  -0.222  1.00  0.00     0.077 A 
BRANCH  13  14
HETATM   14  O   UNL     1      39.568 -14.924  -0.099  1.00  0.00    -0.360 OA
HETATM   15  H   UNL     1      39.990 -15.568  -0.715  1.00  0.00     0.217 HD
ENDBRANCH  13  14
ENDBRANCH   6   7
ENDBRANCH   1   5
BRANCH   2  16
HETATM   16  C   UNL     1      43.121 -18.106   3.456  1.00  0.00     0.154 A 
HETATM   17  N   UNL     1      43.713 -17.684   4.600  1.00  0.00    -0.169 NA
HETATM   18  N   UNL     1      44.486 -18.722   4.978  1.00  0.00    -0.281 N 
HETATM   19  H   UNL     1      45.038 -18.633   5.826  1.00  0.00     0.189 HD
HETATM   20  C   UNL     1      44.412 -19.780   4.129  1.00  0.00     0.036 A 
HETATM   21  C   UNL     1      43.545 -19.418   3.126  1.00  0.00     0.002 A 
HETATM   22  C   UNL     1      45.146 -21.064   4.243  1.00  0.00     0.059 C 
HETATM   23  C   UNL     1      43.187 -20.322   1.999  1.00  0.00     0.043 C 
HETATM   24  C   UNL     1      44.179 -21.501   1.909  1.00  0.00     0.005 C 
HETATM   25  C   UNL     1      44.514 -22.099   3.291  1.00  0.00     0.006 C 
ENDBRANCH   2  16
TORSDOF 4
ENDMDL
MODEL 10
REMARK VINA RESULT:      -7.1      7.306      9.722
REMARK  4 active torsions:
REMARK  status: ('A' for Active; 'I' for Inactive)
REMARK    1  A    between atoms: C_5  and  C_6 
REMARK    2  A    between atoms: N_7  and  N_8 
REMARK       I    between atoms: N_8  and  C_9 
REMARK    3  A    between atoms: C_9  and  C_10 
REMARK    4  A    between atoms: C_21  and  O_22 
ROOT
HETATM    1  N   UNL     1      40.179 -15.395   0.028  1.00  0.00    -0.242 N 
HETATM    2  C   UNL     1      40.743 -14.522  -0.891  1.00  0.00     0.292 C 
HETATM    3  O   UNL     1      41.873 -14.048  -0.809  1.00  0.00    -0.264 OA
HETATM    4  H   UNL     1      39.231 -15.712  -0.163  1.00  0.00     0.192 HD
ENDROOT
BRANCH   1   5
HETATM    5  N   UNL     1      40.878 -15.809   1.118  1.00  0.00    -0.183 NA
HETATM    6  C   UNL     1      41.028 -17.090   1.233  1.00  0.00     0.153 C 
BRANCH   6   7
HETATM    7  C   UNL     1      41.775 -17.657   2.374  1.00  0.00     0.017 A 
HETATM    8  C   UNL     1      42.730 -18.645   2.110  1.00  0.00     0.034 A 
HETATM    9  C   UNL     1      43.454 -19.197   3.169  1.00  0.00     0.012 A 
HETATM   10  C   UNL     1      43.236 -18.775   4.481  1.00  0.00     0.022 A 
HETATM   11 BR   UNL     1      44.745 -20.533   2.819  1.00  0.00    -0.051 Br
HETATM   12  C   UNL     1      42.284 -17.790   4.740  1.00  0.00     0.039 A 
HETATM   13  C   UNL     1      41.556 -17.233   3.691  1.00  0.00     0.077 A 
BRANCH  13  14
HETATM   14  O   UNL     1      40.643 -16.273   4.033  1.00  0.00    -0.360 OA
HETATM   15  H   UNL     1      39.859 -16.363   3.442  1.00  0.00     0.217 HD
ENDBRANCH  13  14
ENDBRANCH   6   7
ENDBRANCH   1   5
BRANCH   2  16
HETATM   16  C   UNL     1      39.824 -14.220  -2.003  1.00  0.00     0.154 A 
HETATM   17  N   UNL     1      39.820 -14.953  -3.143  1.00  0.00    -0.169 NA
HETATM   18  N   UNL     1      38.858 -14.388  -3.900  1.00  0.00    -0.281 N 
HETATM   19  H   UNL     1      38.673 -14.776  -4.820  1.00  0.00     0.189 HD
HETATM   20  C   UNL     1      38.253 -13.333  -3.295  1.00  0.00     0.036 A 
HETATM   21  C   UNL     1      38.855 -13.187  -2.067  1.00  0.00     0.002 A 
HETATM   22  C   UNL     1      37.175 -12.485  -3.857  1.00  0.00     0.059 C 
HETATM   23  C   UNL     1      38.458 -12.137  -1.090  1.00  0.00     0.043 C 
HETATM   24  C   UNL     1      37.599 -11.052  -1.774  1.00  0.00     0.005 C 
HETATM   25  C   UNL     1      36.542 -11.647  -2.727  1.00  0.00     0.006 C 
ENDBRANCH   2  16
TORSDOF 4
ENDMDL
