MODEL 1
REMARK VINA RESULT:      -9.2      0.000      0.000
REMARK  6 active torsions:
REMARK  status: ('A' for Active; 'I' for Inactive)
REMARK    1  A    between atoms: O_2  and  C_3 
REMARK    2  A    between atoms: C_6  and  C_7 
REMARK    3  A    between atoms: C_13  and  C_14 
REMARK       I    between atoms: C_14  and  N_15 
REMARK    4  A    between atoms: N_15  and  C_16 
REMARK    5  A    between atoms: C_16  and  C_17 
REMARK    6  A    between atoms: C_24  and  C_25 
ROOT
HETATM    1  C   UNL     1      41.858 -17.024   5.252  1.00  0.00     0.118 C 
HETATM    2  N   UNL     1      41.186 -16.148   4.284  1.00  0.00    -0.365 N 
HETATM    3  C   UNL     1      41.784 -15.020   3.820  1.00  0.00     0.138 A 
HETATM    4  N   UNL     1      42.949 -14.564   4.397  1.00  0.00    -0.240 N 
HETATM    5  N   UNL     1      43.446 -13.463   3.816  1.00  0.00    -0.181 NA
HETATM    6  C   UNL     1      42.520 -13.153   2.906  1.00  0.00     0.160 A 
HETATM    7  C   UNL     1      41.461 -14.092   2.845  1.00  0.00     0.096 A 
HETATM    8  C   UNL     1      43.604 -15.200   5.526  1.00  0.00     0.221 C 
HETATM    9  C   UNL     1      42.606 -16.124   6.251  1.00  0.00     0.066 C 
HETATM   10  H   UNL     1      40.201 -16.349   4.122  1.00  0.00     0.161 HD
ENDROOT
BRANCH   7  11
HETATM   11  C   UNL     1      40.332 -14.026   1.939  1.00  0.00     0.257 C 
HETATM   12  N   UNL     1      40.536 -13.274   0.807  1.00  0.00    -0.352 N 
HETATM   13  H   UNL     1      41.386 -12.733   0.739  1.00  0.00     0.163 HD
HETATM   14  O   UNL     1      39.269 -14.579   2.195  1.00  0.00    -0.267 OA
BRANCH  12  15
HETATM   15  C   UNL     1      39.505 -13.085  -0.186  1.00  0.00     0.161 C 
BRANCH  15  16
HETATM   16  C   UNL     1      39.613 -14.057  -1.336  1.00  0.00    -0.041 A 
HETATM   17  C   UNL     1      38.572 -14.140  -2.273  1.00  0.00     0.009 A 
HETATM   18  C   UNL     1      38.674 -14.984  -3.380  1.00  0.00     0.001 A 
HETATM   19  C   UNL     1      39.820 -15.753  -3.567  1.00  0.00     0.000 A 
HETATM   20  C   UNL     1      40.868 -15.670  -2.653  1.00  0.00     0.001 A 
HETATM   21  C   UNL     1      40.770 -14.820  -1.549  1.00  0.00     0.009 A 
ENDBRANCH  15  16
ENDBRANCH  12  15
ENDBRANCH   7  11
BRANCH   1  22
HETATM   22  C   UNL     1      42.713 -18.084   4.559  1.00  0.00    -0.035 A 
HETATM   23  C   UNL     1      43.611 -18.890   5.280  1.00  0.00     0.012 A 
HETATM   24  C   UNL     1      44.386 -19.872   4.648  1.00  0.00     0.037 A 
HETATM   25  C   UNL     1      44.264 -20.091   3.279  1.00  0.00     0.068 A 
HETATM   26  C   UNL     1      43.349 -19.331   2.556  1.00  0.00     0.037 A 
HETATM   27  C   UNL     1      42.580 -18.345   3.185  1.00  0.00     0.012 A 
BRANCH  25  28
HETATM   28  O   UNL     1      44.955 -21.012   2.544  1.00  0.00    -0.356 OA
HETATM   29  C   UNL     1      44.191 -21.881   1.717  1.00  0.00     0.210 C 
ENDBRANCH  25  28
ENDBRANCH   1  22
BRANCH   8  30
HETATM   30  C   UNL     1      44.158 -14.195   6.514  1.00  0.00     0.409 C 
HETATM   31  F   UNL     1      43.332 -13.140   6.703  1.00  0.00    -0.169 F 
HETATM   32  F   UNL     1      44.296 -14.793   7.732  1.00  0.00    -0.169 F 
HETATM   33  F   UNL     1      45.382 -13.730   6.192  1.00  0.00    -0.169 F 
ENDBRANCH   8  30
TORSDOF 6
ENDMDL
MODEL 2
REMARK VINA RESULT:      -8.7      3.552      7.466
REMARK  6 active torsions:
REMARK  status: ('A' for Active; 'I' for Inactive)
REMARK    1  A    between atoms: O_2  and  C_3 
REMARK    2  A    between atoms: C_6  and  C_7 
REMARK    3  A    between atoms: C_13  and  C_14 
REMARK       I    between atoms: C_14  and  N_15 
REMARK    4  A    between atoms: N_15  and  C_16 
REMARK    5  A    between atoms: C_16  and  C_17 
REMARK    6  A    between atoms: C_24  and  C_25 
ROOT
HETATM    1  C   UNL     1      43.647 -16.412   2.217  1.00  0.00     0.118 C 
HETATM    2  N   UNL     1      43.975 -15.534   3.347  1.00  0.00    -0.365 N 
HETATM    3  C   UNL     1      43.030 -15.168   4.253  1.00  0.00     0.138 A 
HETATM    4  N   UNL     1      41.701 -15.448   4.021  1.00  0.00    -0.240 N 
HETATM    5  N   UNL     1      40.886 -15.063   5.013  1.00  0.00    -0.181 NA
HETATM    6  C   UNL     1      41.706 -14.433   5.856  1.00  0.00     0.160 A 
HETATM    7  C   UNL     1      43.063 -14.474   5.449  1.00  0.00     0.096 A 
HETATM    8  C   UNL     1      41.201 -16.103   2.826  1.00  0.00     0.221 C 
HETATM    9  C   UNL     1      42.254 -16.009   1.704  1.00  0.00     0.066 C 
HETATM   10  H   UNL     1      44.891 -15.092   3.307  1.00  0.00     0.161 HD
ENDROOT
BRANCH   7  11
HETATM   11  C   UNL     1      44.175 -13.897   6.178  1.00  0.00     0.257 C 
HETATM   12  N   UNL     1      43.908 -13.566   7.484  1.00  0.00    -0.352 N 
HETATM   13  H   UNL     1      42.953 -13.629   7.807  1.00  0.00     0.163 HD
HETATM   14  O   UNL     1      45.258 -13.695   5.642  1.00  0.00    -0.267 OA
BRANCH  12  15
HETATM   15  C   UNL     1      44.898 -12.958   8.341  1.00  0.00     0.161 C 
BRANCH  15  16
HETATM   16  C   UNL     1      44.323 -11.887   9.235  1.00  0.00    -0.041 A 
HETATM   17  C   UNL     1      43.158 -11.209   8.844  1.00  0.00     0.009 A 
HETATM   18  C   UNL     1      42.571 -10.259   9.681  1.00  0.00     0.001 A 
HETATM   19  C   UNL     1      43.137  -9.977  10.922  1.00  0.00     0.000 A 
HETATM   20  C   UNL     1      44.285 -10.653  11.330  1.00  0.00     0.001 A 
HETATM   21  C   UNL     1      44.870 -11.609  10.497  1.00  0.00     0.009 A 
ENDBRANCH  15  16
ENDBRANCH  12  15
ENDBRANCH   7  11
BRANCH   1  22
HETATM   22  C   UNL     1      43.809 -17.887   2.580  1.00  0.00    -0.035 A 
HETATM   23  C   UNL     1      43.620 -18.903   1.627  1.00  0.00     0.012 A 
HETATM   24  C   UNL     1      43.781 -20.257   1.955  1.00  0.00     0.037 A 
HETATM   25  C   UNL     1      44.163 -20.628   3.242  1.00  0.00     0.068 A 
HETATM   26  C   UNL     1      44.395 -19.632   4.187  1.00  0.00     0.037 A 
HETATM   27  C   UNL     1      44.227 -18.282   3.862  1.00  0.00     0.012 A 
BRANCH  25  28
HETATM   28  O   UNL     1      44.355 -21.904   3.690  1.00  0.00    -0.356 OA
HETATM   29  C   UNL     1      44.913 -22.053   4.989  1.00  0.00     0.210 C 
ENDBRANCH  25  28
ENDBRANCH   1  22
BRANCH   8  30
HETATM   30  C   UNL     1      39.900 -15.501   2.337  1.00  0.00     0.409 C 
HETATM   31  F   UNL     1      40.046 -14.814   1.181  1.00  0.00    -0.169 F 
HETATM   32  F   UNL     1      39.012 -16.502   2.076  1.00  0.00    -0.169 F 
HETATM   33  F   UNL     1      39.297 -14.700   3.239  1.00  0.00    -0.169 F 
ENDBRANCH   8  30
TORSDOF 6
ENDMDL
MODEL 3
REMARK VINA RESULT:      -8.5      2.400      6.678
REMARK  6 active torsions:
REMARK  status: ('A' for Active; 'I' for Inactive)
REMARK    1  A    between atoms: O_2  and  C_3 
REMARK    2  A    between atoms: C_6  and  C_7 
REMARK    3  A    between atoms: C_13  and  C_14 
REMARK       I    between atoms: C_14  and  N_15 
REMARK    4  A    between atoms: N_15  and  C_16 
REMARK    5  A    between atoms: C_16  and  C_17 
REMARK    6  A    between atoms: C_24  and  C_25 
ROOT
HETATM    1  C   UNL     1      42.876 -13.575   3.090  1.00  0.00     0.118 C 
HETATM    2  N   UNL     1      43.126 -14.696   4.005  1.00  0.00    -0.365 N 
HETATM    3  C   UNL     1      42.163 -15.140   4.855  1.00  0.00     0.138 A 
HETATM    4  N   UNL     1      40.999 -14.422   5.021  1.00  0.00    -0.240 N 
HETATM    5  N   UNL     1      40.125 -14.994   5.861  1.00  0.00    -0.181 NA
HETATM    6  C   UNL     1      40.791 -16.057   6.317  1.00  0.00     0.160 A 
HETATM    7  C   UNL     1      42.066 -16.216   5.719  1.00  0.00     0.096 A 
HETATM    8  C   UNL     1      40.714 -13.163   4.358  1.00  0.00     0.221 C 
HETATM    9  C   UNL     1      42.027 -12.538   3.845  1.00  0.00     0.066 C 
HETATM   10  H   UNL     1      44.096 -14.995   4.077  1.00  0.00     0.161 HD
ENDROOT
BRANCH   7  11
HETATM   11  C   UNL     1      42.997 -17.290   6.001  1.00  0.00     0.257 C 
HETATM   12  N   UNL     1      43.639 -17.810   4.903  1.00  0.00    -0.352 N 
HETATM   13  H   UNL     1      43.341 -17.507   3.987  1.00  0.00     0.163 HD
HETATM   14  O   UNL     1      43.163 -17.714   7.139  1.00  0.00    -0.267 OA
BRANCH  12  15
HETATM   15  C   UNL     1      44.579 -18.901   5.008  1.00  0.00     0.161 C 
BRANCH  15  16
HETATM   16  C   UNL     1      44.405 -19.932   3.919  1.00  0.00    -0.041 A 
HETATM   17  C   UNL     1      44.792 -21.260   4.155  1.00  0.00     0.009 A 
HETATM   18  C   UNL     1      44.584 -22.245   3.188  1.00  0.00     0.001 A 
HETATM   19  C   UNL     1      43.983 -21.917   1.975  1.00  0.00     0.000 A 
HETATM   20  C   UNL     1      43.581 -20.606   1.733  1.00  0.00     0.001 A 
HETATM   21  C   UNL     1      43.781 -19.620   2.702  1.00  0.00     0.009 A 
ENDBRANCH  15  16
ENDBRANCH  12  15
ENDBRANCH   7  11
BRANCH   1  22
HETATM   22  C   UNL     1      42.296 -14.049   1.758  1.00  0.00    -0.035 A 
HETATM   23  C   UNL     1      41.887 -13.138   0.768  1.00  0.00     0.012 A 
HETATM   24  C   UNL     1      41.367 -13.571  -0.459  1.00  0.00     0.037 A 
HETATM   25  C   UNL     1      41.267 -14.932  -0.739  1.00  0.00     0.068 A 
HETATM   26  C   UNL     1      41.706 -15.848   0.213  1.00  0.00     0.037 A 
HETATM   27  C   UNL     1      42.218 -15.416   1.441  1.00  0.00     0.012 A 
BRANCH  25  28
HETATM   28  O   UNL     1      40.782 -15.484  -1.891  1.00  0.00    -0.356 OA
HETATM   29  C   UNL     1      39.778 -14.752  -2.582  1.00  0.00     0.210 C 
ENDBRANCH  25  28
ENDBRANCH   1  22
BRANCH   8  30
HETATM   30  C   UNL     1      40.017 -12.173   5.269  1.00  0.00     0.409 C 
HETATM   31  F   UNL     1      40.570 -12.121   6.502  1.00  0.00    -0.169 F 
HETATM   32  F   UNL     1      40.136 -10.920   4.744  1.00  0.00    -0.169 F 
HETATM   33  F   UNL     1      38.693 -12.393   5.400  1.00  0.00    -0.169 F 
ENDBRANCH   8  30
TORSDOF 6
ENDMDL
MODEL 4
REMARK VINA RESULT:      -8.1      1.976      2.946
REMARK  6 active torsions:
REMARK  status: ('A' for Active; 'I' for Inactive)
REMARK    1  A    between atoms: O_2  and  C_3 
REMARK    2  A    between atoms: C_6  and  C_7 
REMARK    3  A    between atoms: C_13  and  C_14 
REMARK       I    between atoms: C_14  and  N_15 
REMARK    4  A    between atoms: N_15  and  C_16 
REMARK    5  A    between atoms: C_16  and  C_17 
REMARK    6  A    between atoms: C_24  and  C_25 
ROOT
HETATM    1  C   UNL     1      41.848 -17.115   5.048  1.00  0.00     0.118 C 
HETATM    2  N   UNL     1      41.305 -16.201   4.036  1.00  0.00    -0.365 N 
HETATM    3  C   UNL     1      41.983 -15.086   3.656  1.00  0.00     0.138 A 
HETATM    4  N   UNL     1      43.099 -14.680   4.354  1.00  0.00    -0.240 N 
HETATM    5  N   UNL     1      43.687 -13.588   3.849  1.00  0.00    -0.181 NA
HETATM    6  C   UNL     1      42.867 -13.230   2.858  1.00  0.00     0.160 A 
HETATM    7  C   UNL     1      41.789 -14.131   2.673  1.00  0.00     0.096 A 
HETATM    8  C   UNL     1      43.617 -15.357   5.530  1.00  0.00     0.221 C 
HETATM    9  C   UNL     1      42.522 -16.259   6.133  1.00  0.00     0.066 C 
HETATM   10  H   UNL     1      40.335 -16.364   3.772  1.00  0.00     0.161 HD
ENDROOT
BRANCH   7  11
HETATM   11  C   UNL     1      40.760 -14.011   1.660  1.00  0.00     0.257 C 
HETATM   12  N   UNL     1      39.478 -13.898   2.142  1.00  0.00    -0.352 N 
HETATM   13  H   UNL     1      39.326 -14.026   3.132  1.00  0.00     0.163 HD
HETATM   14  O   UNL     1      41.027 -14.042   0.465  1.00  0.00    -0.267 OA
BRANCH  12  15
HETATM   15  C   UNL     1      38.334 -13.795   1.267  1.00  0.00     0.161 C 
BRANCH  15  16
HETATM   16  C   UNL     1      37.667 -12.443   1.330  1.00  0.00    -0.041 A 
HETATM   17  C   UNL     1      36.556 -12.179   0.514  1.00  0.00     0.009 A 
HETATM   18  C   UNL     1      35.883 -10.959   0.598  1.00  0.00     0.001 A 
HETATM   19  C   UNL     1      36.308  -9.989   1.502  1.00  0.00     0.000 A 
HETATM   20  C   UNL     1      37.400 -10.242   2.330  1.00  0.00     0.001 A 
HETATM   21  C   UNL     1      38.070 -11.464   2.251  1.00  0.00     0.009 A 
ENDBRANCH  15  16
ENDBRANCH  12  15
ENDBRANCH   7  11
BRANCH   1  22
HETATM   22  C   UNL     1      42.732 -18.192   4.422  1.00  0.00    -0.035 A 
HETATM   23  C   UNL     1      43.586 -18.989   5.205  1.00  0.00     0.012 A 
HETATM   24  C   UNL     1      44.388 -19.987   4.634  1.00  0.00     0.037 A 
HETATM   25  C   UNL     1      44.338 -20.231   3.264  1.00  0.00     0.068 A 
HETATM   26  C   UNL     1      43.468 -19.479   2.479  1.00  0.00     0.037 A 
HETATM   27  C   UNL     1      42.673 -18.478   3.047  1.00  0.00     0.012 A 
BRANCH  25  28
HETATM   28  O   UNL     1      45.063 -21.169   2.585  1.00  0.00    -0.356 OA
HETATM   29  C   UNL     1      44.341 -22.042   1.726  1.00  0.00     0.210 C 
ENDBRANCH  25  28
ENDBRANCH   1  22
BRANCH   8  30
HETATM   30  C   UNL     1      44.101 -14.389   6.589  1.00  0.00     0.409 C 
HETATM   31  F   UNL     1      45.310 -13.856   6.294  1.00  0.00    -0.169 F 
HETATM   32  F   UNL     1      43.233 -13.341   6.669  1.00  0.00    -0.169 F 
HETATM   33  F   UNL     1      44.156 -14.918   7.828  1.00  0.00    -0.169 F 
ENDBRANCH   8  30
TORSDOF 6
ENDMDL
MODEL 5
REMARK VINA RESULT:      -8.0      3.808      7.533
REMARK  6 active torsions:
REMARK  status: ('A' for Active; 'I' for Inactive)
REMARK    1  A    between atoms: O_2  and  C_3 
REMARK    2  A    between atoms: C_6  and  C_7 
REMARK    3  A    between atoms: C_13  and  C_14 
REMARK       I    between atoms: C_14  and  N_15 
REMARK    4  A    between atoms: N_15  and  C_16 
REMARK    5  A    between atoms: C_16  and  C_17 
REMARK    6  A    between atoms: C_24  and  C_25 
ROOT
HETATM    1  C   UNL     1      43.449 -14.968   4.026  1.00  0.00     0.118 C 
HETATM    2  N   UNL     1      42.977 -13.713   4.624  1.00  0.00    -0.365 N 
HETATM    3  C   UNL     1      41.654 -13.408   4.673  1.00  0.00     0.138 A 
HETATM    4  N   UNL     1      40.739 -14.175   3.985  1.00  0.00    -0.240 N 
HETATM    5  N   UNL     1      39.469 -13.783   4.152  1.00  0.00    -0.181 NA
HETATM    6  C   UNL     1      39.585 -12.676   4.888  1.00  0.00     0.160 A 
HETATM    7  C   UNL     1      40.922 -12.392   5.262  1.00  0.00     0.096 A 
HETATM    8  C   UNL     1      41.088 -15.313   3.153  1.00  0.00     0.221 C 
HETATM    9  C   UNL     1      42.584 -15.246   2.785  1.00  0.00     0.066 C 
HETATM   10  H   UNL     1      43.702 -13.029   4.836  1.00  0.00     0.161 HD
ENDROOT
BRANCH   7  11
HETATM   11  C   UNL     1      41.346 -11.272   6.078  1.00  0.00     0.257 C 
HETATM   12  N   UNL     1      41.533 -11.557   7.409  1.00  0.00    -0.352 N 
HETATM   13  H   UNL     1      41.254 -12.467   7.746  1.00  0.00     0.163 HD
HETATM   14  O   UNL     1      41.489 -10.151   5.605  1.00  0.00    -0.267 OA
BRANCH  12  15
HETATM   15  C   UNL     1      41.929 -10.549   8.363  1.00  0.00     0.161 C 
BRANCH  15  16
HETATM   16  C   UNL     1      43.128 -10.957   9.184  1.00  0.00    -0.041 A 
HETATM   17  C   UNL     1      44.062 -11.856   8.648  1.00  0.00     0.009 A 
HETATM   18  C   UNL     1      45.211 -12.202   9.361  1.00  0.00     0.001 A 
HETATM   19  C   UNL     1      45.444 -11.649  10.618  1.00  0.00     0.000 A 
HETATM   20  C   UNL     1      44.533 -10.744  11.158  1.00  0.00     0.001 A 
HETATM   21  C   UNL     1      43.386 -10.392  10.442  1.00  0.00     0.009 A 
ENDBRANCH  15  16
ENDBRANCH  12  15
ENDBRANCH   7  11
BRANCH   1  22
HETATM   22  C   UNL     1      43.501 -16.099   5.052  1.00  0.00    -0.035 A 
HETATM   23  C   UNL     1      43.398 -15.846   6.431  1.00  0.00     0.012 A 
HETATM   24  C   UNL     1      43.432 -16.883   7.374  1.00  0.00     0.037 A 
HETATM   25  C   UNL     1      43.545 -18.207   6.957  1.00  0.00     0.068 A 
HETATM   26  C   UNL     1      43.606 -18.480   5.593  1.00  0.00     0.037 A 
HETATM   27  C   UNL     1      43.580 -17.444   4.654  1.00  0.00     0.012 A 
BRANCH  25  28
HETATM   28  O   UNL     1      43.589 -19.306   7.768  1.00  0.00    -0.356 OA
HETATM   29  C   UNL     1      43.674 -20.574   7.129  1.00  0.00     0.210 C 
ENDBRANCH  25  28
ENDBRANCH   1  22
BRANCH   8  30
HETATM   30  C   UNL     1      40.267 -15.375   1.882  1.00  0.00     0.409 C 
HETATM   31  F   UNL     1      40.225 -14.190   1.231  1.00  0.00    -0.169 F 
HETATM   32  F   UNL     1      40.840 -16.263   1.021  1.00  0.00    -0.169 F 
HETATM   33  F   UNL     1      39.003 -15.806   2.070  1.00  0.00    -0.169 F 
ENDBRANCH   8  30
TORSDOF 6
ENDMDL
MODEL 6
REMARK VINA RESULT:      -8.0      3.258      6.678
REMARK  6 active torsions:
REMARK  status: ('A' for Active; 'I' for Inactive)
REMARK    1  A    between atoms: O_2  and  C_3 
REMARK    2  A    between atoms: C_6  and  C_7 
REMARK    3  A    between atoms: C_13  and  C_14 
REMARK       I    between atoms: C_14  and  N_15 
REMARK    4  A    between atoms: N_15  and  C_16 
REMARK    5  A    between atoms: C_16  and  C_17 
REMARK    6  A    between atoms: C_24  and  C_25 
ROOT
HETATM    1  C   UNL     1      40.638 -15.232   5.370  1.00  0.00     0.118 C 
HETATM    2  N   UNL     1      40.817 -16.141   4.231  1.00  0.00    -0.365 N 
HETATM    3  C   UNL     1      40.961 -15.666   2.966  1.00  0.00     0.138 A 
HETATM    4  N   UNL     1      40.740 -14.333   2.695  1.00  0.00    -0.240 N 
HETATM    5  N   UNL     1      40.952 -13.998   1.415  1.00  0.00    -0.181 NA
HETATM    6  C   UNL     1      41.221 -15.169   0.833  1.00  0.00     0.160 A 
HETATM    7  C   UNL     1      41.257 -16.251   1.747  1.00  0.00     0.096 A 
HETATM    8  C   UNL     1      40.323 -13.358   3.685  1.00  0.00     0.221 C 
HETATM    9  C   UNL     1      39.726 -14.082   4.908  1.00  0.00     0.066 C 
HETATM   10  H   UNL     1      40.658 -17.127   4.428  1.00  0.00     0.161 HD
ENDROOT
BRANCH   7  11
HETATM   11  C   UNL     1      41.546 -17.629   1.405  1.00  0.00     0.257 C 
HETATM   12  N   UNL     1      42.805 -18.063   1.745  1.00  0.00    -0.352 N 
HETATM   13  H   UNL     1      43.468 -17.384   2.089  1.00  0.00     0.163 HD
HETATM   14  O   UNL     1      40.728 -18.332   0.823  1.00  0.00    -0.267 OA
BRANCH  12  15
HETATM   15  C   UNL     1      43.261 -19.401   1.452  1.00  0.00     0.161 C 
BRANCH  15  16
HETATM   16  C   UNL     1      43.880 -20.085   2.647  1.00  0.00    -0.041 A 
HETATM   17  C   UNL     1      44.064 -19.367   3.838  1.00  0.00     0.009 A 
HETATM   18  C   UNL     1      44.576 -19.992   4.976  1.00  0.00     0.001 A 
HETATM   19  C   UNL     1      44.907 -21.345   4.940  1.00  0.00     0.000 A 
HETATM   20  C   UNL     1      44.716 -22.074   3.769  1.00  0.00     0.001 A 
HETATM   21  C   UNL     1      44.197 -21.452   2.631  1.00  0.00     0.009 A 
ENDBRANCH  15  16
ENDBRANCH  12  15
ENDBRANCH   7  11
BRANCH   1  22
HETATM   22  C   UNL     1      41.977 -14.805   5.969  1.00  0.00    -0.035 A 
HETATM   23  C   UNL     1      42.967 -15.745   6.302  1.00  0.00     0.012 A 
HETATM   24  C   UNL     1      44.201 -15.354   6.840  1.00  0.00     0.037 A 
HETATM   25  C   UNL     1      44.487 -14.005   7.034  1.00  0.00     0.068 A 
HETATM   26  C   UNL     1      43.535 -13.057   6.670  1.00  0.00     0.037 A 
HETATM   27  C   UNL     1      42.300 -13.448   6.141  1.00  0.00     0.012 A 
BRANCH  25  28
HETATM   28  O   UNL     1      45.646 -13.492   7.545  1.00  0.00    -0.356 OA
HETATM   29  C   UNL     1      45.519 -12.485   8.541  1.00  0.00     0.210 C 
ENDBRANCH  25  28
ENDBRANCH   1  22
BRANCH   8  30
HETATM   30  C   UNL     1      39.301 -12.381   3.141  1.00  0.00     0.409 C 
HETATM   31  F   UNL     1      38.431 -12.962   2.283  1.00  0.00    -0.169 F 
HETATM   32  F   UNL     1      38.552 -11.895   4.171  1.00  0.00    -0.169 F 
HETATM   33  F   UNL     1      39.843 -11.303   2.539  1.00  0.00    -0.169 F 
ENDBRANCH   8  30
TORSDOF 6
ENDMDL
MODEL 7
REMARK VINA RESULT:      -8.0      3.642      8.601
REMARK  6 active torsions:
REMARK  status: ('A' for Active; 'I' for Inactive)
REMARK    1  A    between atoms: O_2  and  C_3 
REMARK    2  A    between atoms: C_6  and  C_7 
REMARK    3  A    between atoms: C_13  and  C_14 
REMARK       I    between atoms: C_14  and  N_15 
REMARK    4  A    between atoms: N_15  and  C_16 
REMARK    5  A    between atoms: C_16  and  C_17 
REMARK    6  A    between atoms: C_24  and  C_25 
ROOT
HETATM    1  C   UNL     1      39.232 -13.868  -1.596  1.00  0.00     0.118 C 
HETATM    2  N   UNL     1      39.733 -14.688  -0.487  1.00  0.00    -0.365 N 
HETATM    3  C   UNL     1      40.734 -14.247   0.320  1.00  0.00     0.138 A 
HETATM    4  N   UNL     1      41.439 -13.109  -0.006  1.00  0.00    -0.240 N 
HETATM    5  N   UNL     1      42.371 -12.772   0.895  1.00  0.00    -0.181 NA
HETATM    6  C   UNL     1      42.326 -13.778   1.772  1.00  0.00     0.160 A 
HETATM    7  C   UNL     1      41.315 -14.727   1.480  1.00  0.00     0.096 A 
HETATM    8  C   UNL     1      41.210 -12.323  -1.205  1.00  0.00     0.221 C 
HETATM    9  C   UNL     1      40.441 -13.168  -2.240  1.00  0.00     0.066 C 
HETATM   10  H   UNL     1      39.406 -15.652  -0.472  1.00  0.00     0.161 HD
ENDROOT
BRANCH   7  11
HETATM   11  C   UNL     1      41.020 -15.907   2.269  1.00  0.00     0.257 C 
HETATM   12  N   UNL     1      41.985 -16.254   3.184  1.00  0.00    -0.352 N 
HETATM   13  H   UNL     1      42.863 -15.756   3.165  1.00  0.00     0.163 HD
HETATM   14  O   UNL     1      39.994 -16.555   2.096  1.00  0.00    -0.267 OA
BRANCH  12  15
HETATM   15  C   UNL     1      41.857 -17.416   4.031  1.00  0.00     0.161 C 
BRANCH  15  16
HETATM   16  C   UNL     1      42.791 -18.534   3.637  1.00  0.00    -0.041 A 
HETATM   17  C   UNL     1      42.765 -19.031   2.325  1.00  0.00     0.009 A 
HETATM   18  C   UNL     1      43.660 -20.021   1.918  1.00  0.00     0.001 A 
HETATM   19  C   UNL     1      44.598 -20.525   2.816  1.00  0.00     0.000 A 
HETATM   20  C   UNL     1      44.647 -20.032   4.118  1.00  0.00     0.001 A 
HETATM   21  C   UNL     1      43.755 -19.036   4.525  1.00  0.00     0.009 A 
ENDBRANCH  15  16
ENDBRANCH  12  15
ENDBRANCH   7  11
BRANCH   1  22
HETATM   22  C   UNL     1      38.102 -12.941  -1.150  1.00  0.00    -0.035 A 
HETATM   23  C   UNL     1      37.483 -12.053  -2.047  1.00  0.00     0.012 A 
HETATM   24  C   UNL     1      36.437 -11.211  -1.643  1.00  0.00     0.037 A 
HETATM   25  C   UNL     1      35.964 -11.256  -0.334  1.00  0.00     0.068 A 
HETATM   26  C   UNL     1      36.538 -12.160   0.557  1.00  0.00     0.037 A 
HETATM   27  C   UNL     1      37.587 -12.994   0.156  1.00  0.00     0.012 A 
BRANCH  25  28
HETATM   28  O   UNL     1      34.956 -10.495   0.186  1.00  0.00    -0.356 OA
HETATM   29  C   UNL     1      35.126 -10.023   1.517  1.00  0.00     0.210 C 
ENDBRANCH  25  28
ENDBRANCH   1  22
BRANCH   8  30
HETATM   30  C   UNL     1      42.500 -11.829  -1.828  1.00  0.00     0.409 C 
HETATM   31  F   UNL     1      43.363 -12.833  -2.104  1.00  0.00    -0.169 F 
HETATM   32  F   UNL     1      42.220 -11.227  -3.019  1.00  0.00    -0.169 F 
HETATM   33  F   UNL     1      43.142 -10.902  -1.088  1.00  0.00    -0.169 F 
ENDBRANCH   8  30
TORSDOF 6
ENDMDL
MODEL 8
REMARK VINA RESULT:      -8.0      2.360      3.404
REMARK  6 active torsions:
REMARK  status: ('A' for Active; 'I' for Inactive)
REMARK    1  A    between atoms: O_2  and  C_3 
REMARK    2  A    between atoms: C_6  and  C_7 
REMARK    3  A    between atoms: C_13  and  C_14 
REMARK       I    between atoms: C_14  and  N_15 
REMARK    4  A    between atoms: N_15  and  C_16 
REMARK    5  A    between atoms: C_16  and  C_17 
REMARK    6  A    between atoms: C_24  and  C_25 
ROOT
HETATM    1  C   UNL     1      40.435 -16.407   2.486  1.00  0.00     0.118 C 
HETATM    2  N   UNL     1      40.383 -15.866   1.122  1.00  0.00    -0.365 N 
HETATM    3  C   UNL     1      41.048 -14.729   0.788  1.00  0.00     0.138 A 
HETATM    4  N   UNL     1      41.620 -13.947   1.768  1.00  0.00    -0.240 N 
HETATM    5  N   UNL     1      42.272 -12.877   1.294  1.00  0.00    -0.181 NA
HETATM    6  C   UNL     1      42.027 -12.924  -0.017  1.00  0.00     0.160 A 
HETATM    7  C   UNL     1      41.279 -14.065  -0.403  1.00  0.00     0.096 A 
HETATM    8  C   UNL     1      41.546 -14.234   3.189  1.00  0.00     0.221 C 
HETATM    9  C   UNL     1      40.390 -15.217   3.459  1.00  0.00     0.066 C 
HETATM   10  H   UNL     1      39.696 -16.296   0.506  1.00  0.00     0.161 HD
ENDROOT
BRANCH   7  11
HETATM   11  C   UNL     1      40.886 -14.390  -1.760  1.00  0.00     0.257 C 
HETATM   12  N   UNL     1      39.566 -14.740  -1.917  1.00  0.00    -0.352 N 
HETATM   13  H   UNL     1      39.002 -14.863  -1.089  1.00  0.00     0.163 HD
HETATM   14  O   UNL     1      41.693 -14.382  -2.681  1.00  0.00    -0.267 OA
BRANCH  12  15
HETATM   15  C   UNL     1      39.019 -15.116  -3.199  1.00  0.00     0.161 C 
BRANCH  15  16
HETATM   16  C   UNL     1      37.915 -14.197  -3.659  1.00  0.00    -0.041 A 
HETATM   17  C   UNL     1      36.792 -14.732  -4.308  1.00  0.00     0.009 A 
HETATM   18  C   UNL     1      35.728 -13.912  -4.688  1.00  0.00     0.001 A 
HETATM   19  C   UNL     1      35.770 -12.546  -4.419  1.00  0.00     0.000 A 
HETATM   20  C   UNL     1      36.872 -12.002  -3.761  1.00  0.00     0.001 A 
HETATM   21  C   UNL     1      37.934 -12.823  -3.375  1.00  0.00     0.009 A 
ENDBRANCH  15  16
ENDBRANCH  12  15
ENDBRANCH   7  11
BRANCH   1  22
HETATM   22  C   UNL     1      41.614 -17.360   2.673  1.00  0.00    -0.035 A 
HETATM   23  C   UNL     1      42.071 -17.722   3.953  1.00  0.00     0.012 A 
HETATM   24  C   UNL     1      43.144 -18.607   4.127  1.00  0.00     0.037 A 
HETATM   25  C   UNL     1      43.774 -19.175   3.022  1.00  0.00     0.068 A 
HETATM   26  C   UNL     1      43.307 -18.860   1.748  1.00  0.00     0.037 A 
HETATM   27  C   UNL     1      42.242 -17.972   1.574  1.00  0.00     0.012 A 
BRANCH  25  28
HETATM   28  O   UNL     1      44.824 -20.047   3.053  1.00  0.00    -0.356 OA
HETATM   29  C   UNL     1      45.121 -20.652   4.305  1.00  0.00     0.210 C 
ENDBRANCH  25  28
ENDBRANCH   1  22
BRANCH   8  30
HETATM   30  C   UNL     1      41.340 -12.985   4.021  1.00  0.00     0.409 C 
HETATM   31  F   UNL     1      40.446 -12.133   3.469  1.00  0.00    -0.169 F 
HETATM   32  F   UNL     1      40.831 -13.336   5.237  1.00  0.00    -0.169 F 
HETATM   33  F   UNL     1      42.477 -12.308   4.279  1.00  0.00    -0.169 F 
ENDBRANCH   8  30
TORSDOF 6
ENDMDL
MODEL 9
REMARK VINA RESULT:      -7.9      3.702      8.141
REMARK  6 active torsions:
REMARK  status: ('A' for Active; 'I' for Inactive)
REMARK    1  A    between atoms: O_2  and  C_3 
REMARK    2  A    between atoms: C_6  and  C_7 
REMARK    3  A    between atoms: C_13  and  C_14 
REMARK       I    between atoms: C_14  and  N_15 
REMARK    4  A    between atoms: N_15  and  C_16 
REMARK    5  A    between atoms: C_16  and  C_17 
REMARK    6  A    between atoms: C_24  and  C_25 
ROOT
HETATM    1  C   UNL     1      40.250 -15.282   2.870  1.00  0.00     0.118 C 
HETATM    2  N   UNL     1      40.453 -14.339   3.977  1.00  0.00    -0.365 N 
HETATM    3  C   UNL     1      41.604 -14.336   4.699  1.00  0.00     0.138 A 
HETATM    4  N   UNL     1      42.524 -15.350   4.543  1.00  0.00    -0.240 N 
HETATM    5  N   UNL     1      43.626 -15.201   5.291  1.00  0.00    -0.181 NA
HETATM    6  C   UNL     1      43.358 -14.114   6.017  1.00  0.00     0.160 A 
HETATM    7  C   UNL     1      42.116 -13.515   5.688  1.00  0.00     0.096 A 
HETATM    8  C   UNL     1      42.347 -16.483   3.653  1.00  0.00     0.221 C 
HETATM    9  C   UNL     1      40.855 -16.632   3.293  1.00  0.00     0.066 C 
HETATM   10  H   UNL     1      39.627 -13.819   4.266  1.00  0.00     0.161 HD
ENDROOT
BRANCH   7  11
HETATM   11  C   UNL     1      41.577 -12.314   6.294  1.00  0.00     0.257 C 
HETATM   12  N   UNL     1      42.357 -11.757   7.278  1.00  0.00    -0.352 N 
HETATM   13  H   UNL     1      43.169 -12.269   7.592  1.00  0.00     0.163 HD
HETATM   14  O   UNL     1      40.488 -11.861   5.964  1.00  0.00    -0.267 OA
BRANCH  12  15
HETATM   15  C   UNL     1      41.954 -10.573   8.000  1.00  0.00     0.161 C 
BRANCH  15  16
HETATM   16  C   UNL     1      42.598 -10.467   9.360  1.00  0.00    -0.041 A 
HETATM   17  C   UNL     1      43.804 -11.140   9.611  1.00  0.00     0.009 A 
HETATM   18  C   UNL     1      44.453 -11.008  10.840  1.00  0.00     0.001 A 
HETATM   19  C   UNL     1      43.907 -10.199  11.833  1.00  0.00     0.000 A 
HETATM   20  C   UNL     1      42.718  -9.513  11.594  1.00  0.00     0.001 A 
HETATM   21  C   UNL     1      42.072  -9.638  10.363  1.00  0.00     0.009 A 
ENDBRANCH  15  16
ENDBRANCH  12  15
ENDBRANCH   7  11
BRANCH   1  22
HETATM   22  C   UNL     1      40.766 -14.721   1.546  1.00  0.00    -0.035 A 
HETATM   23  C   UNL     1      41.263 -13.410   1.447  1.00  0.00     0.012 A 
HETATM   24  C   UNL     1      41.749 -12.897   0.235  1.00  0.00     0.037 A 
HETATM   25  C   UNL     1      41.774 -13.696  -0.905  1.00  0.00     0.068 A 
HETATM   26  C   UNL     1      41.324 -15.010  -0.816  1.00  0.00     0.037 A 
HETATM   27  C   UNL     1      40.832 -15.519   0.391  1.00  0.00     0.012 A 
BRANCH  25  28
HETATM   28  O   UNL     1      42.220 -13.322  -2.141  1.00  0.00    -0.356 OA
HETATM   29  C   UNL     1      41.646 -13.985  -3.260  1.00  0.00     0.210 C 
ENDBRANCH  25  28
ENDBRANCH   1  22
BRANCH   8  30
HETATM   30  C   UNL     1      42.842 -17.779   4.261  1.00  0.00     0.409 C 
HETATM   31  F   UNL     1      42.376 -17.977   5.516  1.00  0.00    -0.169 F 
HETATM   32  F   UNL     1      42.387 -18.826   3.516  1.00  0.00    -0.169 F 
HETATM   33  F   UNL     1      44.185 -17.895   4.278  1.00  0.00    -0.169 F 
ENDBRANCH   8  30
TORSDOF 6
ENDMDL
MODEL 10
REMARK VINA RESULT:      -7.7      4.486      8.315
REMARK  6 active torsions:
REMARK  status: ('A' for Active; 'I' for Inactive)
REMARK    1  A    between atoms: O_2  and  C_3 
REMARK    2  A    between atoms: C_6  and  C_7 
REMARK    3  A    between atoms: C_13  and  C_14 
REMARK       I    between atoms: C_14  and  N_15 
REMARK    4  A    between atoms: N_15  and  C_16 
REMARK    5  A    between atoms: C_16  and  C_17 
REMARK    6  A    between atoms: C_24  and  C_25 
ROOT
HETATM    1  C   UNL     1      43.664 -14.547   4.756  1.00  0.00     0.118 C 
HETATM    2  N   UNL     1      43.379 -13.356   5.565  1.00  0.00    -0.365 N 
HETATM    3  C   UNL     1      42.103 -12.949   5.797  1.00  0.00     0.138 A 
HETATM    4  N   UNL     1      41.056 -13.526   5.112  1.00  0.00    -0.240 N 
HETATM    5  N   UNL     1      39.852 -13.053   5.466  1.00  0.00    -0.181 NA
HETATM    6  C   UNL     1      40.148 -12.079   6.329  1.00  0.00     0.160 A 
HETATM    7  C   UNL     1      41.536 -11.970   6.592  1.00  0.00     0.096 A 
HETATM    8  C   UNL     1      41.209 -14.556   4.102  1.00  0.00     0.221 C 
HETATM    9  C   UNL     1      42.663 -14.566   3.588  1.00  0.00     0.066 C 
HETATM   10  H   UNL     1      44.185 -12.776   5.790  1.00  0.00     0.161 HD
ENDROOT
BRANCH   7  11
HETATM   11  C   UNL     1      42.144 -11.021   7.503  1.00  0.00     0.257 C 
HETATM   12  N   UNL     1      42.797 -11.578   8.577  1.00  0.00    -0.352 N 
HETATM   13  H   UNL     1      42.710 -12.573   8.725  1.00  0.00     0.163 HD
HETATM   14  O   UNL     1      42.045  -9.812   7.332  1.00  0.00    -0.267 OA
BRANCH  12  15
HETATM   15  C   UNL     1      43.435 -10.772   9.590  1.00  0.00     0.161 C 
BRANCH  15  16
HETATM   16  C   UNL     1      42.731 -10.841  10.923  1.00  0.00    -0.041 A 
HETATM   17  C   UNL     1      43.450 -10.587  12.102  1.00  0.00     0.009 A 
HETATM   18  C   UNL     1      42.810 -10.583  13.342  1.00  0.00     0.001 A 
HETATM   19  C   UNL     1      41.441 -10.827  13.421  1.00  0.00     0.000 A 
HETATM   20  C   UNL     1      40.711 -11.066  12.259  1.00  0.00     0.001 A 
HETATM   21  C   UNL     1      41.349 -11.064  11.016  1.00  0.00     0.009 A 
ENDBRANCH  15  16
ENDBRANCH  12  15
ENDBRANCH   7  11
BRANCH   1  22
HETATM   22  C   UNL     1      43.698 -15.816   5.608  1.00  0.00    -0.035 A 
HETATM   23  C   UNL     1      43.559 -15.766   7.006  1.00  0.00     0.012 A 
HETATM   24  C   UNL     1      43.577 -16.930   7.788  1.00  0.00     0.037 A 
HETATM   25  C   UNL     1      43.708 -18.179   7.186  1.00  0.00     0.068 A 
HETATM   26  C   UNL     1      43.804 -18.250   5.799  1.00  0.00     0.037 A 
HETATM   27  C   UNL     1      43.794 -17.088   5.019  1.00  0.00     0.012 A 
BRANCH  25  28
HETATM   28  O   UNL     1      43.738 -19.384   7.828  1.00  0.00    -0.356 OA
HETATM   29  C   UNL     1      43.552 -20.545   7.028  1.00  0.00     0.210 C 
ENDBRANCH  25  28
ENDBRANCH   1  22
BRANCH   8  30
HETATM   30  C   UNL     1      40.270 -14.362   2.929  1.00  0.00     0.409 C 
HETATM   31  F   UNL     1      39.053 -14.912   3.140  1.00  0.00    -0.169 F 
HETATM   32  F   UNL     1      40.058 -13.028   2.741  1.00  0.00    -0.169 F 
HETATM   33  F   UNL     1      40.755 -14.826   1.759  1.00  0.00    -0.169 F 
ENDBRANCH   8  30
TORSDOF 6
ENDMDL
