MODEL 1
REMARK VINA RESULT:      -9.7      0.000      0.000
REMARK  5 active torsions:
REMARK  status: ('A' for Active; 'I' for Inactive)
REMARK    1  A    between atoms: C_7  and  C_8 
REMARK    2  A    between atoms: C_8  and  O_9 
REMARK    3  A    between atoms: N_12  and  C_13 
REMARK    4  A    between atoms: C_13  and  C_14 
REMARK    5  A    between atoms: C_14  and  C_15 
ROOT
HETATM    1  C   UNL     1      41.121 -15.857   5.233  1.00  0.00     0.199 A 
HETATM    2  C   UNL     1      41.522 -17.359   5.162  1.00  0.00     0.269 A 
HETATM    3  O   UNL     1      40.779 -18.289   4.872  1.00  0.00    -0.269 OA
HETATM    4  N   UNL     1      42.850 -17.465   5.623  1.00  0.00    -0.314 N 
HETATM    5  C   UNL     1      43.345 -16.202   5.994  1.00  0.00     0.047 A 
HETATM    6  C   UNL     1      42.375 -15.218   5.768  1.00  0.00     0.017 A 
HETATM    7  C   UNL     1      44.580 -15.880   6.532  1.00  0.00     0.030 A 
HETATM    8  C   UNL     1      44.835 -14.543   6.852  1.00  0.00     0.002 A 
HETATM    9  C   UNL     1      43.861 -13.556   6.639  1.00  0.00     0.001 A 
HETATM   10  C   UNL     1      42.619 -13.889   6.097  1.00  0.00     0.013 A 
ENDROOT
BRANCH   1  11
HETATM   11  C   UNL     1      40.798 -15.202   3.911  1.00  0.00     0.025 A 
HETATM   12  C   UNL     1      40.104 -14.001   3.734  1.00  0.00     0.016 A 
HETATM   13  C   UNL     1      39.510 -13.053   4.716  1.00  0.00     0.069 C 
HETATM   14  N   UNL     1      40.026 -13.745   2.390  1.00  0.00    -0.359 N 
HETATM   15  H   UNL     1      39.577 -12.939   1.978  1.00  0.00     0.166 HD
HETATM   16  C   UNL     1      40.671 -14.717   1.672  1.00  0.00     0.043 A 
HETATM   17  C   UNL     1      41.164 -15.650   2.585  1.00  0.00     0.003 A 
HETATM   18  C   UNL     1      40.851 -14.826   0.287  1.00  0.00     0.030 A 
HETATM   19  C   UNL     1      41.881 -16.752   2.068  1.00  0.00     0.014 A 
HETATM   20  C   UNL     1      42.073 -16.877   0.685  1.00  0.00     0.001 A 
HETATM   21  C   UNL     1      41.564 -15.926  -0.192  1.00  0.00     0.002 A 
ENDBRANCH   1  11
BRANCH   1  22
HETATM   22  O   UNL     1      40.072 -15.732   6.193  1.00  0.00    -0.371 OA
HETATM   23  H   UNL     1      39.363 -15.271   5.708  1.00  0.00     0.212 HD
ENDBRANCH   1  22
BRANCH   4  24
HETATM   24  C   UNL     1      43.437 -18.727   6.028  1.00  0.00     0.137 C 
BRANCH  24  25
HETATM   25  C   UNL     1      44.724 -19.089   5.280  1.00  0.00     0.058 C 
BRANCH  25  26
HETATM   26  C   UNL     1      44.419 -20.054   4.156  1.00  0.00    -0.057 A 
HETATM   27  C   UNL     1      44.781 -21.404   4.271  1.00  0.00     0.007 A 
HETATM   28  C   UNL     1      44.571 -22.287   3.210  1.00  0.00     0.001 A 
HETATM   29  C   UNL     1      43.995 -21.829   2.026  1.00  0.00     0.000 A 
HETATM   30  C   UNL     1      43.626 -20.490   1.905  1.00  0.00     0.001 A 
HETATM   31  C   UNL     1      43.839 -19.605   2.964  1.00  0.00     0.007 A 
ENDBRANCH  25  26
ENDBRANCH  24  25
ENDBRANCH   4  24
TORSDOF 5
ENDMDL
MODEL 2
REMARK VINA RESULT:      -9.3      1.267      2.144
REMARK  5 active torsions:
REMARK  status: ('A' for Active; 'I' for Inactive)
REMARK    1  A    between atoms: C_7  and  C_8 
REMARK    2  A    between atoms: C_8  and  O_9 
REMARK    3  A    between atoms: N_12  and  C_13 
REMARK    4  A    between atoms: C_13  and  C_14 
REMARK    5  A    between atoms: C_14  and  C_15 
ROOT
HETATM    1  C   UNL     1      41.537 -16.191   4.148  1.00  0.00     0.199 A 
HETATM    2  C   UNL     1      42.129 -17.587   4.491  1.00  0.00     0.269 A 
HETATM    3  O   UNL     1      41.650 -18.670   4.176  1.00  0.00    -0.269 OA
HETATM    4  N   UNL     1      43.233 -17.381   5.343  1.00  0.00    -0.314 N 
HETATM    5  C   UNL     1      43.411 -16.009   5.596  1.00  0.00     0.047 A 
HETATM    6  C   UNL     1      42.451 -15.262   4.903  1.00  0.00     0.017 A 
HETATM    7  C   UNL     1      44.348 -15.394   6.410  1.00  0.00     0.030 A 
HETATM    8  C   UNL     1      44.309 -14.000   6.527  1.00  0.00     0.002 A 
HETATM    9  C   UNL     1      43.339 -13.250   5.845  1.00  0.00     0.001 A 
HETATM   10  C   UNL     1      42.400 -13.879   5.029  1.00  0.00     0.013 A 
ENDROOT
BRANCH   1  11
HETATM   11  C   UNL     1      41.585 -15.799   2.690  1.00  0.00     0.025 A 
HETATM   12  C   UNL     1      42.636 -16.050   1.803  1.00  0.00     0.016 A 
HETATM   13  C   UNL     1      43.943 -16.737   1.994  1.00  0.00     0.069 C 
HETATM   14  N   UNL     1      42.292 -15.548   0.576  1.00  0.00    -0.359 N 
HETATM   15  H   UNL     1      42.868 -15.592  -0.253  1.00  0.00     0.166 HD
HETATM   16  C   UNL     1      41.037 -14.999   0.610  1.00  0.00     0.043 A 
HETATM   17  C   UNL     1      40.561 -15.132   1.916  1.00  0.00     0.003 A 
HETATM   18  C   UNL     1      40.298 -14.406  -0.421  1.00  0.00     0.030 A 
HETATM   19  C   UNL     1      39.266 -14.639   2.191  1.00  0.00     0.014 A 
HETATM   20  C   UNL     1      38.512 -14.042   1.172  1.00  0.00     0.001 A 
HETATM   21  C   UNL     1      39.023 -13.928  -0.117  1.00  0.00     0.002 A 
ENDBRANCH   1  11
BRANCH   1  22
HETATM   22  O   UNL     1      40.223 -16.126   4.704  1.00  0.00    -0.371 OA
HETATM   23  H   UNL     1      39.675 -16.627   4.072  1.00  0.00     0.212 HD
ENDBRANCH   1  22
BRANCH   4  24
HETATM   24  C   UNL     1      43.813 -18.444   6.142  1.00  0.00     0.137 C 
BRANCH  24  25
HETATM   25  C   UNL     1      45.124 -19.005   5.583  1.00  0.00     0.058 C 
BRANCH  25  26
HETATM   26  C   UNL     1      44.844 -20.194   4.692  1.00  0.00    -0.057 A 
HETATM   27  C   UNL     1      44.821 -21.489   5.233  1.00  0.00     0.007 A 
HETATM   28  C   UNL     1      44.638 -22.598   4.406  1.00  0.00     0.001 A 
HETATM   29  C   UNL     1      44.472 -22.425   3.033  1.00  0.00     0.000 A 
HETATM   30  C   UNL     1      44.486 -21.142   2.487  1.00  0.00     0.001 A 
HETATM   31  C   UNL     1      44.673 -20.031   3.312  1.00  0.00     0.007 A 
ENDBRANCH  25  26
ENDBRANCH  24  25
ENDBRANCH   4  24
TORSDOF 5
ENDMDL
MODEL 3
REMARK VINA RESULT:      -9.3      2.176      3.344
REMARK  5 active torsions:
REMARK  status: ('A' for Active; 'I' for Inactive)
REMARK    1  A    between atoms: C_7  and  C_8 
REMARK    2  A    between atoms: C_8  and  O_9 
REMARK    3  A    between atoms: N_12  and  C_13 
REMARK    4  A    between atoms: C_13  and  C_14 
REMARK    5  A    between atoms: C_14  and  C_15 
ROOT
HETATM    1  C   UNL     1      40.819 -15.988   2.397  1.00  0.00     0.199 A 
HETATM    2  C   UNL     1      42.032 -16.578   1.621  1.00  0.00     0.269 A 
HETATM    3  O   UNL     1      42.101 -16.737   0.408  1.00  0.00    -0.269 OA
HETATM    4  N   UNL     1      42.970 -17.021   2.575  1.00  0.00    -0.314 N 
HETATM    5  C   UNL     1      42.493 -16.791   3.878  1.00  0.00     0.047 A 
HETATM    6  C   UNL     1      41.240 -16.170   3.831  1.00  0.00     0.017 A 
HETATM    7  C   UNL     1      43.088 -17.116   5.086  1.00  0.00     0.030 A 
HETATM    8  C   UNL     1      42.399 -16.811   6.265  1.00  0.00     0.002 A 
HETATM    9  C   UNL     1      41.137 -16.200   6.221  1.00  0.00     0.001 A 
HETATM   10  C   UNL     1      40.546 -15.878   5.000  1.00  0.00     0.013 A 
ENDROOT
BRANCH   1  11
HETATM   11  C   UNL     1      40.554 -14.517   2.177  1.00  0.00     0.025 A 
HETATM   12  C   UNL     1      41.449 -13.472   2.428  1.00  0.00     0.016 A 
HETATM   13  C   UNL     1      42.844 -13.473   2.947  1.00  0.00     0.069 C 
HETATM   14  N   UNL     1      40.837 -12.293   2.092  1.00  0.00    -0.359 N 
HETATM   15  H   UNL     1      41.256 -11.378   2.171  1.00  0.00     0.166 HD
HETATM   16  C   UNL     1      39.579 -12.522   1.598  1.00  0.00     0.043 A 
HETATM   17  C   UNL     1      39.362 -13.900   1.639  1.00  0.00     0.003 A 
HETATM   18  C   UNL     1      38.633 -11.608   1.118  1.00  0.00     0.030 A 
HETATM   19  C   UNL     1      38.119 -14.379   1.165  1.00  0.00     0.014 A 
HETATM   20  C   UNL     1      37.161 -13.479   0.680  1.00  0.00     0.001 A 
HETATM   21  C   UNL     1      37.416 -12.112   0.658  1.00  0.00     0.002 A 
ENDBRANCH   1  11
BRANCH   1  22
HETATM   22  O   UNL     1      39.684 -16.810   2.122  1.00  0.00    -0.371 OA
HETATM   23  H   UNL     1      38.986 -16.446   2.696  1.00  0.00     0.212 HD
ENDBRANCH   1  22
BRANCH   4  24
HETATM   24  C   UNL     1      44.049 -17.931   2.245  1.00  0.00     0.137 C 
BRANCH  24  25
HETATM   25  C   UNL     1      43.586 -19.329   1.826  1.00  0.00     0.058 C 
BRANCH  25  26
HETATM   26  C   UNL     1      44.109 -20.364   2.796  1.00  0.00    -0.057 A 
HETATM   27  C   UNL     1      44.197 -21.710   2.409  1.00  0.00     0.007 A 
HETATM   28  C   UNL     1      44.608 -22.684   3.321  1.00  0.00     0.001 A 
HETATM   29  C   UNL     1      44.939 -22.322   4.625  1.00  0.00     0.000 A 
HETATM   30  C   UNL     1      44.862 -20.986   5.017  1.00  0.00     0.001 A 
HETATM   31  C   UNL     1      44.447 -20.011   4.108  1.00  0.00     0.007 A 
ENDBRANCH  25  26
ENDBRANCH  24  25
ENDBRANCH   4  24
TORSDOF 5
ENDMDL
MODEL 4
REMARK VINA RESULT:      -9.2      2.499      3.747
REMARK  5 active torsions:
REMARK  status: ('A' for Active; 'I' for Inactive)
REMARK    1  A    between atoms: C_7  and  C_8 
REMARK    2  A    between atoms: C_8  and  O_9 
REMARK    3  A    between atoms: N_12  and  C_13 
REMARK    4  A    between atoms: C_13  and  C_14 
REMARK    5  A    between atoms: C_14  and  C_15 
ROOT
HETATM    1  C   UNL     1      40.205 -15.148   1.337  1.00  0.00     0.199 A 
HETATM    2  C   UNL     1      41.323 -16.191   1.052  1.00  0.00     0.269 A 
HETATM    3  O   UNL     1      41.202 -17.213   0.387  1.00  0.00    -0.269 OA
HETATM    4  N   UNL     1      42.453 -15.818   1.808  1.00  0.00    -0.314 N 
HETATM    5  C   UNL     1      42.184 -14.658   2.556  1.00  0.00     0.047 A 
HETATM    6  C   UNL     1      40.882 -14.211   2.303  1.00  0.00     0.017 A 
HETATM    7  C   UNL     1      43.007 -13.996   3.452  1.00  0.00     0.030 A 
HETATM    8  C   UNL     1      42.501 -12.867   4.106  1.00  0.00     0.002 A 
HETATM    9  C   UNL     1      41.191 -12.425   3.864  1.00  0.00     0.001 A 
HETATM   10  C   UNL     1      40.370 -13.099   2.961  1.00  0.00     0.013 A 
ENDROOT
BRANCH   1  11
HETATM   11  C   UNL     1      39.750 -14.334   0.148  1.00  0.00     0.025 A 
HETATM   12  C   UNL     1      38.447 -13.891  -0.098  1.00  0.00     0.016 A 
HETATM   13  C   UNL     1      37.187 -14.060   0.677  1.00  0.00     0.069 C 
HETATM   14  N   UNL     1      38.449 -13.180  -1.269  1.00  0.00    -0.359 N 
HETATM   15  H   UNL     1      37.639 -12.743  -1.685  1.00  0.00     0.166 HD
HETATM   16  C   UNL     1      39.713 -13.110  -1.792  1.00  0.00     0.043 A 
HETATM   17  C   UNL     1      40.556 -13.823  -0.939  1.00  0.00     0.003 A 
HETATM   18  C   UNL     1      40.160 -12.463  -2.952  1.00  0.00     0.030 A 
HETATM   19  C   UNL     1      41.927 -13.882  -1.277  1.00  0.00     0.014 A 
HETATM   20  C   UNL     1      42.392 -13.241  -2.432  1.00  0.00     0.001 A 
HETATM   21  C   UNL     1      41.519 -12.541  -3.258  1.00  0.00     0.002 A 
ENDBRANCH   1  11
BRANCH   1  22
HETATM   22  O   UNL     1      39.135 -15.826   1.996  1.00  0.00    -0.371 OA
HETATM   23  H   UNL     1      39.311 -15.679   2.943  1.00  0.00     0.212 HD
ENDBRANCH   1  22
BRANCH   4  24
HETATM   24  C   UNL     1      43.551 -16.727   2.071  1.00  0.00     0.137 C 
BRANCH  24  25
HETATM   25  C   UNL     1      43.422 -17.505   3.384  1.00  0.00     0.058 C 
BRANCH  25  26
HETATM   26  C   UNL     1      43.712 -18.971   3.152  1.00  0.00    -0.057 A 
HETATM   27  C   UNL     1      44.492 -19.687   4.071  1.00  0.00     0.007 A 
HETATM   28  C   UNL     1      44.827 -21.021   3.828  1.00  0.00     0.001 A 
HETATM   29  C   UNL     1      44.382 -21.650   2.667  1.00  0.00     0.000 A 
HETATM   30  C   UNL     1      43.600 -20.949   1.751  1.00  0.00     0.001 A 
HETATM   31  C   UNL     1      43.267 -19.614   1.991  1.00  0.00     0.007 A 
ENDBRANCH  25  26
ENDBRANCH  24  25
ENDBRANCH   4  24
TORSDOF 5
ENDMDL
MODEL 5
REMARK VINA RESULT:      -8.8      2.179      4.662
REMARK  5 active torsions:
REMARK  status: ('A' for Active; 'I' for Inactive)
REMARK    1  A    between atoms: C_7  and  C_8 
REMARK    2  A    between atoms: C_8  and  O_9 
REMARK    3  A    between atoms: N_12  and  C_13 
REMARK    4  A    between atoms: C_13  and  C_14 
REMARK    5  A    between atoms: C_14  and  C_15 
ROOT
HETATM    1  C   UNL     1      42.641 -14.835   3.312  1.00  0.00     0.199 A 
HETATM    2  C   UNL     1      43.413 -16.183   3.387  1.00  0.00     0.269 A 
HETATM    3  O   UNL     1      44.178 -16.526   4.282  1.00  0.00    -0.269 OA
HETATM    4  N   UNL     1      43.181 -16.871   2.180  1.00  0.00    -0.314 N 
HETATM    5  C   UNL     1      42.355 -16.113   1.331  1.00  0.00     0.047 A 
HETATM    6  C   UNL     1      41.993 -14.913   1.955  1.00  0.00     0.017 A 
HETATM    7  C   UNL     1      41.927 -16.410   0.047  1.00  0.00     0.030 A 
HETATM    8  C   UNL     1      41.126 -15.475  -0.616  1.00  0.00     0.002 A 
HETATM    9  C   UNL     1      40.773 -14.266   0.001  1.00  0.00     0.001 A 
HETATM   10  C   UNL     1      41.209 -13.975   1.294  1.00  0.00     0.013 A 
ENDROOT
BRANCH   1  11
HETATM   11  C   UNL     1      41.545 -14.649   4.336  1.00  0.00     0.025 A 
HETATM   12  C   UNL     1      40.836 -15.669   4.977  1.00  0.00     0.016 A 
HETATM   13  C   UNL     1      40.928 -17.151   4.871  1.00  0.00     0.069 C 
HETATM   14  N   UNL     1      39.938 -15.092   5.836  1.00  0.00    -0.359 N 
HETATM   15  H   UNL     1      39.295 -15.596   6.430  1.00  0.00     0.166 HD
HETATM   16  C   UNL     1      40.049 -13.726   5.810  1.00  0.00     0.043 A 
HETATM   17  C   UNL     1      41.040 -13.408   4.880  1.00  0.00     0.003 A 
HETATM   18  C   UNL     1      39.346 -12.764   6.545  1.00  0.00     0.030 A 
HETATM   19  C   UNL     1      41.337 -12.040   4.687  1.00  0.00     0.014 A 
HETATM   20  C   UNL     1      40.645 -11.063   5.414  1.00  0.00     0.001 A 
HETATM   21  C   UNL     1      39.663 -11.422   6.331  1.00  0.00     0.002 A 
ENDBRANCH   1  11
BRANCH   1  22
HETATM   22  O   UNL     1      43.604 -13.780   3.324  1.00  0.00    -0.371 OA
HETATM   23  H   UNL     1      43.154 -13.045   2.870  1.00  0.00     0.212 HD
ENDBRANCH   1  22
BRANCH   4  24
HETATM   24  C   UNL     1      44.002 -17.984   1.744  1.00  0.00     0.137 C 
BRANCH  24  25
HETATM   25  C   UNL     1      43.276 -19.332   1.724  1.00  0.00     0.058 C 
BRANCH  25  26
HETATM   26  C   UNL     1      43.918 -20.284   2.708  1.00  0.00    -0.057 A 
HETATM   27  C   UNL     1      44.079 -21.637   2.373  1.00  0.00     0.007 A 
HETATM   28  C   UNL     1      44.602 -22.539   3.302  1.00  0.00     0.001 A 
HETATM   29  C   UNL     1      44.972 -22.097   4.570  1.00  0.00     0.000 A 
HETATM   30  C   UNL     1      44.822 -20.753   4.910  1.00  0.00     0.001 A 
HETATM   31  C   UNL     1      44.295 -19.850   3.984  1.00  0.00     0.007 A 
ENDBRANCH  25  26
ENDBRANCH  24  25
ENDBRANCH   4  24
TORSDOF 5
ENDMDL
MODEL 6
REMARK VINA RESULT:      -8.8      2.112      3.412
REMARK  5 active torsions:
REMARK  status: ('A' for Active; 'I' for Inactive)
REMARK    1  A    between atoms: C_7  and  C_8 
REMARK    2  A    between atoms: C_8  and  O_9 
REMARK    3  A    between atoms: N_12  and  C_13 
REMARK    4  A    between atoms: C_13  and  C_14 
REMARK    5  A    between atoms: C_14  and  C_15 
ROOT
HETATM    1  C   UNL     1      40.030 -15.339   2.139  1.00  0.00     0.199 A 
HETATM    2  C   UNL     1      40.959 -16.586   2.159  1.00  0.00     0.269 A 
HETATM    3  O   UNL     1      41.114 -17.383   1.241  1.00  0.00    -0.269 OA
HETATM    4  N   UNL     1      41.476 -16.707   3.465  1.00  0.00    -0.314 N 
HETATM    5  C   UNL     1      40.977 -15.683   4.289  1.00  0.00     0.047 A 
HETATM    6  C   UNL     1      40.135 -14.840   3.555  1.00  0.00     0.017 A 
HETATM    7  C   UNL     1      41.204 -15.471   5.639  1.00  0.00     0.030 A 
HETATM    8  C   UNL     1      40.565 -14.390   6.256  1.00  0.00     0.002 A 
HETATM    9  C   UNL     1      39.710 -13.551   5.526  1.00  0.00     0.001 A 
HETATM   10  C   UNL     1      39.486 -13.773   4.168  1.00  0.00     0.013 A 
ENDROOT
BRANCH   1  11
HETATM   11  C   UNL     1      40.460 -14.217   1.222  1.00  0.00     0.025 A 
HETATM   12  C   UNL     1      41.640 -13.474   1.326  1.00  0.00     0.016 A 
HETATM   13  C   UNL     1      42.768 -13.547   2.296  1.00  0.00     0.069 C 
HETATM   14  N   UNL     1      41.664 -12.561   0.305  1.00  0.00    -0.359 N 
HETATM   15  H   UNL     1      42.404 -11.894   0.140  1.00  0.00     0.166 HD
HETATM   16  C   UNL     1      40.556 -12.693  -0.490  1.00  0.00     0.043 A 
HETATM   17  C   UNL     1      39.775 -13.715   0.051  1.00  0.00     0.003 A 
HETATM   18  C   UNL     1      40.203 -11.984  -1.645  1.00  0.00     0.030 A 
HETATM   19  C   UNL     1      38.571 -14.038  -0.614  1.00  0.00     0.014 A 
HETATM   20  C   UNL     1      38.202 -13.340  -1.772  1.00  0.00     0.001 A 
HETATM   21  C   UNL     1      39.008 -12.327  -2.279  1.00  0.00     0.002 A 
ENDBRANCH   1  11
BRANCH   1  22
HETATM   22  O   UNL     1      38.699 -15.791   1.886  1.00  0.00    -0.371 OA
HETATM   23  H   UNL     1      38.468 -16.300   2.684  1.00  0.00     0.212 HD
ENDBRANCH   1  22
BRANCH   4  24
HETATM   24  C   UNL     1      42.088 -17.927   3.952  1.00  0.00     0.137 C 
BRANCH  24  25
HETATM   25  C   UNL     1      43.580 -18.055   3.628  1.00  0.00     0.058 C 
BRANCH  25  26
HETATM   26  C   UNL     1      43.918 -19.488   3.286  1.00  0.00    -0.057 A 
HETATM   27  C   UNL     1      43.510 -20.034   2.060  1.00  0.00     0.007 A 
HETATM   28  C   UNL     1      43.752 -21.377   1.766  1.00  0.00     0.001 A 
HETATM   29  C   UNL     1      44.408 -22.185   2.693  1.00  0.00     0.000 A 
HETATM   30  C   UNL     1      44.824 -21.651   3.912  1.00  0.00     0.001 A 
HETATM   31  C   UNL     1      44.579 -20.309   4.208  1.00  0.00     0.007 A 
ENDBRANCH  25  26
ENDBRANCH  24  25
ENDBRANCH   4  24
TORSDOF 5
ENDMDL
MODEL 7
REMARK VINA RESULT:      -8.6      1.952      4.054
REMARK  5 active torsions:
REMARK  status: ('A' for Active; 'I' for Inactive)
REMARK    1  A    between atoms: C_7  and  C_8 
REMARK    2  A    between atoms: C_8  and  O_9 
REMARK    3  A    between atoms: N_12  and  C_13 
REMARK    4  A    between atoms: C_13  and  C_14 
REMARK    5  A    between atoms: C_14  and  C_15 
ROOT
HETATM    1  C   UNL     1      43.045 -14.774   4.816  1.00  0.00     0.199 A 
HETATM    2  C   UNL     1      43.677 -15.842   5.755  1.00  0.00     0.269 A 
HETATM    3  O   UNL     1      44.034 -15.660   6.913  1.00  0.00    -0.269 OA
HETATM    4  N   UNL     1      43.888 -17.006   4.991  1.00  0.00    -0.314 N 
HETATM    5  C   UNL     1      43.472 -16.806   3.662  1.00  0.00     0.047 A 
HETATM    6  C   UNL     1      42.952 -15.516   3.509  1.00  0.00     0.017 A 
HETATM    7  C   UNL     1      43.547 -17.681   2.590  1.00  0.00     0.030 A 
HETATM    8  C   UNL     1      43.093 -17.239   1.343  1.00  0.00     0.002 A 
HETATM    9  C   UNL     1      42.583 -15.942   1.183  1.00  0.00     0.001 A 
HETATM   10  C   UNL     1      42.513 -15.068   2.268  1.00  0.00     0.013 A 
ENDROOT
BRANCH   1  11
HETATM   11  C   UNL     1      41.653 -14.317   5.186  1.00  0.00     0.025 A 
HETATM   12  C   UNL     1      40.656 -15.104   5.771  1.00  0.00     0.016 A 
HETATM   13  C   UNL     1      40.647 -16.533   6.189  1.00  0.00     0.069 C 
HETATM   14  N   UNL     1      39.546 -14.321   5.956  1.00  0.00    -0.359 N 
HETATM   15  H   UNL     1      38.676 -14.634   6.363  1.00  0.00     0.166 HD
HETATM   16  C   UNL     1      39.784 -13.036   5.545  1.00  0.00     0.043 A 
HETATM   17  C   UNL     1      41.088 -12.993   5.052  1.00  0.00     0.003 A 
HETATM   18  C   UNL     1      38.937 -11.922   5.581  1.00  0.00     0.030 A 
HETATM   19  C   UNL     1      41.563 -11.751   4.572  1.00  0.00     0.014 A 
HETATM   20  C   UNL     1      40.731 -10.624   4.602  1.00  0.00     0.001 A 
HETATM   21  C   UNL     1      39.435 -10.710   5.100  1.00  0.00     0.002 A 
ENDBRANCH   1  11
BRANCH   1  22
HETATM   22  O   UNL     1      43.975 -13.698   4.692  1.00  0.00    -0.371 OA
HETATM   23  H   UNL     1      43.440 -12.964   4.337  1.00  0.00     0.212 HD
ENDBRANCH   1  22
BRANCH   4  24
HETATM   24  C   UNL     1      44.767 -18.075   5.422  1.00  0.00     0.137 C 
BRANCH  24  25
HETATM   25  C   UNL     1      44.037 -19.323   5.929  1.00  0.00     0.058 C 
BRANCH  25  26
HETATM   26  C   UNL     1      44.343 -20.505   5.036  1.00  0.00    -0.057 A 
HETATM   27  C   UNL     1      44.370 -20.345   3.643  1.00  0.00     0.007 A 
HETATM   28  C   UNL     1      44.577 -21.444   2.808  1.00  0.00     0.001 A 
HETATM   29  C   UNL     1      44.763 -22.711   3.357  1.00  0.00     0.000 A 
HETATM   30  C   UNL     1      44.745 -22.879   4.741  1.00  0.00     0.001 A 
HETATM   31  C   UNL     1      44.534 -21.781   5.578  1.00  0.00     0.007 A 
ENDBRANCH  25  26
ENDBRANCH  24  25
ENDBRANCH   4  24
TORSDOF 5
ENDMDL
MODEL 8
REMARK VINA RESULT:      -8.5      2.534      4.398
REMARK  5 active torsions:
REMARK  status: ('A' for Active; 'I' for Inactive)
REMARK    1  A    between atoms: C_7  and  C_8 
REMARK    2  A    between atoms: C_8  and  O_9 
REMARK    3  A    between atoms: N_12  and  C_13 
REMARK    4  A    between atoms: C_13  and  C_14 
REMARK    5  A    between atoms: C_14  and  C_15 
ROOT
HETATM    1  C   UNL     1      40.296 -15.162   1.344  1.00  0.00     0.199 A 
HETATM    2  C   UNL     1      41.390 -16.208   0.983  1.00  0.00     0.269 A 
HETATM    3  O   UNL     1      41.237 -17.193   0.270  1.00  0.00    -0.269 OA
HETATM    4  N   UNL     1      42.540 -15.894   1.734  1.00  0.00    -0.314 N 
HETATM    5  C   UNL     1      42.307 -14.769   2.545  1.00  0.00     0.047 A 
HETATM    6  C   UNL     1      41.009 -14.288   2.341  1.00  0.00     0.017 A 
HETATM    7  C   UNL     1      43.160 -14.167   3.456  1.00  0.00     0.030 A 
HETATM    8  C   UNL     1      42.688 -13.065   4.176  1.00  0.00     0.002 A 
HETATM    9  C   UNL     1      41.382 -12.588   3.984  1.00  0.00     0.001 A 
HETATM   10  C   UNL     1      40.531 -13.201   3.065  1.00  0.00     0.013 A 
ENDROOT
BRANCH   1  11
HETATM   11  C   UNL     1      39.833 -14.281   0.207  1.00  0.00     0.025 A 
HETATM   12  C   UNL     1      38.522 -13.850  -0.020  1.00  0.00     0.016 A 
HETATM   13  C   UNL     1      37.261 -14.096   0.732  1.00  0.00     0.069 C 
HETATM   14  N   UNL     1      38.517 -13.064  -1.141  1.00  0.00    -0.359 N 
HETATM   15  H   UNL     1      37.701 -12.617  -1.534  1.00  0.00     0.166 HD
HETATM   16  C   UNL     1      39.783 -12.933  -1.649  1.00  0.00     0.043 A 
HETATM   17  C   UNL     1      40.635 -13.684  -0.838  1.00  0.00     0.003 A 
HETATM   18  C   UNL     1      40.224 -12.203  -2.760  1.00  0.00     0.030 A 
HETATM   19  C   UNL     1      42.009 -13.693  -1.167  1.00  0.00     0.014 A 
HETATM   20  C   UNL     1      42.469 -12.968  -2.274  1.00  0.00     0.001 A 
HETATM   21  C   UNL     1      41.587 -12.233  -3.059  1.00  0.00     0.002 A 
ENDBRANCH   1  11
BRANCH   1  22
HETATM   22  O   UNL     1      39.227 -15.855   1.990  1.00  0.00    -0.371 OA
HETATM   23  H   UNL     1      39.366 -16.787   1.740  1.00  0.00     0.212 HD
ENDBRANCH   1  22
BRANCH   4  24
HETATM   24  C   UNL     1      43.627 -16.833   1.928  1.00  0.00     0.137 C 
BRANCH  24  25
HETATM   25  C   UNL     1      43.237 -18.093   2.707  1.00  0.00     0.058 C 
BRANCH  25  26
HETATM   26  C   UNL     1      42.835 -17.729   4.119  1.00  0.00    -0.057 A 
HETATM   27  C   UNL     1      41.478 -17.624   4.458  1.00  0.00     0.007 A 
HETATM   28  C   UNL     1      41.097 -17.217   5.738  1.00  0.00     0.001 A 
HETATM   29  C   UNL     1      42.069 -16.914   6.690  1.00  0.00     0.000 A 
HETATM   30  C   UNL     1      43.420 -17.022   6.365  1.00  0.00     0.001 A 
HETATM   31  C   UNL     1      43.802 -17.425   5.084  1.00  0.00     0.007 A 
ENDBRANCH  25  26
ENDBRANCH  24  25
ENDBRANCH   4  24
TORSDOF 5
ENDMDL
MODEL 9
REMARK VINA RESULT:      -8.1      1.823      3.174
REMARK  5 active torsions:
REMARK  status: ('A' for Active; 'I' for Inactive)
REMARK    1  A    between atoms: C_7  and  C_8 
REMARK    2  A    between atoms: C_8  and  O_9 
REMARK    3  A    between atoms: N_12  and  C_13 
REMARK    4  A    between atoms: C_13  and  C_14 
REMARK    5  A    between atoms: C_14  and  C_15 
ROOT
HETATM    1  C   UNL     1      40.647 -14.815   3.796  1.00  0.00     0.199 A 
HETATM    2  C   UNL     1      40.942 -16.249   3.270  1.00  0.00     0.269 A 
HETATM    3  O   UNL     1      40.199 -16.925   2.568  1.00  0.00    -0.269 OA
HETATM    4  N   UNL     1      42.148 -16.677   3.859  1.00  0.00    -0.314 N 
HETATM    5  C   UNL     1      42.659 -15.683   4.714  1.00  0.00     0.047 A 
HETATM    6  C   UNL     1      41.824 -14.560   4.701  1.00  0.00     0.017 A 
HETATM    7  C   UNL     1      43.793 -15.724   5.509  1.00  0.00     0.030 A 
HETATM    8  C   UNL     1      44.082 -14.612   6.306  1.00  0.00     0.002 A 
HETATM    9  C   UNL     1      43.241 -13.489   6.305  1.00  0.00     0.001 A 
HETATM   10  C   UNL     1      42.101 -13.458   5.502  1.00  0.00     0.013 A 
ENDROOT
BRANCH   1  11
HETATM   11  C   UNL     1      40.626 -13.725   2.750  1.00  0.00     0.025 A 
HETATM   12  C   UNL     1      41.333 -13.726   1.544  1.00  0.00     0.016 A 
HETATM   13  C   UNL     1      42.260 -14.726   0.947  1.00  0.00     0.069 C 
HETATM   14  N   UNL     1      41.039 -12.568   0.873  1.00  0.00    -0.359 N 
HETATM   15  H   UNL     1      41.413 -12.308  -0.029  1.00  0.00     0.166 HD
HETATM   16  C   UNL     1      40.138 -11.814   1.577  1.00  0.00     0.043 A 
HETATM   17  C   UNL     1      39.857 -12.500   2.760  1.00  0.00     0.003 A 
HETATM   18  C   UNL     1      39.556 -10.585   1.244  1.00  0.00     0.030 A 
HETATM   19  C   UNL     1      38.934 -11.910   3.653  1.00  0.00     0.014 A 
HETATM   20  C   UNL     1      38.341 -10.681   3.336  1.00  0.00     0.001 A 
HETATM   21  C   UNL     1      38.649 -10.028   2.147  1.00  0.00     0.002 A 
ENDBRANCH   1  11
BRANCH   1  22
HETATM   22  O   UNL     1      39.450 -14.873   4.572  1.00  0.00    -0.371 OA
HETATM   23  H   UNL     1      38.946 -14.089   4.285  1.00  0.00     0.212 HD
ENDBRANCH   1  22
BRANCH   4  24
HETATM   24  C   UNL     1      42.555 -18.068   3.885  1.00  0.00     0.137 C 
BRANCH  24  25
HETATM   25  C   UNL     1      43.692 -18.408   2.917  1.00  0.00     0.058 C 
BRANCH  25  26
HETATM   26  C   UNL     1      44.095 -19.857   3.075  1.00  0.00    -0.057 A 
HETATM   27  C   UNL     1      43.907 -20.759   2.018  1.00  0.00     0.007 A 
HETATM   28  C   UNL     1      44.207 -22.113   2.180  1.00  0.00     0.001 A 
HETATM   29  C   UNL     1      44.701 -22.576   3.398  1.00  0.00     0.000 A 
HETATM   30  C   UNL     1      44.899 -21.687   4.452  1.00  0.00     0.001 A 
HETATM   31  C   UNL     1      44.595 -20.333   4.293  1.00  0.00     0.007 A 
ENDBRANCH  25  26
ENDBRANCH  24  25
ENDBRANCH   4  24
TORSDOF 5
ENDMDL
MODEL 10
REMARK VINA RESULT:      -8.1      2.395      6.920
REMARK  5 active torsions:
REMARK  status: ('A' for Active; 'I' for Inactive)
REMARK    1  A    between atoms: C_7  and  C_8 
REMARK    2  A    between atoms: C_8  and  O_9 
REMARK    3  A    between atoms: N_12  and  C_13 
REMARK    4  A    between atoms: C_13  and  C_14 
REMARK    5  A    between atoms: C_14  and  C_15 
ROOT
HETATM    1  C   UNL     1      42.695 -17.095   5.223  1.00  0.00     0.199 A 
HETATM    2  C   UNL     1      43.028 -16.366   6.556  1.00  0.00     0.269 A 
HETATM    3  O   UNL     1      42.938 -16.845   7.681  1.00  0.00    -0.269 OA
HETATM    4  N   UNL     1      43.315 -15.022   6.243  1.00  0.00    -0.314 N 
HETATM    5  C   UNL     1      43.194 -14.801   4.860  1.00  0.00     0.047 A 
HETATM    6  C   UNL     1      42.848 -15.992   4.210  1.00  0.00     0.017 A 
HETATM    7  C   UNL     1      43.350 -13.619   4.155  1.00  0.00     0.030 A 
HETATM    8  C   UNL     1      43.146 -13.642   2.771  1.00  0.00     0.002 A 
HETATM    9  C   UNL     1      42.786 -14.830   2.118  1.00  0.00     0.001 A 
HETATM   10  C   UNL     1      42.631 -16.016   2.837  1.00  0.00     0.013 A 
ENDROOT
BRANCH   1  11
HETATM   11  C   UNL     1      43.635 -18.212   4.834  1.00  0.00     0.025 A 
HETATM   12  C   UNL     1      44.779 -18.607   5.534  1.00  0.00     0.016 A 
HETATM   13  C   UNL     1      45.388 -18.098   6.794  1.00  0.00     0.069 C 
HETATM   14  N   UNL     1      45.350 -19.657   4.865  1.00  0.00    -0.359 N 
HETATM   15  H   UNL     1      46.190 -20.140   5.150  1.00  0.00     0.166 HD
HETATM   16  C   UNL     1      44.609 -19.991   3.762  1.00  0.00     0.043 A 
HETATM   17  C   UNL     1      43.530 -19.108   3.704  1.00  0.00     0.003 A 
HETATM   18  C   UNL     1      44.820 -21.010   2.825  1.00  0.00     0.030 A 
HETATM   19  C   UNL     1      42.613 -19.268   2.641  1.00  0.00     0.014 A 
HETATM   20  C   UNL     1      42.807 -20.283   1.695  1.00  0.00     0.001 A 
HETATM   21  C   UNL     1      43.897 -21.142   1.788  1.00  0.00     0.002 A 
ENDBRANCH   1  11
BRANCH   1  22
HETATM   22  O   UNL     1      41.328 -17.506   5.281  1.00  0.00    -0.371 OA
HETATM   23  H   UNL     1      40.828 -16.676   5.176  1.00  0.00     0.212 HD
ENDBRANCH   1  22
BRANCH   4  24
HETATM   24  C   UNL     1      43.325 -13.972   7.243  1.00  0.00     0.137 C 
BRANCH  24  25
HETATM   25  C   UNL     1      44.721 -13.445   7.587  1.00  0.00     0.058 C 
BRANCH  25  26
HETATM   26  C   UNL     1      44.625 -12.363   8.639  1.00  0.00    -0.057 A 
HETATM   27  C   UNL     1      45.647 -12.211   9.588  1.00  0.00     0.007 A 
HETATM   28  C   UNL     1      45.532 -11.265  10.608  1.00  0.00     0.001 A 
HETATM   29  C   UNL     1      44.398 -10.458  10.685  1.00  0.00     0.000 A 
HETATM   30  C   UNL     1      43.380 -10.596   9.743  1.00  0.00     0.001 A 
HETATM   31  C   UNL     1      43.491 -11.545   8.725  1.00  0.00     0.007 A 
ENDBRANCH  25  26
ENDBRANCH  24  25
ENDBRANCH   4  24
TORSDOF 5
ENDMDL
