MODEL 1
REMARK VINA RESULT:      -8.8      0.000      0.000
REMARK  2 active torsions:
REMARK  status: ('A' for Active; 'I' for Inactive)
REMARK    1  A    between atoms: C_5  and  N_6 
REMARK    2  A    between atoms: C_8  and  C_9 
REMARK       I    between atoms: C_9  and  N_10 
ROOT
HETATM    1  C   UNL     1      43.538 -18.387   5.603  1.00  0.00     0.279 C 
HETATM    2  N   UNL     1      43.880 -18.835   4.304  1.00  0.00    -0.301 N 
HETATM    3  C   UNL     1      44.221 -20.206   4.026  1.00  0.00     0.067 A 
HETATM    4  C   UNL     1      44.223 -20.676   2.705  1.00  0.00     0.079 A 
HETATM    5  C   UNL     1      44.527 -22.013   2.461  1.00  0.00     0.148 A 
HETATM    6  N   UNL     1      44.846 -22.904   3.422  1.00  0.00    -0.271 NA
HETATM    7  C   UNL     1      44.865 -22.433   4.683  1.00  0.00     0.118 A 
HETATM    8  C   UNL     1      44.571 -21.120   5.027  1.00  0.00     0.051 A 
HETATM    9  N   UNL     1      43.905 -19.846   1.630  1.00  0.00    -0.323 N 
HETATM   10  C   UNL     1      43.652 -18.516   1.767  1.00  0.00     0.240 C 
HETATM   11  O   UNL     1      43.397 -17.831   0.777  1.00  0.00    -0.271 OA
HETATM   12  C   UNL     1      43.808 -17.920   3.156  1.00  0.00     0.235 C 
HETATM   13  O   UNL     1      43.266 -19.163   6.523  1.00  0.00    -0.265 OA
HETATM   14  H   UNL     1      43.857 -20.211   0.687  1.00  0.00     0.169 HD
ENDROOT
BRANCH   1  15
HETATM   15  C   UNL     1      43.451 -16.931   5.882  1.00  0.00     0.147 A 
HETATM   16  N   UNL     1      42.494 -16.114   5.425  1.00  0.00    -0.162 NA
HETATM   17  N   UNL     1      42.780 -14.864   5.905  1.00  0.00    -0.238 N 
HETATM   18  C   UNL     1      43.955 -14.890   6.654  1.00  0.00     0.035 A 
HETATM   19  C   UNL     1      44.399 -16.196   6.625  1.00  0.00     0.066 A 
HETATM   20  C   UNL     1      44.605 -13.756   7.353  1.00  0.00     0.070 C 
BRANCH  17  21
HETATM   21  C   UNL     1      41.876 -13.795   5.589  1.00  0.00     0.058 A 
HETATM   22  C   UNL     1      40.533 -13.904   5.998  1.00  0.00     0.032 A 
HETATM   23  C   UNL     1      39.608 -12.885   5.737  1.00  0.00     0.009 A 
HETATM   24  C   UNL     1      40.000 -11.735   5.051  1.00  0.00    -0.062 A 
HETATM   25  C   UNL     1      39.032 -10.621   4.788  1.00  0.00     0.048 C 
HETATM   26  C   UNL     1      41.330 -11.620   4.639  1.00  0.00     0.009 A 
HETATM   27  C   UNL     1      42.258 -12.639   4.902  1.00  0.00     0.032 A 
ENDBRANCH  17  21
ENDBRANCH   1  15
TORSDOF 2
ENDMDL
MODEL 2
REMARK VINA RESULT:      -8.6      2.451      7.959
REMARK  2 active torsions:
REMARK  status: ('A' for Active; 'I' for Inactive)
REMARK    1  A    between atoms: C_5  and  N_6 
REMARK    2  A    between atoms: C_8  and  C_9 
REMARK       I    between atoms: C_9  and  N_10 
ROOT
HETATM    1  C   UNL     1      42.923 -14.346   6.033  1.00  0.00     0.279 C 
HETATM    2  N   UNL     1      41.703 -13.888   5.480  1.00  0.00    -0.301 N 
HETATM    3  C   UNL     1      41.245 -12.531   5.637  1.00  0.00     0.067 A 
HETATM    4  C   UNL     1      40.228 -12.032   4.812  1.00  0.00     0.079 A 
HETATM    5  C   UNL     1      39.822 -10.708   4.961  1.00  0.00     0.148 A 
HETATM    6  N   UNL     1      40.332  -9.859   5.875  1.00  0.00    -0.271 NA
HETATM    7  C   UNL     1      41.291 -10.358   6.678  1.00  0.00     0.118 A 
HETATM    8  C   UNL     1      41.767 -11.661   6.602  1.00  0.00     0.051 A 
HETATM    9  N   UNL     1      39.628 -12.819   3.828  1.00  0.00    -0.323 N 
HETATM   10  C   UNL     1      39.920 -14.135   3.648  1.00  0.00     0.240 C 
HETATM   11  O   UNL     1      39.341 -14.783   2.777  1.00  0.00    -0.271 OA
HETATM   12  C   UNL     1      40.890 -14.771   4.631  1.00  0.00     0.235 C 
HETATM   13  O   UNL     1      43.786 -13.577   6.464  1.00  0.00    -0.265 OA
HETATM   14  H   UNL     1      38.933 -12.430   3.204  1.00  0.00     0.169 HD
ENDROOT
BRANCH   1  15
HETATM   15  C   UNL     1      43.218 -15.801   6.065  1.00  0.00     0.147 A 
HETATM   16  N   UNL     1      43.312 -16.593   4.989  1.00  0.00    -0.162 NA
HETATM   17  N   UNL     1      43.590 -17.851   5.448  1.00  0.00    -0.238 N 
HETATM   18  C   UNL     1      43.645 -17.858   6.840  1.00  0.00     0.035 A 
HETATM   19  C   UNL     1      43.388 -16.562   7.240  1.00  0.00     0.066 A 
HETATM   20  C   UNL     1      43.930 -19.010   7.728  1.00  0.00     0.070 C 
BRANCH  17  21
HETATM   21  C   UNL     1      43.781 -18.897   4.484  1.00  0.00     0.058 A 
HETATM   22  C   UNL     1      43.159 -18.776   3.226  1.00  0.00     0.032 A 
HETATM   23  C   UNL     1      43.323 -19.754   2.237  1.00  0.00     0.009 A 
HETATM   24  C   UNL     1      44.105 -20.882   2.483  1.00  0.00    -0.062 A 
HETATM   25  C   UNL     1      44.316 -21.925   1.426  1.00  0.00     0.048 C 
HETATM   26  C   UNL     1      44.723 -21.012   3.729  1.00  0.00     0.009 A 
HETATM   27  C   UNL     1      44.561 -20.033   4.720  1.00  0.00     0.032 A 
ENDBRANCH  17  21
ENDBRANCH   1  15
TORSDOF 2
ENDMDL
MODEL 3
REMARK VINA RESULT:      -8.6      4.219      8.321
REMARK  2 active torsions:
REMARK  status: ('A' for Active; 'I' for Inactive)
REMARK    1  A    between atoms: C_5  and  N_6 
REMARK    2  A    between atoms: C_8  and  C_9 
REMARK       I    between atoms: C_9  and  N_10 
ROOT
HETATM    1  C   UNL     1      42.358 -13.962   1.955  1.00  0.00     0.279 C 
HETATM    2  N   UNL     1      41.707 -13.811   0.706  1.00  0.00    -0.301 N 
HETATM    3  C   UNL     1      41.545 -12.528   0.071  1.00  0.00     0.067 A 
HETATM    4  C   UNL     1      41.209 -12.454  -1.288  1.00  0.00     0.079 A 
HETATM    5  C   UNL     1      41.087 -11.203  -1.889  1.00  0.00     0.148 A 
HETATM    6  N   UNL     1      41.252 -10.033  -1.241  1.00  0.00    -0.271 NA
HETATM    7  C   UNL     1      41.550 -10.118   0.069  1.00  0.00     0.118 A 
HETATM    8  C   UNL     1      41.699 -11.317   0.756  1.00  0.00     0.051 A 
HETATM    9  N   UNL     1      41.017 -13.600  -2.060  1.00  0.00    -0.323 N 
HETATM   10  C   UNL     1      41.060 -14.859  -1.546  1.00  0.00     0.240 C 
HETATM   11  O   UNL     1      40.862 -15.830  -2.275  1.00  0.00    -0.271 OA
HETATM   12  C   UNL     1      41.248 -14.988  -0.044  1.00  0.00     0.235 C 
HETATM   13  O   UNL     1      43.041 -13.067   2.460  1.00  0.00    -0.265 OA
HETATM   14  H   UNL     1      40.828 -13.532  -3.052  1.00  0.00     0.169 HD
ENDROOT
BRANCH   1  15
HETATM   15  C   UNL     1      42.268 -15.254   2.681  1.00  0.00     0.147 A 
HETATM   16  N   UNL     1      42.938 -16.368   2.359  1.00  0.00    -0.162 NA
HETATM   17  N   UNL     1      42.574 -17.323   3.269  1.00  0.00    -0.238 N 
HETATM   18  C   UNL     1      41.637 -16.810   4.163  1.00  0.00     0.035 A 
HETATM   19  C   UNL     1      41.421 -15.501   3.782  1.00  0.00     0.066 A 
HETATM   20  C   UNL     1      40.998 -17.509   5.303  1.00  0.00     0.070 C 
BRANCH  17  21
HETATM   21  C   UNL     1      43.185 -18.619   3.171  1.00  0.00     0.058 A 
HETATM   22  C   UNL     1      42.881 -19.426   2.058  1.00  0.00     0.032 A 
HETATM   23  C   UNL     1      43.460 -20.690   1.896  1.00  0.00     0.009 A 
HETATM   24  C   UNL     1      44.352 -21.185   2.848  1.00  0.00    -0.062 A 
HETATM   25  C   UNL     1      45.004 -22.524   2.677  1.00  0.00     0.048 C 
HETATM   26  C   UNL     1      44.657 -20.392   3.957  1.00  0.00     0.009 A 
HETATM   27  C   UNL     1      44.078 -19.125   4.120  1.00  0.00     0.032 A 
ENDBRANCH  17  21
ENDBRANCH   1  15
TORSDOF 2
ENDMDL
MODEL 4
REMARK VINA RESULT:      -8.4      2.792      3.879
REMARK  2 active torsions:
REMARK  status: ('A' for Active; 'I' for Inactive)
REMARK    1  A    between atoms: C_5  and  N_6 
REMARK    2  A    between atoms: C_8  and  C_9 
REMARK       I    between atoms: C_9  and  N_10 
ROOT
HETATM    1  C   UNL     1      43.320 -17.691   2.020  1.00  0.00     0.279 C 
HETATM    2  N   UNL     1      43.573 -18.525   3.136  1.00  0.00    -0.301 N 
HETATM    3  C   UNL     1      43.917 -19.917   2.996  1.00  0.00     0.067 A 
HETATM    4  C   UNL     1      44.481 -20.614   4.074  1.00  0.00     0.079 A 
HETATM    5  C   UNL     1      44.834 -21.951   3.908  1.00  0.00     0.148 A 
HETATM    6  N   UNL     1      44.650 -22.645   2.767  1.00  0.00    -0.271 NA
HETATM    7  C   UNL     1      44.086 -21.971   1.747  1.00  0.00     0.118 A 
HETATM    8  C   UNL     1      43.706 -20.636   1.814  1.00  0.00     0.051 A 
HETATM    9  N   UNL     1      44.720 -19.997   5.303  1.00  0.00    -0.323 N 
HETATM   10  C   UNL     1      44.356 -18.714   5.574  1.00  0.00     0.240 C 
HETATM   11  O   UNL     1      44.575 -18.232   6.685  1.00  0.00    -0.271 OA
HETATM   12  C   UNL     1      43.585 -17.970   4.497  1.00  0.00     0.235 C 
HETATM   13  O   UNL     1      43.615 -18.016   0.868  1.00  0.00    -0.265 OA
HETATM   14  H   UNL     1      45.176 -20.497   6.055  1.00  0.00     0.169 HD
ENDROOT
BRANCH   1  15
HETATM   15  C   UNL     1      42.720 -16.348   2.225  1.00  0.00     0.147 A 
HETATM   16  N   UNL     1      41.573 -15.924   1.680  1.00  0.00    -0.162 NA
HETATM   17  N   UNL     1      41.380 -14.641   2.114  1.00  0.00    -0.238 N 
HETATM   18  C   UNL     1      42.439 -14.239   2.925  1.00  0.00     0.035 A 
HETATM   19  C   UNL     1      43.306 -15.312   2.982  1.00  0.00     0.066 A 
HETATM   20  C   UNL     1      42.613 -12.933   3.604  1.00  0.00     0.070 C 
BRANCH  17  21
HETATM   21  C   UNL     1      40.187 -13.959   1.700  1.00  0.00     0.058 A 
HETATM   22  C   UNL     1      39.038 -14.721   1.414  1.00  0.00     0.032 A 
HETATM   23  C   UNL     1      37.839 -14.112   1.025  1.00  0.00     0.009 A 
HETATM   24  C   UNL     1      37.760 -12.724   0.902  1.00  0.00    -0.062 A 
HETATM   25  C   UNL     1      36.477 -12.053   0.514  1.00  0.00     0.048 C 
HETATM   26  C   UNL     1      38.895 -11.960   1.180  1.00  0.00     0.009 A 
HETATM   27  C   UNL     1      40.097 -12.569   1.572  1.00  0.00     0.032 A 
ENDBRANCH  17  21
ENDBRANCH   1  15
TORSDOF 2
ENDMDL
MODEL 5
REMARK VINA RESULT:      -8.3      5.133      8.346
REMARK  2 active torsions:
REMARK  status: ('A' for Active; 'I' for Inactive)
REMARK    1  A    between atoms: C_5  and  N_6 
REMARK    2  A    between atoms: C_8  and  C_9 
REMARK       I    between atoms: C_9  and  N_10 
ROOT
HETATM    1  C   UNL     1      39.308 -14.430   1.173  1.00  0.00     0.279 C 
HETATM    2  N   UNL     1      40.024 -13.704   0.190  1.00  0.00    -0.301 N 
HETATM    3  C   UNL     1      39.434 -13.319  -1.066  1.00  0.00     0.067 A 
HETATM    4  C   UNL     1      40.042 -12.333  -1.856  1.00  0.00     0.079 A 
HETATM    5  C   UNL     1      39.439 -11.954  -3.052  1.00  0.00     0.148 A 
HETATM    6  N   UNL     1      38.298 -12.492  -3.528  1.00  0.00    -0.271 NA
HETATM    7  C   UNL     1      37.737 -13.455  -2.772  1.00  0.00     0.118 A 
HETATM    8  C   UNL     1      38.259 -13.896  -1.562  1.00  0.00     0.051 A 
HETATM    9  N   UNL     1      41.224 -11.704  -1.463  1.00  0.00    -0.323 N 
HETATM   10  C   UNL     1      41.913 -12.048  -0.341  1.00  0.00     0.240 C 
HETATM   11  O   UNL     1      42.962 -11.471  -0.058  1.00  0.00    -0.271 OA
HETATM   12  C   UNL     1      41.389 -13.230   0.459  1.00  0.00     0.235 C 
HETATM   13  O   UNL     1      38.082 -14.563   1.138  1.00  0.00    -0.265 OA
HETATM   14  H   UNL     1      41.624 -10.956  -2.015  1.00  0.00     0.169 HD
ENDROOT
BRANCH   1  15
HETATM   15  C   UNL     1      40.033 -15.023   2.325  1.00  0.00     0.147 A 
HETATM   16  N   UNL     1      40.826 -16.101   2.266  1.00  0.00    -0.162 NA
HETATM   17  N   UNL     1      41.293 -16.317   3.534  1.00  0.00    -0.238 N 
HETATM   18  C   UNL     1      40.762 -15.375   4.413  1.00  0.00     0.035 A 
HETATM   19  C   UNL     1      39.943 -14.563   3.656  1.00  0.00     0.066 A 
HETATM   20  C   UNL     1      41.021 -15.250   5.867  1.00  0.00     0.070 C 
BRANCH  17  21
HETATM   21  C   UNL     1      42.207 -17.404   3.742  1.00  0.00     0.058 A 
HETATM   22  C   UNL     1      42.779 -18.029   2.618  1.00  0.00     0.032 A 
HETATM   23  C   UNL     1      43.692 -19.082   2.757  1.00  0.00     0.009 A 
HETATM   24  C   UNL     1      44.049 -19.543   4.024  1.00  0.00    -0.062 A 
HETATM   25  C   UNL     1      45.047 -20.650   4.194  1.00  0.00     0.048 C 
HETATM   26  C   UNL     1      43.484 -18.931   5.145  1.00  0.00     0.009 A 
HETATM   27  C   UNL     1      42.571 -17.875   5.007  1.00  0.00     0.032 A 
ENDBRANCH  17  21
ENDBRANCH   1  15
TORSDOF 2
ENDMDL
MODEL 6
REMARK VINA RESULT:      -8.2      1.793      3.434
REMARK  2 active torsions:
REMARK  status: ('A' for Active; 'I' for Inactive)
REMARK    1  A    between atoms: C_5  and  N_6 
REMARK    2  A    between atoms: C_8  and  C_9 
REMARK       I    between atoms: C_9  and  N_10 
ROOT
HETATM    1  C   UNL     1      43.302 -17.537   2.075  1.00  0.00     0.279 C 
HETATM    2  N   UNL     1      43.645 -18.361   3.174  1.00  0.00    -0.301 N 
HETATM    3  C   UNL     1      43.922 -19.767   3.029  1.00  0.00     0.067 A 
HETATM    4  C   UNL     1      44.574 -20.465   4.054  1.00  0.00     0.079 A 
HETATM    5  C   UNL     1      44.860 -21.817   3.880  1.00  0.00     0.148 A 
HETATM    6  N   UNL     1      44.529 -22.524   2.780  1.00  0.00    -0.271 NA
HETATM    7  C   UNL     1      43.881 -21.847   1.813  1.00  0.00     0.118 A 
HETATM    8  C   UNL     1      43.558 -20.498   1.892  1.00  0.00     0.051 A 
HETATM    9  N   UNL     1      44.967 -19.836   5.236  1.00  0.00    -0.323 N 
HETATM   10  C   UNL     1      44.681 -18.536   5.517  1.00  0.00     0.240 C 
HETATM   11  O   UNL     1      45.035 -18.043   6.587  1.00  0.00    -0.271 OA
HETATM   12  C   UNL     1      43.823 -17.782   4.514  1.00  0.00     0.235 C 
HETATM   13  O   UNL     1      43.459 -17.894   0.904  1.00  0.00    -0.265 OA
HETATM   14  H   UNL     1      45.484 -20.339   5.946  1.00  0.00     0.169 HD
ENDROOT
BRANCH   1  15
HETATM   15  C   UNL     1      42.776 -16.169   2.314  1.00  0.00     0.147 A 
HETATM   16  N   UNL     1      42.217 -15.746   3.455  1.00  0.00    -0.162 NA
HETATM   17  N   UNL     1      41.867 -14.438   3.262  1.00  0.00    -0.238 N 
HETATM   18  C   UNL     1      42.186 -14.037   1.966  1.00  0.00     0.035 A 
HETATM   19  C   UNL     1      42.744 -15.140   1.351  1.00  0.00     0.066 A 
HETATM   20  C   UNL     1      41.982 -12.701   1.357  1.00  0.00     0.070 C 
BRANCH  17  21
HETATM   21  C   UNL     1      41.275 -13.726   4.359  1.00  0.00     0.058 A 
HETATM   22  C   UNL     1      42.075 -12.830   5.093  1.00  0.00     0.032 A 
HETATM   23  C   UNL     1      41.549 -12.092   6.161  1.00  0.00     0.009 A 
HETATM   24  C   UNL     1      40.212 -12.239   6.529  1.00  0.00    -0.062 A 
HETATM   25  C   UNL     1      39.624 -11.437   7.651  1.00  0.00     0.048 C 
HETATM   26  C   UNL     1      39.411 -13.129   5.808  1.00  0.00     0.009 A 
HETATM   27  C   UNL     1      39.936 -13.867   4.737  1.00  0.00     0.032 A 
ENDBRANCH  17  21
ENDBRANCH   1  15
TORSDOF 2
ENDMDL
MODEL 7
REMARK VINA RESULT:      -8.0      4.466      6.028
REMARK  2 active torsions:
REMARK  status: ('A' for Active; 'I' for Inactive)
REMARK    1  A    between atoms: C_5  and  N_6 
REMARK    2  A    between atoms: C_8  and  C_9 
REMARK       I    between atoms: C_9  and  N_10 
ROOT
HETATM    1  C   UNL     1      42.328 -17.117   3.007  1.00  0.00     0.279 C 
HETATM    2  N   UNL     1      42.708 -16.667   4.294  1.00  0.00    -0.301 N 
HETATM    3  C   UNL     1      43.214 -17.560   5.305  1.00  0.00     0.067 A 
HETATM    4  C   UNL     1      43.885 -17.047   6.424  1.00  0.00     0.079 A 
HETATM    5  C   UNL     1      44.392 -17.930   7.374  1.00  0.00     0.148 A 
HETATM    6  N   UNL     1      44.264 -19.270   7.306  1.00  0.00    -0.271 NA
HETATM    7  C   UNL     1      43.596 -19.748   6.239  1.00  0.00     0.118 A 
HETATM    8  C   UNL     1      43.060 -18.949   5.237  1.00  0.00     0.051 A 
HETATM    9  N   UNL     1      44.080 -15.677   6.599  1.00  0.00    -0.323 N 
HETATM   10  C   UNL     1      43.572 -14.740   5.754  1.00  0.00     0.240 C 
HETATM   11  O   UNL     1      43.760 -13.543   5.973  1.00  0.00    -0.271 OA
HETATM   12  C   UNL     1      42.688 -15.234   4.620  1.00  0.00     0.235 C 
HETATM   13  O   UNL     1      42.629 -18.234   2.578  1.00  0.00    -0.265 OA
HETATM   14  H   UNL     1      44.613 -15.323   7.383  1.00  0.00     0.169 HD
ENDROOT
BRANCH   1  15
HETATM   15  C   UNL     1      41.576 -16.212   2.101  1.00  0.00     0.147 A 
HETATM   16  N   UNL     1      42.094 -15.574   1.043  1.00  0.00    -0.162 NA
HETATM   17  N   UNL     1      41.078 -14.846   0.485  1.00  0.00    -0.238 N 
HETATM   18  C   UNL     1      39.907 -15.005   1.222  1.00  0.00     0.035 A 
HETATM   19  C   UNL     1      40.221 -15.855   2.263  1.00  0.00     0.066 A 
HETATM   20  C   UNL     1      38.580 -14.401   0.952  1.00  0.00     0.070 C 
BRANCH  17  21
HETATM   21  C   UNL     1      41.361 -14.089  -0.701  1.00  0.00     0.058 A 
HETATM   22  C   UNL     1      42.014 -12.848  -0.571  1.00  0.00     0.032 A 
HETATM   23  C   UNL     1      42.334 -12.074  -1.693  1.00  0.00     0.009 A 
HETATM   24  C   UNL     1      42.002 -12.516  -2.974  1.00  0.00    -0.062 A 
HETATM   25  C   UNL     1      42.362 -11.714  -4.188  1.00  0.00     0.048 C 
HETATM   26  C   UNL     1      41.351 -13.744  -3.112  1.00  0.00     0.009 A 
HETATM   27  C   UNL     1      41.031 -14.522  -1.989  1.00  0.00     0.032 A 
ENDBRANCH  17  21
ENDBRANCH   1  15
TORSDOF 2
ENDMDL
MODEL 8
REMARK VINA RESULT:      -8.0      5.533      8.809
REMARK  2 active torsions:
REMARK  status: ('A' for Active; 'I' for Inactive)
REMARK    1  A    between atoms: C_5  and  N_6 
REMARK    2  A    between atoms: C_8  and  C_9 
REMARK       I    between atoms: C_9  and  N_10 
ROOT
HETATM    1  C   UNL     1      40.302 -12.922   0.458  1.00  0.00     0.279 C 
HETATM    2  N   UNL     1      40.004 -13.373  -0.851  1.00  0.00    -0.301 N 
HETATM    3  C   UNL     1      38.889 -12.865  -1.607  1.00  0.00     0.067 A 
HETATM    4  C   UNL     1      38.823 -13.076  -2.992  1.00  0.00     0.079 A 
HETATM    5  C   UNL     1      37.751 -12.550  -3.708  1.00  0.00     0.148 A 
HETATM    6  N   UNL     1      36.739 -11.853  -3.152  1.00  0.00    -0.271 NA
HETATM    7  C   UNL     1      36.802 -11.679  -1.818  1.00  0.00     0.118 A 
HETATM    8  C   UNL     1      37.832 -12.159  -1.020  1.00  0.00     0.051 A 
HETATM    9  N   UNL     1      39.815 -13.779  -3.675  1.00  0.00    -0.323 N 
HETATM   10  C   UNL     1      40.867 -14.376  -3.051  1.00  0.00     0.240 C 
HETATM   11  O   UNL     1      41.700 -15.002  -3.707  1.00  0.00    -0.271 OA
HETATM   12  C   UNL     1      40.892 -14.326  -1.533  1.00  0.00     0.235 C 
HETATM   13  O   UNL     1      39.797 -11.905   0.940  1.00  0.00    -0.265 OA
HETATM   14  H   UNL     1      39.783 -13.878  -4.681  1.00  0.00     0.169 HD
ENDROOT
BRANCH   1  15
HETATM   15  C   UNL     1      41.293 -13.657   1.283  1.00  0.00     0.147 A 
HETATM   16  N   UNL     1      41.462 -14.986   1.284  1.00  0.00    -0.162 NA
HETATM   17  N   UNL     1      42.463 -15.256   2.177  1.00  0.00    -0.238 N 
HETATM   18  C   UNL     1      42.913 -14.079   2.771  1.00  0.00     0.035 A 
HETATM   19  C   UNL     1      42.159 -13.061   2.224  1.00  0.00     0.066 A 
HETATM   20  C   UNL     1      43.988 -13.929   3.781  1.00  0.00     0.070 C 
BRANCH  17  21
HETATM   21  C   UNL     1      42.873 -16.622   2.342  1.00  0.00     0.058 A 
HETATM   22  C   UNL     1      43.444 -17.293   1.244  1.00  0.00     0.032 A 
HETATM   23  C   UNL     1      43.881 -18.619   1.349  1.00  0.00     0.009 A 
HETATM   24  C   UNL     1      43.749 -19.312   2.553  1.00  0.00    -0.062 A 
HETATM   25  C   UNL     1      44.237 -20.723   2.692  1.00  0.00     0.048 C 
HETATM   26  C   UNL     1      43.181 -18.655   3.647  1.00  0.00     0.009 A 
HETATM   27  C   UNL     1      42.744 -17.326   3.543  1.00  0.00     0.032 A 
ENDBRANCH  17  21
ENDBRANCH   1  15
TORSDOF 2
ENDMDL
MODEL 9
REMARK VINA RESULT:      -7.9      4.071      5.152
REMARK  2 active torsions:
REMARK  status: ('A' for Active; 'I' for Inactive)
REMARK    1  A    between atoms: C_5  and  N_6 
REMARK    2  A    between atoms: C_8  and  C_9 
REMARK       I    between atoms: C_9  and  N_10 
ROOT
HETATM    1  C   UNL     1      43.531 -17.282   2.423  1.00  0.00     0.279 C 
HETATM    2  N   UNL     1      43.292 -17.822   3.710  1.00  0.00    -0.301 N 
HETATM    3  C   UNL     1      43.788 -19.114   4.108  1.00  0.00     0.067 A 
HETATM    4  C   UNL     1      43.826 -19.465   5.465  1.00  0.00     0.079 A 
HETATM    5  C   UNL     1      44.337 -20.708   5.830  1.00  0.00     0.148 A 
HETATM    6  N   UNL     1      44.790 -21.627   4.953  1.00  0.00    -0.271 NA
HETATM    7  C   UNL     1      44.726 -21.287   3.652  1.00  0.00     0.118 A 
HETATM    8  C   UNL     1      44.239 -20.070   3.191  1.00  0.00     0.051 A 
HETATM    9  N   UNL     1      43.386 -18.593   6.461  1.00  0.00    -0.323 N 
HETATM   10  C   UNL     1      42.820 -17.385   6.195  1.00  0.00     0.240 C 
HETATM   11  O   UNL     1      42.432 -16.668   7.117  1.00  0.00    -0.271 OA
HETATM   12  C   UNL     1      42.597 -17.030   4.734  1.00  0.00     0.235 C 
HETATM   13  O   UNL     1      44.373 -17.750   1.652  1.00  0.00    -0.265 OA
HETATM   14  H   UNL     1      43.469 -18.838   7.440  1.00  0.00     0.169 HD
ENDROOT
BRANCH   1  15
HETATM   15  C   UNL     1      42.786 -16.077   1.979  1.00  0.00     0.147 A 
HETATM   16  N   UNL     1      41.903 -16.043   0.971  1.00  0.00    -0.162 NA
HETATM   17  N   UNL     1      41.449 -14.755   0.888  1.00  0.00    -0.238 N 
HETATM   18  C   UNL     1      42.077 -13.957   1.842  1.00  0.00     0.035 A 
HETATM   19  C   UNL     1      42.944 -14.786   2.525  1.00  0.00     0.066 A 
HETATM   20  C   UNL     1      41.864 -12.511   2.094  1.00  0.00     0.070 C 
BRANCH  17  21
HETATM   21  C   UNL     1      40.452 -14.451  -0.099  1.00  0.00     0.058 A 
HETATM   22  C   UNL     1      40.843 -14.367  -1.449  1.00  0.00     0.032 A 
HETATM   23  C   UNL     1      39.914 -14.094  -2.460  1.00  0.00     0.009 A 
HETATM   24  C   UNL     1      38.570 -13.888  -2.146  1.00  0.00    -0.062 A 
HETATM   25  C   UNL     1      37.555 -13.623  -3.218  1.00  0.00     0.048 C 
HETATM   26  C   UNL     1      38.174 -13.967  -0.809  1.00  0.00     0.009 A 
HETATM   27  C   UNL     1      39.103 -14.242   0.205  1.00  0.00     0.032 A 
ENDBRANCH  17  21
ENDBRANCH   1  15
TORSDOF 2
ENDMDL
MODEL 10
REMARK VINA RESULT:      -7.9      3.837      5.299
REMARK  2 active torsions:
REMARK  status: ('A' for Active; 'I' for Inactive)
REMARK    1  A    between atoms: C_5  and  N_6 
REMARK    2  A    between atoms: C_8  and  C_9 
REMARK       I    between atoms: C_9  and  N_10 
ROOT
HETATM    1  C   UNL     1      41.116 -15.800   4.359  1.00  0.00     0.279 C 
HETATM    2  N   UNL     1      42.114 -16.803   4.296  1.00  0.00    -0.301 N 
HETATM    3  C   UNL     1      42.687 -17.396   5.477  1.00  0.00     0.067 A 
HETATM    4  C   UNL     1      43.406 -18.595   5.383  1.00  0.00     0.079 A 
HETATM    5  C   UNL     1      43.927 -19.167   6.542  1.00  0.00     0.148 A 
HETATM    6  N   UNL     1      43.804 -18.628   7.772  1.00  0.00    -0.271 NA
HETATM    7  C   UNL     1      43.132 -17.464   7.844  1.00  0.00     0.118 A 
HETATM    8  C   UNL     1      42.572 -16.820   6.748  1.00  0.00     0.051 A 
HETATM    9  N   UNL     1      43.595 -19.245   4.163  1.00  0.00    -0.323 N 
HETATM   10  C   UNL     1      43.172 -18.733   2.975  1.00  0.00     0.240 C 
HETATM   11  O   UNL     1      43.387 -19.344   1.928  1.00  0.00    -0.271 OA
HETATM   12  C   UNL     1      42.541 -17.351   3.001  1.00  0.00     0.235 C 
HETATM   13  O   UNL     1      40.497 -15.544   5.394  1.00  0.00    -0.265 OA
HETATM   14  H   UNL     1      44.069 -20.137   4.117  1.00  0.00     0.169 HD
ENDROOT
BRANCH   1  15
HETATM   15  C   UNL     1      40.752 -15.045   3.134  1.00  0.00     0.147 A 
HETATM   16  N   UNL     1      41.523 -14.128   2.534  1.00  0.00    -0.162 NA
HETATM   17  N   UNL     1      40.824 -13.673   1.449  1.00  0.00    -0.238 N 
HETATM   18  C   UNL     1      39.578 -14.293   1.381  1.00  0.00     0.035 A 
HETATM   19  C   UNL     1      39.517 -15.150   2.461  1.00  0.00     0.066 A 
HETATM   20  C   UNL     1      38.524 -14.092   0.358  1.00  0.00     0.070 C 
BRANCH  17  21
HETATM   21  C   UNL     1      41.450 -12.698   0.601  1.00  0.00     0.058 A 
HETATM   22  C   UNL     1      41.963 -13.115  -0.642  1.00  0.00     0.032 A 
HETATM   23  C   UNL     1      42.566 -12.207  -1.521  1.00  0.00     0.009 A 
HETATM   24  C   UNL     1      42.681 -10.861  -1.175  1.00  0.00    -0.062 A 
HETATM   25  C   UNL     1      43.298  -9.869  -2.116  1.00  0.00     0.048 C 
HETATM   26  C   UNL     1      42.178 -10.439   0.057  1.00  0.00     0.009 A 
HETATM   27  C   UNL     1      41.572 -11.347   0.938  1.00  0.00     0.032 A 
ENDBRANCH  17  21
ENDBRANCH   1  15
TORSDOF 2
ENDMDL
