MODEL 1
REMARK VINA RESULT:      -7.9      0.000      0.000
REMARK  9 active torsions:
REMARK  status: ('A' for Active; 'I' for Inactive)
REMARK    1  A    between atoms: C_2  and  C_3 
REMARK    2  A    between atoms: C_3  and  C_4 
REMARK    3  A    between atoms: C_4  and  N_5 
REMARK    4  A    between atoms: C_9  and  C_10 
REMARK    5  A    between atoms: C_13  and  C_14 
REMARK    6  A    between atoms: C_14  and  O_15 
REMARK    7  A    between atoms: C_20  and  C_21 
REMARK       I    between atoms: C_21  and  N_22 
REMARK    8  A    between atoms: N_22  and  C_23 
REMARK    9  A    between atoms: C_24  and  O_25 
ROOT
HETATM    1  N   UNL     1      42.189 -14.053   4.441  1.00  0.00    -0.303 N 
HETATM    2  C   UNL     1      43.495 -14.150   3.968  1.00  0.00     0.323 C 
HETATM    3  O   UNL     1      44.460 -13.575   4.469  1.00  0.00    -0.247 OA
HETATM    4  N   UNL     1      43.690 -14.899   2.852  1.00  0.00    -0.330 N 
HETATM    5  C   UNL     1      42.722 -15.784   2.255  1.00  0.00     0.160 C 
HETATM    6  C   UNL     1      41.334 -15.435   2.711  1.00  0.00     0.059 C 
HETATM    7  C   UNL     1      41.111 -14.724   3.838  1.00  0.00     0.026 C 
HETATM    8  C   UNL     1      39.751 -14.639   4.494  1.00  0.00     0.069 C 
HETATM    9  H   UNL     1      44.659 -14.992   2.584  1.00  0.00     0.165 HD
ENDROOT
BRANCH   6  10
HETATM   10  C   UNL     1      40.250 -15.997   1.855  1.00  0.00     0.256 C 
HETATM   11  N   UNL     1      39.708 -15.284   0.826  1.00  0.00    -0.321 N 
HETATM   12  H   UNL     1      38.828 -15.686   0.511  1.00  0.00     0.169 HD
HETATM   13  O   UNL     1      39.808 -17.123   2.079  1.00  0.00    -0.267 OA
BRANCH  11  14
HETATM   14  C   UNL     1      40.020 -14.048   0.228  1.00  0.00     0.068 A 
HETATM   15  C   UNL     1      40.723 -14.102  -0.989  1.00  0.00     0.095 A 
HETATM   16  C   UNL     1      41.020 -12.937  -1.697  1.00  0.00     0.039 A 
HETATM   17  C   UNL     1      40.607 -11.704  -1.195  1.00  0.00     0.003 A 
HETATM   18  C   UNL     1      39.936 -11.639   0.026  1.00  0.00     0.002 A 
HETATM   19  C   UNL     1      39.655 -12.806   0.745  1.00  0.00     0.032 A 
BRANCH  15  20
HETATM   20  O   UNL     1      41.114 -15.336  -1.453  1.00  0.00    -0.354 OA
HETATM   21  C   UNL     1      40.864 -15.475  -2.852  1.00  0.00     0.210 C 
ENDBRANCH  15  20
ENDBRANCH  11  14
ENDBRANCH   6  10
BRANCH   5  22
HETATM   22  C   UNL     1      43.098 -17.235   2.544  1.00  0.00    -0.031 A 
HETATM   23  C   UNL     1      43.302 -18.159   1.504  1.00  0.00     0.010 A 
HETATM   24  C   UNL     1      43.763 -19.451   1.776  1.00  0.00     0.018 A 
HETATM   25  C   UNL     1      44.019 -19.848   3.092  1.00  0.00     0.039 A 
HETATM   26  C   UNL     1      43.772 -18.951   4.139  1.00  0.00     0.018 A 
HETATM   27  C   UNL     1      43.314 -17.658   3.865  1.00  0.00     0.010 A 
BRANCH  25  28
HETATM   28  C   UNL     1      44.586 -21.207   3.319  1.00  0.00     0.292 C 
HETATM   29  O   UNL     1      44.431 -22.139   2.545  1.00  0.00    -0.259 OA
BRANCH  28  30
HETATM   30  O   UNL     1      45.309 -21.242   4.467  1.00  0.00    -0.323 OA
HETATM   31  C   UNL     1      45.121 -22.431   5.235  1.00  0.00     0.213 C 
ENDBRANCH  28  30
ENDBRANCH  25  28
ENDBRANCH   5  22
BRANCH   1  32
HETATM   32  C   UNL     1      41.956 -13.022   5.460  1.00  0.00     0.133 C 
BRANCH  32  33
HETATM   33  C   UNL     1      41.590 -11.648   4.899  1.00  0.00     0.020 C 
BRANCH  33  34
HETATM   34  C   UNL     1      40.290 -11.154   5.542  1.00  0.00    -0.003 C 
HETATM   35  C   UNL     1      39.175 -10.995   4.524  1.00  0.00     0.005 C 
ENDBRANCH  33  34
ENDBRANCH  32  33
ENDBRANCH   1  32
TORSDOF 9
ENDMDL
MODEL 2
REMARK VINA RESULT:      -7.7      1.552      1.999
REMARK  9 active torsions:
REMARK  status: ('A' for Active; 'I' for Inactive)
REMARK    1  A    between atoms: C_2  and  C_3 
REMARK    2  A    between atoms: C_3  and  C_4 
REMARK    3  A    between atoms: C_4  and  N_5 
REMARK    4  A    between atoms: C_9  and  C_10 
REMARK    5  A    between atoms: C_13  and  C_14 
REMARK    6  A    between atoms: C_14  and  O_15 
REMARK    7  A    between atoms: C_20  and  C_21 
REMARK       I    between atoms: C_21  and  N_22 
REMARK    8  A    between atoms: N_22  and  C_23 
REMARK    9  A    between atoms: C_24  and  O_25 
ROOT
HETATM    1  N   UNL     1      41.247 -13.865   3.192  1.00  0.00    -0.303 N 
HETATM    2  C   UNL     1      42.609 -13.791   3.472  1.00  0.00     0.323 C 
HETATM    3  O   UNL     1      43.124 -12.943   4.198  1.00  0.00    -0.247 OA
HETATM    4  N   UNL     1      43.412 -14.700   2.860  1.00  0.00    -0.330 N 
HETATM    5  C   UNL     1      42.965 -15.866   2.141  1.00  0.00     0.160 C 
HETATM    6  C   UNL     1      41.527 -15.718   1.735  1.00  0.00     0.059 C 
HETATM    7  C   UNL     1      40.696 -14.850   2.353  1.00  0.00     0.026 C 
HETATM    8  C   UNL     1      39.193 -14.907   2.200  1.00  0.00     0.069 C 
HETATM    9  H   UNL     1      44.380 -14.649   3.143  1.00  0.00     0.165 HD
ENDROOT
BRANCH   6  10
HETATM   10  C   UNL     1      41.097 -16.651   0.654  1.00  0.00     0.256 C 
HETATM   11  N   UNL     1      40.961 -16.237  -0.639  1.00  0.00    -0.321 N 
HETATM   12  H   UNL     1      40.426 -16.901  -1.193  1.00  0.00     0.169 HD
HETATM   13  O   UNL     1      40.838 -17.825   0.919  1.00  0.00    -0.267 OA
BRANCH  11  14
HETATM   14  C   UNL     1      41.259 -15.037  -1.312  1.00  0.00     0.068 A 
HETATM   15  C   UNL     1      41.006 -15.016  -2.695  1.00  0.00     0.095 A 
HETATM   16  C   UNL     1      41.201 -13.855  -3.443  1.00  0.00     0.039 A 
HETATM   17  C   UNL     1      41.646 -12.696  -2.808  1.00  0.00     0.003 A 
HETATM   18  C   UNL     1      41.929 -12.716  -1.442  1.00  0.00     0.002 A 
HETATM   19  C   UNL     1      41.751 -13.886  -0.697  1.00  0.00     0.032 A 
BRANCH  15  20
HETATM   20  O   UNL     1      40.567 -16.178  -3.288  1.00  0.00    -0.354 OA
HETATM   21  C   UNL     1      39.302 -15.998  -3.926  1.00  0.00     0.210 C 
ENDBRANCH  15  20
ENDBRANCH  11  14
ENDBRANCH   6  10
BRANCH   5  22
HETATM   22  C   UNL     1      43.225 -17.120   2.972  1.00  0.00    -0.031 A 
HETATM   23  C   UNL     1      43.974 -18.194   2.462  1.00  0.00     0.010 A 
HETATM   24  C   UNL     1      44.307 -19.284   3.273  1.00  0.00     0.018 A 
HETATM   25  C   UNL     1      43.889 -19.325   4.607  1.00  0.00     0.039 A 
HETATM   26  C   UNL     1      43.100 -18.283   5.111  1.00  0.00     0.018 A 
HETATM   27  C   UNL     1      42.771 -17.192   4.298  1.00  0.00     0.010 A 
BRANCH  25  28
HETATM   28  C   UNL     1      44.338 -20.468   5.450  1.00  0.00     0.292 C 
HETATM   29  O   UNL     1      43.931 -20.668   6.584  1.00  0.00    -0.259 OA
BRANCH  28  30
HETATM   30  O   UNL     1      45.217 -21.249   4.774  1.00  0.00    -0.323 OA
HETATM   31  C   UNL     1      44.840 -22.625   4.710  1.00  0.00     0.213 C 
ENDBRANCH  28  30
ENDBRANCH  25  28
ENDBRANCH   5  22
BRANCH   1  32
HETATM   32  C   UNL     1      40.445 -12.714   3.626  1.00  0.00     0.133 C 
BRANCH  32  33
HETATM   33  C   UNL     1      40.627 -11.458   2.775  1.00  0.00     0.020 C 
BRANCH  33  34
HETATM   34  C   UNL     1      39.524 -11.384   1.714  1.00  0.00    -0.003 C 
HETATM   35  C   UNL     1      38.141 -11.306   2.335  1.00  0.00     0.005 C 
ENDBRANCH  33  34
ENDBRANCH  32  33
ENDBRANCH   1  32
TORSDOF 9
ENDMDL
MODEL 3
REMARK VINA RESULT:      -7.6      0.924      1.688
REMARK  9 active torsions:
REMARK  status: ('A' for Active; 'I' for Inactive)
REMARK    1  A    between atoms: C_2  and  C_3 
REMARK    2  A    between atoms: C_3  and  C_4 
REMARK    3  A    between atoms: C_4  and  N_5 
REMARK    4  A    between atoms: C_9  and  C_10 
REMARK    5  A    between atoms: C_13  and  C_14 
REMARK    6  A    between atoms: C_14  and  O_15 
REMARK    7  A    between atoms: C_20  and  C_21 
REMARK       I    between atoms: C_21  and  N_22 
REMARK    8  A    between atoms: N_22  and  C_23 
REMARK    9  A    between atoms: C_24  and  O_25 
ROOT
HETATM    1  N   UNL     1      42.259 -14.048   4.468  1.00  0.00    -0.303 N 
HETATM    2  C   UNL     1      43.565 -14.158   3.997  1.00  0.00     0.323 C 
HETATM    3  O   UNL     1      44.534 -13.593   4.499  1.00  0.00    -0.247 OA
HETATM    4  N   UNL     1      43.754 -14.910   2.882  1.00  0.00    -0.330 N 
HETATM    5  C   UNL     1      42.778 -15.786   2.284  1.00  0.00     0.160 C 
HETATM    6  C   UNL     1      41.393 -15.423   2.737  1.00  0.00     0.059 C 
HETATM    7  C   UNL     1      41.175 -14.709   3.863  1.00  0.00     0.026 C 
HETATM    8  C   UNL     1      39.815 -14.609   4.517  1.00  0.00     0.069 C 
HETATM    9  H   UNL     1      44.722 -15.013   2.615  1.00  0.00     0.165 HD
ENDROOT
BRANCH   6  10
HETATM   10  C   UNL     1      40.305 -15.974   1.880  1.00  0.00     0.256 C 
HETATM   11  N   UNL     1      39.811 -15.281   0.814  1.00  0.00    -0.321 N 
HETATM   12  H   UNL     1      38.923 -15.660   0.496  1.00  0.00     0.169 HD
HETATM   13  O   UNL     1      39.815 -17.074   2.136  1.00  0.00    -0.267 OA
BRANCH  11  14
HETATM   14  C   UNL     1      40.183 -14.081   0.177  1.00  0.00     0.068 A 
HETATM   15  C   UNL     1      39.548 -12.910   0.629  1.00  0.00     0.095 A 
HETATM   16  C   UNL     1      39.894 -11.661   0.113  1.00  0.00     0.039 A 
HETATM   17  C   UNL     1      40.890 -11.572  -0.859  1.00  0.00     0.003 A 
HETATM   18  C   UNL     1      41.504 -12.732  -1.335  1.00  0.00     0.002 A 
HETATM   19  C   UNL     1      41.142 -13.985  -0.830  1.00  0.00     0.032 A 
BRANCH  15  20
HETATM   20  O   UNL     1      38.570 -13.037   1.589  1.00  0.00    -0.354 OA
HETATM   21  C   UNL     1      38.454 -11.853   2.380  1.00  0.00     0.210 C 
ENDBRANCH  15  20
ENDBRANCH  11  14
ENDBRANCH   6  10
BRANCH   5  22
HETATM   22  C   UNL     1      43.139 -17.241   2.574  1.00  0.00    -0.031 A 
HETATM   23  C   UNL     1      43.270 -18.183   1.539  1.00  0.00     0.010 A 
HETATM   24  C   UNL     1      43.718 -19.481   1.806  1.00  0.00     0.018 A 
HETATM   25  C   UNL     1      44.034 -19.865   3.113  1.00  0.00     0.039 A 
HETATM   26  C   UNL     1      43.860 -18.948   4.157  1.00  0.00     0.018 A 
HETATM   27  C   UNL     1      43.414 -17.649   3.888  1.00  0.00     0.010 A 
BRANCH  25  28
HETATM   28  C   UNL     1      44.584 -21.232   3.331  1.00  0.00     0.292 C 
HETATM   29  O   UNL     1      44.430 -22.152   2.543  1.00  0.00    -0.259 OA
BRANCH  28  30
HETATM   30  O   UNL     1      45.291 -21.288   4.488  1.00  0.00    -0.323 OA
HETATM   31  C   UNL     1      45.127 -22.510   5.208  1.00  0.00     0.213 C 
ENDBRANCH  28  30
ENDBRANCH  25  28
ENDBRANCH   5  22
BRANCH   1  32
HETATM   32  C   UNL     1      42.035 -13.014   5.485  1.00  0.00     0.133 C 
BRANCH  32  33
HETATM   33  C   UNL     1      41.664 -11.642   4.923  1.00  0.00     0.020 C 
BRANCH  33  34
HETATM   34  C   UNL     1      40.956 -10.813   6.000  1.00  0.00    -0.003 C 
HETATM   35  C   UNL     1      39.463 -11.090   6.042  1.00  0.00     0.005 C 
ENDBRANCH  33  34
ENDBRANCH  32  33
ENDBRANCH   1  32
TORSDOF 9
ENDMDL
MODEL 4
REMARK VINA RESULT:      -7.2      2.749      7.919
REMARK  9 active torsions:
REMARK  status: ('A' for Active; 'I' for Inactive)
REMARK    1  A    between atoms: C_2  and  C_3 
REMARK    2  A    between atoms: C_3  and  C_4 
REMARK    3  A    between atoms: C_4  and  N_5 
REMARK    4  A    between atoms: C_9  and  C_10 
REMARK    5  A    between atoms: C_13  and  C_14 
REMARK    6  A    between atoms: C_14  and  O_15 
REMARK    7  A    between atoms: C_20  and  C_21 
REMARK       I    between atoms: C_21  and  N_22 
REMARK    8  A    between atoms: N_22  and  C_23 
REMARK    9  A    between atoms: C_24  and  O_25 
ROOT
HETATM    1  N   UNL     1      40.874 -13.548   1.166  1.00  0.00    -0.303 N 
HETATM    2  C   UNL     1      42.013 -12.770   1.362  1.00  0.00     0.323 C 
HETATM    3  O   UNL     1      42.564 -12.110   0.484  1.00  0.00    -0.247 OA
HETATM    4  N   UNL     1      42.562 -12.790   2.604  1.00  0.00    -0.330 N 
HETATM    5  C   UNL     1      41.950 -13.347   3.785  1.00  0.00     0.160 C 
HETATM    6  C   UNL     1      40.866 -14.316   3.411  1.00  0.00     0.059 C 
HETATM    7  C   UNL     1      40.275 -14.293   2.196  1.00  0.00     0.026 C 
HETATM    8  C   UNL     1      38.980 -15.017   1.903  1.00  0.00     0.069 C 
HETATM    9  H   UNL     1      43.346 -12.164   2.717  1.00  0.00     0.165 HD
ENDROOT
BRANCH   6  10
HETATM   10  C   UNL     1      40.465 -15.239   4.512  1.00  0.00     0.256 C 
HETATM   11  N   UNL     1      40.904 -16.530   4.560  1.00  0.00    -0.321 N 
HETATM   12  H   UNL     1      40.353 -17.091   5.205  1.00  0.00     0.169 HD
HETATM   13  O   UNL     1      39.705 -14.849   5.398  1.00  0.00    -0.267 OA
BRANCH  11  14
HETATM   14  C   UNL     1      41.833 -17.270   3.804  1.00  0.00     0.068 A 
HETATM   15  C   UNL     1      42.995 -17.688   4.477  1.00  0.00     0.095 A 
HETATM   16  C   UNL     1      43.946 -18.485   3.840  1.00  0.00     0.039 A 
HETATM   17  C   UNL     1      43.737 -18.879   2.519  1.00  0.00     0.003 A 
HETATM   18  C   UNL     1      42.602 -18.443   1.833  1.00  0.00     0.002 A 
HETATM   19  C   UNL     1      41.658 -17.629   2.469  1.00  0.00     0.032 A 
BRANCH  15  20
HETATM   20  O   UNL     1      43.168 -17.280   5.780  1.00  0.00    -0.354 OA
HETATM   21  C   UNL     1      44.482 -17.575   6.254  1.00  0.00     0.210 C 
ENDBRANCH  15  20
ENDBRANCH  11  14
ENDBRANCH   6  10
BRANCH   5  22
HETATM   22  C   UNL     1      41.461 -12.223   4.695  1.00  0.00    -0.031 A 
HETATM   23  C   UNL     1      40.502 -11.293   4.259  1.00  0.00     0.010 A 
HETATM   24  C   UNL     1      39.974 -10.343   5.140  1.00  0.00     0.018 A 
HETATM   25  C   UNL     1      40.403 -10.298   6.470  1.00  0.00     0.039 A 
HETATM   26  C   UNL     1      41.394 -11.189   6.901  1.00  0.00     0.018 A 
HETATM   27  C   UNL     1      41.918 -12.140   6.019  1.00  0.00     0.010 A 
BRANCH  25  28
HETATM   28  C   UNL     1      39.751  -9.322   7.387  1.00  0.00     0.292 C 
HETATM   29  O   UNL     1      40.207  -8.214   7.624  1.00  0.00    -0.259 OA
BRANCH  28  30
HETATM   30  O   UNL     1      38.589  -9.822   7.877  1.00  0.00    -0.323 OA
HETATM   31  C   UNL     1      38.610 -10.065   9.283  1.00  0.00     0.213 C 
ENDBRANCH  28  30
ENDBRANCH  25  28
ENDBRANCH   5  22
BRANCH   1  32
HETATM   32  C   UNL     1      40.470 -13.740  -0.233  1.00  0.00     0.133 C 
BRANCH  32  33
HETATM   33  C   UNL     1      41.105 -14.951  -0.915  1.00  0.00     0.020 C 
BRANCH  33  34
HETATM   34  C   UNL     1      41.135 -14.737  -2.432  1.00  0.00    -0.003 C 
HETATM   35  C   UNL     1      40.358 -15.809  -3.175  1.00  0.00     0.005 C 
ENDBRANCH  33  34
ENDBRANCH  32  33
ENDBRANCH   1  32
TORSDOF 9
ENDMDL
MODEL 5
REMARK VINA RESULT:      -7.1      1.413      1.881
REMARK  9 active torsions:
REMARK  status: ('A' for Active; 'I' for Inactive)
REMARK    1  A    between atoms: C_2  and  C_3 
REMARK    2  A    between atoms: C_3  and  C_4 
REMARK    3  A    between atoms: C_4  and  N_5 
REMARK    4  A    between atoms: C_9  and  C_10 
REMARK    5  A    between atoms: C_13  and  C_14 
REMARK    6  A    between atoms: C_14  and  O_15 
REMARK    7  A    between atoms: C_20  and  C_21 
REMARK       I    between atoms: C_21  and  N_22 
REMARK    8  A    between atoms: N_22  and  C_23 
REMARK    9  A    between atoms: C_24  and  O_25 
ROOT
HETATM    1  N   UNL     1      41.305 -13.993   3.577  1.00  0.00    -0.303 N 
HETATM    2  C   UNL     1      42.673 -13.852   3.799  1.00  0.00     0.323 C 
HETATM    3  O   UNL     1      43.165 -13.173   4.698  1.00  0.00    -0.247 OA
HETATM    4  N   UNL     1      43.504 -14.477   2.925  1.00  0.00    -0.330 N 
HETATM    5  C   UNL     1      43.108 -15.455   1.943  1.00  0.00     0.160 C 
HETATM    6  C   UNL     1      41.636 -15.359   1.664  1.00  0.00     0.059 C 
HETATM    7  C   UNL     1      40.781 -14.776   2.534  1.00  0.00     0.026 C 
HETATM    8  C   UNL     1      39.282 -14.950   2.447  1.00  0.00     0.069 C 
HETATM    9  H   UNL     1      44.483 -14.400   3.162  1.00  0.00     0.165 HD
ENDROOT
BRANCH   6  10
HETATM   10  C   UNL     1      41.209 -16.016   0.396  1.00  0.00     0.256 C 
HETATM   11  N   UNL     1      40.897 -15.292  -0.717  1.00  0.00    -0.321 N 
HETATM   12  H   UNL     1      40.389 -15.849  -1.400  1.00  0.00     0.169 HD
HETATM   13  O   UNL     1      41.113 -17.242   0.338  1.00  0.00    -0.267 OA
BRANCH  11  14
HETATM   14  C   UNL     1      40.987 -13.926  -1.045  1.00  0.00     0.068 A 
HETATM   15  C   UNL     1      39.769 -13.240  -1.209  1.00  0.00     0.095 A 
HETATM   16  C   UNL     1      39.746 -11.870  -1.467  1.00  0.00     0.039 A 
HETATM   17  C   UNL     1      40.948 -11.168  -1.555  1.00  0.00     0.003 A 
HETATM   18  C   UNL     1      42.161 -11.845  -1.424  1.00  0.00     0.002 A 
HETATM   19  C   UNL     1      42.183 -13.223  -1.185  1.00  0.00     0.032 A 
BRANCH  15  20
HETATM   20  O   UNL     1      38.604 -13.965  -1.115  1.00  0.00    -0.354 OA
HETATM   21  C   UNL     1      37.967 -14.105  -2.386  1.00  0.00     0.210 C 
ENDBRANCH  15  20
ENDBRANCH  11  14
ENDBRANCH   6  10
BRANCH   5  22
HETATM   22  C   UNL     1      43.542 -16.848   2.392  1.00  0.00    -0.031 A 
HETATM   23  C   UNL     1      43.333 -17.290   3.710  1.00  0.00     0.010 A 
HETATM   24  C   UNL     1      43.626 -18.607   4.077  1.00  0.00     0.018 A 
HETATM   25  C   UNL     1      44.142 -19.505   3.137  1.00  0.00     0.039 A 
HETATM   26  C   UNL     1      44.399 -19.061   1.835  1.00  0.00     0.018 A 
HETATM   27  C   UNL     1      44.103 -17.743   1.468  1.00  0.00     0.010 A 
BRANCH  25  28
HETATM   28  C   UNL     1      44.359 -20.917   3.558  1.00  0.00     0.292 C 
HETATM   29  O   UNL     1      44.351 -21.860   2.782  1.00  0.00    -0.259 OA
BRANCH  28  30
HETATM   30  O   UNL     1      44.594 -20.992   4.892  1.00  0.00    -0.323 OA
HETATM   31  C   UNL     1      45.070 -22.266   5.326  1.00  0.00     0.213 C 
ENDBRANCH  28  30
ENDBRANCH  25  28
ENDBRANCH   5  22
BRANCH   1  32
HETATM   32  C   UNL     1      40.440 -13.088   4.345  1.00  0.00     0.133 C 
BRANCH  32  33
HETATM   33  C   UNL     1      40.549 -11.617   3.945  1.00  0.00     0.020 C 
BRANCH  33  34
HETATM   34  C   UNL     1      40.111 -11.440   2.488  1.00  0.00    -0.003 C 
HETATM   35  C   UNL     1      40.327 -10.020   1.996  1.00  0.00     0.005 C 
ENDBRANCH  33  34
ENDBRANCH  32  33
ENDBRANCH   1  32
TORSDOF 9
ENDMDL
MODEL 6
REMARK VINA RESULT:      -7.1      2.169      5.207
REMARK  9 active torsions:
REMARK  status: ('A' for Active; 'I' for Inactive)
REMARK    1  A    between atoms: C_2  and  C_3 
REMARK    2  A    between atoms: C_3  and  C_4 
REMARK    3  A    between atoms: C_4  and  N_5 
REMARK    4  A    between atoms: C_9  and  C_10 
REMARK    5  A    between atoms: C_13  and  C_14 
REMARK    6  A    between atoms: C_14  and  O_15 
REMARK    7  A    between atoms: C_20  and  C_21 
REMARK       I    between atoms: C_21  and  N_22 
REMARK    8  A    between atoms: N_22  and  C_23 
REMARK    9  A    between atoms: C_24  and  O_25 
ROOT
HETATM    1  N   UNL     1      41.336 -12.894  -1.042  1.00  0.00    -0.303 N 
HETATM    2  C   UNL     1      41.280 -14.117  -1.707  1.00  0.00     0.323 C 
HETATM    3  O   UNL     1      41.728 -14.316  -2.834  1.00  0.00    -0.247 OA
HETATM    4  N   UNL     1      40.644 -15.133  -1.069  1.00  0.00    -0.330 N 
HETATM    5  C   UNL     1      40.234 -15.132   0.313  1.00  0.00     0.160 C 
HETATM    6  C   UNL     1      40.153 -13.728   0.839  1.00  0.00     0.059 C 
HETATM    7  C   UNL     1      40.807 -12.705   0.247  1.00  0.00     0.026 C 
HETATM    8  C   UNL     1      41.016 -11.368   0.922  1.00  0.00     0.069 C 
HETATM    9  H   UNL     1      40.684 -16.015  -1.560  1.00  0.00     0.165 HD
ENDROOT
BRANCH   6  10
HETATM   10  C   UNL     1      39.356 -13.590   2.092  1.00  0.00     0.256 C 
HETATM   11  N   UNL     1      39.918 -13.765   3.322  1.00  0.00    -0.321 N 
HETATM   12  H   UNL     1      39.213 -13.892   4.044  1.00  0.00     0.169 HD
HETATM   13  O   UNL     1      38.155 -13.329   2.032  1.00  0.00    -0.267 OA
BRANCH  11  14
HETATM   14  C   UNL     1      41.238 -13.963   3.769  1.00  0.00     0.068 A 
HETATM   15  C   UNL     1      41.428 -14.967   4.735  1.00  0.00     0.095 A 
HETATM   16  C   UNL     1      42.705 -15.290   5.193  1.00  0.00     0.039 A 
HETATM   17  C   UNL     1      43.810 -14.612   4.681  1.00  0.00     0.003 A 
HETATM   18  C   UNL     1      43.629 -13.593   3.745  1.00  0.00     0.002 A 
HETATM   19  C   UNL     1      42.345 -13.257   3.300  1.00  0.00     0.032 A 
BRANCH  15  20
HETATM   20  O   UNL     1      40.315 -15.615   5.218  1.00  0.00    -0.354 OA
HETATM   21  C   UNL     1      40.649 -16.525   6.267  1.00  0.00     0.210 C 
ENDBRANCH  15  20
ENDBRANCH  11  14
ENDBRANCH   6  10
BRANCH   5  22
HETATM   22  C   UNL     1      41.163 -16.026   1.131  1.00  0.00    -0.031 A 
HETATM   23  C   UNL     1      40.659 -17.037   1.966  1.00  0.00     0.010 A 
HETATM   24  C   UNL     1      41.522 -17.925   2.616  1.00  0.00     0.018 A 
HETATM   25  C   UNL     1      42.906 -17.812   2.452  1.00  0.00     0.039 A 
HETATM   26  C   UNL     1      43.421 -16.777   1.661  1.00  0.00     0.018 A 
HETATM   27  C   UNL     1      42.555 -15.892   1.009  1.00  0.00     0.010 A 
BRANCH  25  28
HETATM   28  C   UNL     1      43.777 -18.832   3.100  1.00  0.00     0.292 C 
HETATM   29  O   UNL     1      44.190 -19.827   2.525  1.00  0.00    -0.259 OA
BRANCH  28  30
HETATM   30  O   UNL     1      44.062 -18.481   4.379  1.00  0.00    -0.323 OA
HETATM   31  C   UNL     1      44.820 -19.457   5.094  1.00  0.00     0.213 C 
ENDBRANCH  28  30
ENDBRANCH  25  28
ENDBRANCH   5  22
BRANCH   1  32
HETATM   32  C   UNL     1      41.763 -11.748  -1.854  1.00  0.00     0.133 C 
BRANCH  32  33
HETATM   33  C   UNL     1      43.246 -11.399  -1.726  1.00  0.00     0.020 C 
BRANCH  33  34
HETATM   34  C   UNL     1      43.414  -9.881  -1.600  1.00  0.00    -0.003 C 
HETATM   35  C   UNL     1      42.710  -9.134  -2.718  1.00  0.00     0.005 C 
ENDBRANCH  33  34
ENDBRANCH  32  33
ENDBRANCH   1  32
TORSDOF 9
ENDMDL
MODEL 7
REMARK VINA RESULT:      -6.9      2.157      6.827
REMARK  9 active torsions:
REMARK  status: ('A' for Active; 'I' for Inactive)
REMARK    1  A    between atoms: C_2  and  C_3 
REMARK    2  A    between atoms: C_3  and  C_4 
REMARK    3  A    between atoms: C_4  and  N_5 
REMARK    4  A    between atoms: C_9  and  C_10 
REMARK    5  A    between atoms: C_13  and  C_14 
REMARK    6  A    between atoms: C_14  and  O_15 
REMARK    7  A    between atoms: C_20  and  C_21 
REMARK       I    between atoms: C_21  and  N_22 
REMARK    8  A    between atoms: N_22  and  C_23 
REMARK    9  A    between atoms: C_24  and  O_25 
ROOT
HETATM    1  N   UNL     1      42.900 -17.534   4.464  1.00  0.00    -0.303 N 
HETATM    2  C   UNL     1      42.798 -18.048   3.173  1.00  0.00     0.323 C 
HETATM    3  O   UNL     1      42.615 -19.235   2.910  1.00  0.00    -0.247 OA
HETATM    4  N   UNL     1      42.957 -17.171   2.149  1.00  0.00    -0.330 N 
HETATM    5  C   UNL     1      42.986 -15.734   2.270  1.00  0.00     0.160 C 
HETATM    6  C   UNL     1      43.299 -15.329   3.681  1.00  0.00     0.059 C 
HETATM    7  C   UNL     1      43.114 -16.169   4.723  1.00  0.00     0.026 C 
HETATM    8  C   UNL     1      43.101 -15.698   6.160  1.00  0.00     0.069 C 
HETATM    9  H   UNL     1      42.811 -17.575   1.235  1.00  0.00     0.165 HD
ENDROOT
BRANCH   6  10
HETATM   10  C   UNL     1      43.757 -13.917   3.825  1.00  0.00     0.256 C 
HETATM   11  N   UNL     1      42.882 -12.901   4.072  1.00  0.00    -0.321 N 
HETATM   12  H   UNL     1      43.299 -11.991   3.889  1.00  0.00     0.169 HD
HETATM   13  O   UNL     1      44.950 -13.641   3.701  1.00  0.00    -0.267 OA
BRANCH  11  14
HETATM   14  C   UNL     1      41.506 -12.852   4.367  1.00  0.00     0.068 A 
HETATM   15  C   UNL     1      40.713 -12.058   3.519  1.00  0.00     0.095 A 
HETATM   16  C   UNL     1      39.329 -11.997   3.682  1.00  0.00     0.039 A 
HETATM   17  C   UNL     1      38.723 -12.739   4.695  1.00  0.00     0.003 A 
HETATM   18  C   UNL     1      39.505 -13.506   5.560  1.00  0.00     0.002 A 
HETATM   19  C   UNL     1      40.895 -13.551   5.407  1.00  0.00     0.032 A 
BRANCH  15  20
HETATM   20  O   UNL     1      41.345 -11.339   2.531  1.00  0.00    -0.354 OA
HETATM   21  C   UNL     1      40.426 -10.522   1.806  1.00  0.00     0.210 C 
ENDBRANCH  15  20
ENDBRANCH  11  14
ENDBRANCH   6  10
BRANCH   5  22
HETATM   22  C   UNL     1      41.677 -15.143   1.754  1.00  0.00    -0.031 A 
HETATM   23  C   UNL     1      41.656 -14.228   0.688  1.00  0.00     0.010 A 
HETATM   24  C   UNL     1      40.445 -13.786   0.147  1.00  0.00     0.018 A 
HETATM   25  C   UNL     1      39.229 -14.244   0.667  1.00  0.00     0.039 A 
HETATM   26  C   UNL     1      39.239 -15.118   1.761  1.00  0.00     0.018 A 
HETATM   27  C   UNL     1      40.452 -15.561   2.299  1.00  0.00     0.010 A 
BRANCH  25  28
HETATM   28  C   UNL     1      37.970 -13.807   0.003  1.00  0.00     0.292 C 
HETATM   29  O   UNL     1      37.756 -13.948  -1.191  1.00  0.00    -0.259 OA
BRANCH  28  30
HETATM   30  O   UNL     1      37.108 -13.275   0.905  1.00  0.00    -0.323 OA
HETATM   31  C   UNL     1      36.947 -11.861   0.789  1.00  0.00     0.213 C 
ENDBRANCH  28  30
ENDBRANCH  25  28
ENDBRANCH   5  22
BRANCH   1  32
HETATM   32  C   UNL     1      43.014 -18.529   5.537  1.00  0.00     0.133 C 
BRANCH  32  33
HETATM   33  C   UNL     1      44.416 -19.108   5.719  1.00  0.00     0.020 C 
BRANCH  33  34
HETATM   34  C   UNL     1      44.346 -20.638   5.761  1.00  0.00    -0.003 C 
HETATM   35  C   UNL     1      43.698 -21.144   7.037  1.00  0.00     0.005 C 
ENDBRANCH  33  34
ENDBRANCH  32  33
ENDBRANCH   1  32
TORSDOF 9
ENDMDL
MODEL 8
REMARK VINA RESULT:      -6.9      2.294      5.466
REMARK  9 active torsions:
REMARK  status: ('A' for Active; 'I' for Inactive)
REMARK    1  A    between atoms: C_2  and  C_3 
REMARK    2  A    between atoms: C_3  and  C_4 
REMARK    3  A    between atoms: C_4  and  N_5 
REMARK    4  A    between atoms: C_9  and  C_10 
REMARK    5  A    between atoms: C_13  and  C_14 
REMARK    6  A    between atoms: C_14  and  O_15 
REMARK    7  A    between atoms: C_20  and  C_21 
REMARK       I    between atoms: C_21  and  N_22 
REMARK    8  A    between atoms: N_22  and  C_23 
REMARK    9  A    between atoms: C_24  and  O_25 
ROOT
HETATM    1  N   UNL     1      41.245 -13.758  -1.989  1.00  0.00    -0.303 N 
HETATM    2  C   UNL     1      40.301 -14.768  -1.818  1.00  0.00     0.323 C 
HETATM    3  O   UNL     1      39.725 -15.344  -2.739  1.00  0.00    -0.247 OA
HETATM    4  N   UNL     1      39.975 -15.092  -0.541  1.00  0.00    -0.330 N 
HETATM    5  C   UNL     1      40.678 -14.661   0.641  1.00  0.00     0.160 C 
HETATM    6  C   UNL     1      41.508 -13.445   0.349  1.00  0.00     0.059 C 
HETATM    7  C   UNL     1      41.879 -13.119  -0.909  1.00  0.00     0.026 C 
HETATM    8  C   UNL     1      42.968 -12.113  -1.206  1.00  0.00     0.069 C 
HETATM    9  H   UNL     1      39.336 -15.871  -0.465  1.00  0.00     0.165 HD
ENDROOT
BRANCH   6  10
HETATM   10  C   UNL     1      41.932 -12.687   1.561  1.00  0.00     0.256 C 
HETATM   11  N   UNL     1      41.266 -11.572   1.979  1.00  0.00    -0.321 N 
HETATM   12  H   UNL     1      41.813 -11.034   2.646  1.00  0.00     0.169 HD
HETATM   13  O   UNL     1      42.916 -13.052   2.203  1.00  0.00    -0.267 OA
BRANCH  11  14
HETATM   14  C   UNL     1      40.077 -10.940   1.570  1.00  0.00     0.068 A 
HETATM   15  C   UNL     1      38.919 -11.246   2.308  1.00  0.00     0.095 A 
HETATM   16  C   UNL     1      37.704 -10.621   2.029  1.00  0.00     0.039 A 
HETATM   17  C   UNL     1      37.637  -9.674   1.009  1.00  0.00     0.003 A 
HETATM   18  C   UNL     1      38.773  -9.386   0.251  1.00  0.00     0.002 A 
HETATM   19  C   UNL     1      39.987 -10.027   0.520  1.00  0.00     0.032 A 
BRANCH  15  20
HETATM   20  O   UNL     1      39.022 -12.186   3.308  1.00  0.00    -0.354 OA
HETATM   21  C   UNL     1      38.800 -11.611   4.596  1.00  0.00     0.210 C 
ENDBRANCH  15  20
ENDBRANCH  11  14
ENDBRANCH   6  10
BRANCH   5  22
HETATM   22  C   UNL     1      41.494 -15.819   1.212  1.00  0.00    -0.031 A 
HETATM   23  C   UNL     1      41.210 -16.362   2.477  1.00  0.00     0.010 A 
HETATM   24  C   UNL     1      41.885 -17.497   2.936  1.00  0.00     0.018 A 
HETATM   25  C   UNL     1      42.864 -18.106   2.144  1.00  0.00     0.039 A 
HETATM   26  C   UNL     1      43.189 -17.543   0.903  1.00  0.00     0.018 A 
HETATM   27  C   UNL     1      42.510 -16.409   0.444  1.00  0.00     0.010 A 
BRANCH  25  28
HETATM   28  C   UNL     1      43.494 -19.359   2.644  1.00  0.00     0.292 C 
HETATM   29  O   UNL     1      44.117 -19.427   3.693  1.00  0.00    -0.259 OA
BRANCH  28  30
HETATM   30  O   UNL     1      43.249 -20.393   1.801  1.00  0.00    -0.323 OA
HETATM   31  C   UNL     1      44.038 -21.554   2.062  1.00  0.00     0.213 C 
ENDBRANCH  28  30
ENDBRANCH  25  28
ENDBRANCH   5  22
BRANCH   1  32
HETATM   32  C   UNL     1      41.369 -13.228  -3.353  1.00  0.00     0.133 C 
BRANCH  32  33
HETATM   33  C   UNL     1      40.304 -12.198  -3.731  1.00  0.00     0.020 C 
BRANCH  33  34
HETATM   34  C   UNL     1      40.976 -10.890  -4.162  1.00  0.00    -0.003 C 
HETATM   35  C   UNL     1      42.362 -11.123  -4.737  1.00  0.00     0.005 C 
ENDBRANCH  33  34
ENDBRANCH  32  33
ENDBRANCH   1  32
TORSDOF 9
ENDMDL
MODEL 9
REMARK VINA RESULT:      -6.7      1.829      5.463
REMARK  9 active torsions:
REMARK  status: ('A' for Active; 'I' for Inactive)
REMARK    1  A    between atoms: C_2  and  C_3 
REMARK    2  A    between atoms: C_3  and  C_4 
REMARK    3  A    between atoms: C_4  and  N_5 
REMARK    4  A    between atoms: C_9  and  C_10 
REMARK    5  A    between atoms: C_13  and  C_14 
REMARK    6  A    between atoms: C_14  and  O_15 
REMARK    7  A    between atoms: C_20  and  C_21 
REMARK       I    between atoms: C_21  and  N_22 
REMARK    8  A    between atoms: N_22  and  C_23 
REMARK    9  A    between atoms: C_24  and  O_25 
ROOT
HETATM    1  N   UNL     1      39.486 -13.522   0.704  1.00  0.00    -0.303 N 
HETATM    2  C   UNL     1      38.632 -14.386   1.386  1.00  0.00     0.323 C 
HETATM    3  O   UNL     1      37.531 -14.744   0.973  1.00  0.00    -0.247 OA
HETATM    4  N   UNL     1      39.043 -14.818   2.606  1.00  0.00    -0.330 N 
HETATM    5  C   UNL     1      40.367 -14.656   3.152  1.00  0.00     0.160 C 
HETATM    6  C   UNL     1      41.102 -13.556   2.442  1.00  0.00     0.059 C 
HETATM    7  C   UNL     1      40.738 -13.133   1.212  1.00  0.00     0.026 C 
HETATM    8  C   UNL     1      41.633 -12.277   0.344  1.00  0.00     0.069 C 
HETATM    9  H   UNL     1      38.424 -15.492   3.033  1.00  0.00     0.165 HD
ENDROOT
BRANCH   6  10
HETATM   10  C   UNL     1      42.287 -13.035   3.182  1.00  0.00     0.256 C 
HETATM   11  N   UNL     1      42.207 -11.928   3.976  1.00  0.00    -0.321 N 
HETATM   12  H   UNL     1      43.127 -11.556   4.198  1.00  0.00     0.169 HD
HETATM   13  O   UNL     1      43.378 -13.594   3.072  1.00  0.00    -0.267 OA
BRANCH  11  14
HETATM   14  C   UNL     1      41.141 -11.118   4.410  1.00  0.00     0.068 A 
HETATM   15  C   UNL     1      40.918 -11.067   5.798  1.00  0.00     0.095 A 
HETATM   16  C   UNL     1      39.932 -10.241   6.337  1.00  0.00     0.039 A 
HETATM   17  C   UNL     1      39.162  -9.448   5.488  1.00  0.00     0.003 A 
HETATM   18  C   UNL     1      39.354  -9.515   4.107  1.00  0.00     0.002 A 
HETATM   19  C   UNL     1      40.331 -10.358   3.567  1.00  0.00     0.032 A 
BRANCH  15  20
HETATM   20  O   UNL     1      41.698 -11.863   6.605  1.00  0.00    -0.354 OA
HETATM   21  C   UNL     1      42.243 -11.127   7.701  1.00  0.00     0.210 C 
ENDBRANCH  15  20
ENDBRANCH  11  14
ENDBRANCH   6  10
BRANCH   5  22
HETATM   22  C   UNL     1      41.110 -15.990   3.118  1.00  0.00    -0.031 A 
HETATM   23  C   UNL     1      41.415 -16.627   1.903  1.00  0.00     0.010 A 
HETATM   24  C   UNL     1      42.199 -17.785   1.879  1.00  0.00     0.018 A 
HETATM   25  C   UNL     1      42.684 -18.334   3.070  1.00  0.00     0.039 A 
HETATM   26  C   UNL     1      42.344 -17.735   4.289  1.00  0.00     0.018 A 
HETATM   27  C   UNL     1      41.563 -16.574   4.311  1.00  0.00     0.010 A 
BRANCH  25  28
HETATM   28  C   UNL     1      43.581 -19.520   2.984  1.00  0.00     0.292 C 
HETATM   29  O   UNL     1      43.586 -20.292   2.038  1.00  0.00    -0.259 OA
BRANCH  28  30
HETATM   30  O   UNL     1      44.393 -19.591   4.068  1.00  0.00    -0.323 OA
HETATM   31  C   UNL     1      45.004 -20.868   4.252  1.00  0.00     0.213 C 
ENDBRANCH  28  30
ENDBRANCH  25  28
ENDBRANCH   5  22
BRANCH   1  32
HETATM   32  C   UNL     1      38.906 -12.846  -0.464  1.00  0.00     0.133 C 
BRANCH  32  33
HETATM   33  C   UNL     1      38.746 -13.736  -1.695  1.00  0.00     0.020 C 
BRANCH  33  34
HETATM   34  C   UNL     1      40.092 -13.879  -2.413  1.00  0.00    -0.003 C 
HETATM   35  C   UNL     1      40.717 -15.244  -2.187  1.00  0.00     0.005 C 
ENDBRANCH  33  34
ENDBRANCH  32  33
ENDBRANCH   1  32
TORSDOF 9
ENDMDL
MODEL 10
REMARK VINA RESULT:      -6.6      1.655      2.234
REMARK  9 active torsions:
REMARK  status: ('A' for Active; 'I' for Inactive)
REMARK    1  A    between atoms: C_2  and  C_3 
REMARK    2  A    between atoms: C_3  and  C_4 
REMARK    3  A    between atoms: C_4  and  N_5 
REMARK    4  A    between atoms: C_9  and  C_10 
REMARK    5  A    between atoms: C_13  and  C_14 
REMARK    6  A    between atoms: C_14  and  O_15 
REMARK    7  A    between atoms: C_20  and  C_21 
REMARK       I    between atoms: C_21  and  N_22 
REMARK    8  A    between atoms: N_22  and  C_23 
REMARK    9  A    between atoms: C_24  and  O_25 
ROOT
HETATM    1  N   UNL     1      41.724 -13.394   4.920  1.00  0.00    -0.303 N 
HETATM    2  C   UNL     1      43.115 -13.412   4.991  1.00  0.00     0.323 C 
HETATM    3  O   UNL     1      43.767 -13.013   5.954  1.00  0.00    -0.247 OA
HETATM    4  N   UNL     1      43.779 -13.864   3.896  1.00  0.00    -0.330 N 
HETATM    5  C   UNL     1      43.182 -14.540   2.771  1.00  0.00     0.160 C 
HETATM    6  C   UNL     1      41.707 -14.270   2.715  1.00  0.00     0.059 C 
HETATM    7  C   UNL     1      41.014 -13.856   3.798  1.00  0.00     0.026 C 
HETATM    8  C   UNL     1      39.504 -13.893   3.867  1.00  0.00     0.069 C 
HETATM    9  H   UNL     1      44.780 -13.920   4.017  1.00  0.00     0.165 HD
ENDROOT
BRANCH   6  10
HETATM   10  C   UNL     1      41.082 -14.564   1.393  1.00  0.00     0.256 C 
HETATM   11  N   UNL     1      40.941 -13.601   0.437  1.00  0.00    -0.321 N 
HETATM   12  H   UNL     1      40.282 -13.881  -0.286  1.00  0.00     0.169 HD
HETATM   13  O   UNL     1      40.660 -15.694   1.148  1.00  0.00    -0.267 OA
BRANCH  11  14
HETATM   14  C   UNL     1      41.383 -12.269   0.325  1.00  0.00     0.068 A 
HETATM   15  C   UNL     1      42.308 -12.001  -0.701  1.00  0.00     0.095 A 
HETATM   16  C   UNL     1      42.755 -10.701  -0.940  1.00  0.00     0.039 A 
HETATM   17  C   UNL     1      42.274  -9.654  -0.157  1.00  0.00     0.003 A 
HETATM   18  C   UNL     1      41.381  -9.915   0.883  1.00  0.00     0.002 A 
HETATM   19  C   UNL     1      40.947 -11.221   1.134  1.00  0.00     0.032 A 
BRANCH  15  20
HETATM   20  O   UNL     1      42.760 -13.059  -1.453  1.00  0.00    -0.354 OA
HETATM   21  C   UNL     1      42.495 -12.867  -2.844  1.00  0.00     0.210 C 
ENDBRANCH  15  20
ENDBRANCH  11  14
ENDBRANCH   6  10
BRANCH   5  22
HETATM   22  C   UNL     1      43.517 -16.029   2.823  1.00  0.00    -0.031 A 
HETATM   23  C   UNL     1      43.338 -16.779   3.999  1.00  0.00     0.010 A 
HETATM   24  C   UNL     1      43.534 -18.164   4.000  1.00  0.00     0.018 A 
HETATM   25  C   UNL     1      43.921 -18.825   2.830  1.00  0.00     0.039 A 
HETATM   26  C   UNL     1      44.148 -18.079   1.666  1.00  0.00     0.018 A 
HETATM   27  C   UNL     1      43.949 -16.694   1.665  1.00  0.00     0.010 A 
BRANCH  25  28
HETATM   28  C   UNL     1      44.035 -20.309   2.865  1.00  0.00     0.292 C 
HETATM   29  O   UNL     1      44.480 -20.927   3.820  1.00  0.00    -0.259 OA
BRANCH  28  30
HETATM   30  O   UNL     1      43.554 -20.857   1.721  1.00  0.00    -0.323 OA
HETATM   31  C   UNL     1      44.111 -22.134   1.411  1.00  0.00     0.213 C 
ENDBRANCH  28  30
ENDBRANCH  25  28
ENDBRANCH   5  22
BRANCH   1  32
HETATM   32  C   UNL     1      41.044 -12.642   5.982  1.00  0.00     0.133 C 
BRANCH  32  33
HETATM   33  C   UNL     1      40.935 -11.139   5.726  1.00  0.00     0.020 C 
BRANCH  33  34
HETATM   34  C   UNL     1      40.392 -10.437   6.974  1.00  0.00    -0.003 C 
HETATM   35  C   UNL     1      41.496  -9.789   7.790  1.00  0.00     0.005 C 
ENDBRANCH  33  34
ENDBRANCH  32  33
ENDBRANCH   1  32
TORSDOF 9
ENDMDL
