MODEL 1
REMARK VINA RESULT:      -8.8      0.000      0.000
REMARK  5 active torsions:
REMARK  status: ('A' for Active; 'I' for Inactive)
REMARK    1  A    between atoms: C_3  and  C_4 
REMARK    2  A    between atoms: C_9  and  C_10 
REMARK    3  A    between atoms: C_10  and  C_11 
REMARK       I    between atoms: C_11  and  N_12 
REMARK    4  A    between atoms: N_12  and  C_13 
REMARK    5  A    between atoms: C_20  and  C_21 
REMARK       I    between atoms: C_21  and  N_22 
ROOT
HETATM    1  C   UNL     1      40.585 -14.065   2.397  1.00  0.00     0.035 A 
HETATM    2  C   UNL     1      40.530 -13.601   3.719  1.00  0.00     0.046 A 
HETATM    3  C   UNL     1      39.620 -12.577   4.065  1.00  0.00     0.030 A 
HETATM    4  C   UNL     1      38.800 -12.048   3.076  1.00  0.00     0.063 A 
HETATM    5  N   UNL     1      38.043 -11.097   3.703  1.00  0.00    -0.277 N 
HETATM    6  H   UNL     1      37.330 -10.507   3.288  1.00  0.00     0.189 HD
HETATM    7  N   UNL     1      38.295 -10.961   5.016  1.00  0.00    -0.168 NA
HETATM    8  C   UNL     1      39.268 -11.871   5.255  1.00  0.00     0.156 A 
HETATM    9  C   UNL     1      38.829 -12.480   1.749  1.00  0.00     0.034 A 
HETATM   10  C   UNL     1      39.737 -13.500   1.433  1.00  0.00     0.032 A 
ENDROOT
BRANCH   1  11
HETATM   11  N   UNL     1      41.434 -15.109   1.967  1.00  0.00    -0.327 N 
HETATM   12  C   UNL     1      41.096 -16.438   1.765  1.00  0.00     0.226 C 
HETATM   13  O   UNL     1      40.028 -16.968   2.052  1.00  0.00    -0.273 OA
HETATM   14  H   UNL     1      42.403 -14.860   1.814  1.00  0.00     0.169 HD
BRANCH  12  15
HETATM   15  C   UNL     1      42.216 -17.246   1.126  1.00  0.00     0.141 C 
BRANCH  15  16
HETATM   16  C   UNL     1      43.014 -18.116   2.070  1.00  0.00    -0.049 A 
HETATM   17  C   UNL     1      43.227 -19.465   1.736  1.00  0.00     0.023 A 
HETATM   18  C   UNL     1      43.894 -20.340   2.610  1.00  0.00     0.048 A 
HETATM   19  C   UNL     1      44.362 -19.846   3.835  1.00  0.00     0.016 A 
HETATM   20  C   UNL     1      44.146 -18.514   4.185  1.00  0.00     0.001 A 
HETATM   21  C   UNL     1      43.467 -17.658   3.314  1.00  0.00     0.007 A 
BRANCH  18  22
HETATM   22  C   UNL     1      44.103 -21.782   2.222  1.00  0.00     0.417 C 
HETATM   23  F   UNL     1      45.246 -22.001   1.513  1.00  0.00    -0.166 F 
HETATM   24  F   UNL     1      44.171 -22.613   3.301  1.00  0.00    -0.166 F 
HETATM   25  F   UNL     1      43.087 -22.262   1.450  1.00  0.00    -0.166 F 
ENDBRANCH  18  22
ENDBRANCH  15  16
ENDBRANCH  12  15
ENDBRANCH   1  11
BRANCH   8  26
HETATM   26  C   UNL     1      39.829 -12.047   6.602  1.00  0.00     0.270 C 
HETATM   27  N   UNL     1      39.301 -13.103   7.294  1.00  0.00    -0.365 N 
HETATM   28  H   UNL     1      38.592 -13.670   6.848  1.00  0.00     0.159 HD
HETATM   29  H   UNL     1      39.630 -13.302   8.226  1.00  0.00     0.159 HD
HETATM   30  O   UNL     1      40.697 -11.334   7.097  1.00  0.00    -0.266 OA
ENDBRANCH   8  26
TORSDOF 5
ENDMDL
MODEL 2
REMARK VINA RESULT:      -8.8      3.327      5.095
REMARK  5 active torsions:
REMARK  status: ('A' for Active; 'I' for Inactive)
REMARK    1  A    between atoms: C_3  and  C_4 
REMARK    2  A    between atoms: C_9  and  C_10 
REMARK    3  A    between atoms: C_10  and  C_11 
REMARK       I    between atoms: C_11  and  N_12 
REMARK    4  A    between atoms: N_12  and  C_13 
REMARK    5  A    between atoms: C_20  and  C_21 
REMARK       I    between atoms: C_21  and  N_22 
ROOT
HETATM    1  C   UNL     1      40.907 -15.746   1.652  1.00  0.00     0.035 A 
HETATM    2  C   UNL     1      41.213 -15.537   0.300  1.00  0.00     0.046 A 
HETATM    3  C   UNL     1      40.396 -14.688  -0.480  1.00  0.00     0.030 A 
HETATM    4  C   UNL     1      39.297 -14.083   0.116  1.00  0.00     0.063 A 
HETATM    5  N   UNL     1      38.715 -13.336  -0.870  1.00  0.00    -0.277 N 
HETATM    6  H   UNL     1      37.888 -12.755  -0.793  1.00  0.00     0.189 HD
HETATM    7  N   UNL     1      39.340 -13.398  -2.058  1.00  0.00    -0.168 NA
HETATM    8  C   UNL     1      40.383 -14.230  -1.833  1.00  0.00     0.156 A 
HETATM    9  C   UNL     1      38.957 -14.271   1.457  1.00  0.00     0.034 A 
HETATM   10  C   UNL     1      39.787 -15.113   2.210  1.00  0.00     0.032 A 
ENDROOT
BRANCH   1  11
HETATM   11  N   UNL     1      41.686 -16.545   2.518  1.00  0.00    -0.327 N 
HETATM   12  C   UNL     1      42.955 -16.269   3.002  1.00  0.00     0.226 C 
HETATM   13  O   UNL     1      43.679 -15.342   2.656  1.00  0.00    -0.273 OA
HETATM   14  H   UNL     1      41.279 -17.430   2.795  1.00  0.00     0.169 HD
BRANCH  12  15
HETATM   15  C   UNL     1      43.420 -17.264   4.055  1.00  0.00     0.141 C 
BRANCH  15  16
HETATM   16  C   UNL     1      43.716 -18.659   3.552  1.00  0.00    -0.049 A 
HETATM   17  C   UNL     1      44.038 -19.663   4.482  1.00  0.00     0.023 A 
HETATM   18  C   UNL     1      44.397 -20.957   4.068  1.00  0.00     0.048 A 
HETATM   19  C   UNL     1      44.424 -21.246   2.697  1.00  0.00     0.016 A 
HETATM   20  C   UNL     1      44.121 -20.255   1.764  1.00  0.00     0.001 A 
HETATM   21  C   UNL     1      43.780 -18.968   2.187  1.00  0.00     0.007 A 
BRANCH  18  22
HETATM   22  C   UNL     1      44.740 -22.010   5.092  1.00  0.00     0.417 C 
HETATM   23  F   UNL     1      44.320 -21.708   6.352  1.00  0.00    -0.166 F 
HETATM   24  F   UNL     1      44.194 -23.225   4.800  1.00  0.00    -0.166 F 
HETATM   25  F   UNL     1      46.083 -22.221   5.186  1.00  0.00    -0.166 F 
ENDBRANCH  18  22
ENDBRANCH  15  16
ENDBRANCH  12  15
ENDBRANCH   1  11
BRANCH   8  26
HETATM   26  C   UNL     1      41.335 -14.561  -2.902  1.00  0.00     0.270 C 
HETATM   27  N   UNL     1      42.436 -13.749  -2.941  1.00  0.00    -0.365 N 
HETATM   28  H   UNL     1      42.517 -13.008  -2.256  1.00  0.00     0.159 HD
HETATM   29  H   UNL     1      43.146 -13.904  -3.640  1.00  0.00     0.159 HD
HETATM   30  O   UNL     1      41.195 -15.477  -3.706  1.00  0.00    -0.266 OA
ENDBRANCH   8  26
TORSDOF 5
ENDMDL
MODEL 3
REMARK VINA RESULT:      -8.8      4.376      5.876
REMARK  5 active torsions:
REMARK  status: ('A' for Active; 'I' for Inactive)
REMARK    1  A    between atoms: C_3  and  C_4 
REMARK    2  A    between atoms: C_9  and  C_10 
REMARK    3  A    between atoms: C_10  and  C_11 
REMARK       I    between atoms: C_11  and  N_12 
REMARK    4  A    between atoms: N_12  and  C_13 
REMARK    5  A    between atoms: C_20  and  C_21 
REMARK       I    between atoms: C_21  and  N_22 
ROOT
HETATM    1  C   UNL     1      41.518 -16.839   1.059  1.00  0.00     0.035 A 
HETATM    2  C   UNL     1      41.640 -16.257  -0.210  1.00  0.00     0.046 A 
HETATM    3  C   UNL     1      40.887 -15.104  -0.527  1.00  0.00     0.030 A 
HETATM    4  C   UNL     1      40.033 -14.577   0.434  1.00  0.00     0.063 A 
HETATM    5  N   UNL     1      39.456 -13.485  -0.154  1.00  0.00    -0.277 N 
HETATM    6  H   UNL     1      38.778 -12.853   0.257  1.00  0.00     0.189 HD
HETATM    7  N   UNL     1      39.860 -13.252  -1.413  1.00  0.00    -0.168 NA
HETATM    8  C   UNL     1      40.747 -14.244  -1.659  1.00  0.00     0.156 A 
HETATM    9  C   UNL     1      39.881 -15.131   1.706  1.00  0.00     0.034 A 
HETATM   10  C   UNL     1      40.644 -16.271   1.997  1.00  0.00     0.032 A 
ENDROOT
BRANCH   1  11
HETATM   11  N   UNL     1      42.257 -17.968   1.479  1.00  0.00    -0.327 N 
HETATM   12  C   UNL     1      43.613 -18.028   1.760  1.00  0.00     0.226 C 
HETATM   13  O   UNL     1      44.436 -17.138   1.566  1.00  0.00    -0.273 OA
HETATM   14  H   UNL     1      41.740 -18.835   1.558  1.00  0.00     0.169 HD
BRANCH  12  15
HETATM   15  C   UNL     1      44.039 -19.360   2.359  1.00  0.00     0.141 C 
BRANCH  15  16
HETATM   16  C   UNL     1      43.902 -19.476   3.861  1.00  0.00    -0.049 A 
HETATM   17  C   UNL     1      43.265 -18.441   4.566  1.00  0.00     0.023 A 
HETATM   18  C   UNL     1      43.178 -18.457   5.969  1.00  0.00     0.048 A 
HETATM   19  C   UNL     1      43.733 -19.536   6.670  1.00  0.00     0.016 A 
HETATM   20  C   UNL     1      44.380 -20.562   5.982  1.00  0.00     0.001 A 
HETATM   21  C   UNL     1      44.474 -20.526   4.589  1.00  0.00     0.007 A 
BRANCH  18  22
HETATM   22  C   UNL     1      42.490 -17.328   6.696  1.00  0.00     0.417 C 
HETATM   23  F   UNL     1      41.150 -17.258   6.458  1.00  0.00    -0.166 F 
HETATM   24  F   UNL     1      42.622 -17.417   8.050  1.00  0.00    -0.166 F 
HETATM   25  F   UNL     1      42.994 -16.110   6.354  1.00  0.00    -0.166 F 
ENDBRANCH  18  22
ENDBRANCH  15  16
ENDBRANCH  12  15
ENDBRANCH   1  11
BRANCH   8  26
HETATM   26  C   UNL     1      41.436 -14.345  -2.952  1.00  0.00     0.270 C 
HETATM   27  N   UNL     1      42.618 -13.657  -3.011  1.00  0.00    -0.365 N 
HETATM   28  H   UNL     1      42.926 -13.149  -2.191  1.00  0.00     0.159 HD
HETATM   29  H   UNL     1      43.162 -13.673  -3.860  1.00  0.00     0.159 HD
HETATM   30  O   UNL     1      41.025 -14.981  -3.917  1.00  0.00    -0.266 OA
ENDBRANCH   8  26
TORSDOF 5
ENDMDL
MODEL 4
REMARK VINA RESULT:      -8.7      3.612      5.208
REMARK  5 active torsions:
REMARK  status: ('A' for Active; 'I' for Inactive)
REMARK    1  A    between atoms: C_3  and  C_4 
REMARK    2  A    between atoms: C_9  and  C_10 
REMARK    3  A    between atoms: C_10  and  C_11 
REMARK       I    between atoms: C_11  and  N_12 
REMARK    4  A    between atoms: N_12  and  C_13 
REMARK    5  A    between atoms: C_20  and  C_21 
REMARK       I    between atoms: C_21  and  N_22 
ROOT
HETATM    1  C   UNL     1      41.716 -15.452   0.160  1.00  0.00     0.035 A 
HETATM    2  C   UNL     1      41.020 -15.513  -1.056  1.00  0.00     0.046 A 
HETATM    3  C   UNL     1      40.108 -14.488  -1.392  1.00  0.00     0.030 A 
HETATM    4  C   UNL     1      39.918 -13.440  -0.499  1.00  0.00     0.063 A 
HETATM    5  N   UNL     1      38.998 -12.621  -1.092  1.00  0.00    -0.277 N 
HETATM    6  H   UNL     1      38.621 -11.754  -0.726  1.00  0.00     0.189 HD
HETATM    7  N   UNL     1      38.572 -13.040  -2.295  1.00  0.00    -0.168 NA
HETATM    8  C   UNL     1      39.250 -14.194  -2.496  1.00  0.00     0.156 A 
HETATM    9  C   UNL     1      40.588 -13.348   0.722  1.00  0.00     0.034 A 
HETATM   10  C   UNL     1      41.492 -14.375   1.029  1.00  0.00     0.032 A 
ENDROOT
BRANCH   1  11
HETATM   11  N   UNL     1      42.674 -16.409   0.564  1.00  0.00    -0.327 N 
HETATM   12  C   UNL     1      42.449 -17.571   1.286  1.00  0.00     0.226 C 
HETATM   13  O   UNL     1      41.393 -17.905   1.814  1.00  0.00    -0.273 OA
HETATM   14  H   UNL     1      43.635 -16.207   0.320  1.00  0.00     0.169 HD
BRANCH  12  15
HETATM   15  C   UNL     1      43.682 -18.456   1.388  1.00  0.00     0.141 C 
BRANCH  15  16
HETATM   16  C   UNL     1      44.026 -18.940   2.779  1.00  0.00    -0.049 A 
HETATM   17  C   UNL     1      44.275 -20.309   2.979  1.00  0.00     0.023 A 
HETATM   18  C   UNL     1      44.523 -20.828   4.262  1.00  0.00     0.048 A 
HETATM   19  C   UNL     1      44.528 -19.953   5.356  1.00  0.00     0.016 A 
HETATM   20  C   UNL     1      44.268 -18.596   5.173  1.00  0.00     0.001 A 
HETATM   21  C   UNL     1      44.007 -18.095   3.895  1.00  0.00     0.007 A 
BRANCH  18  22
HETATM   22  C   UNL     1      44.784 -22.303   4.443  1.00  0.00     0.417 C 
HETATM   23  F   UNL     1      44.916 -22.985   3.270  1.00  0.00    -0.166 F 
HETATM   24  F   UNL     1      45.924 -22.552   5.147  1.00  0.00    -0.166 F 
HETATM   25  F   UNL     1      43.783 -22.925   5.126  1.00  0.00    -0.166 F 
ENDBRANCH  18  22
ENDBRANCH  15  16
ENDBRANCH  12  15
ENDBRANCH   1  11
BRANCH   8  26
HETATM   26  C   UNL     1      39.070 -14.978  -3.725  1.00  0.00     0.270 C 
HETATM   27  N   UNL     1      37.836 -14.839  -4.301  1.00  0.00    -0.365 N 
HETATM   28  H   UNL     1      37.161 -14.226  -3.861  1.00  0.00     0.159 HD
HETATM   29  H   UNL     1      37.624 -15.337  -5.151  1.00  0.00     0.159 HD
HETATM   30  O   UNL     1      39.924 -15.702  -4.226  1.00  0.00    -0.266 OA
ENDBRANCH   8  26
TORSDOF 5
ENDMDL
MODEL 5
REMARK VINA RESULT:      -8.6      2.991      4.856
REMARK  5 active torsions:
REMARK  status: ('A' for Active; 'I' for Inactive)
REMARK    1  A    between atoms: C_3  and  C_4 
REMARK    2  A    between atoms: C_9  and  C_10 
REMARK    3  A    between atoms: C_10  and  C_11 
REMARK       I    between atoms: C_11  and  N_12 
REMARK    4  A    between atoms: N_12  and  C_13 
REMARK    5  A    between atoms: C_20  and  C_21 
REMARK       I    between atoms: C_21  and  N_22 
ROOT
HETATM    1  C   UNL     1      39.897 -15.247   1.658  1.00  0.00     0.035 A 
HETATM    2  C   UNL     1      40.500 -15.207   0.393  1.00  0.00     0.046 A 
HETATM    3  C   UNL     1      40.011 -14.316  -0.588  1.00  0.00     0.030 A 
HETATM    4  C   UNL     1      38.931 -13.500  -0.273  1.00  0.00     0.063 A 
HETATM    5  N   UNL     1      38.694 -12.762  -1.399  1.00  0.00    -0.277 N 
HETATM    6  H   UNL     1      37.977 -12.057  -1.532  1.00  0.00     0.189 HD
HETATM    7  N   UNL     1      39.525 -13.023  -2.422  1.00  0.00    -0.168 NA
HETATM    8  C   UNL     1      40.347 -13.982  -1.935  1.00  0.00     0.156 A 
HETATM    9  C   UNL     1      38.303 -13.515   0.973  1.00  0.00     0.034 A 
HETATM   10  C   UNL     1      38.811 -14.404   1.930  1.00  0.00     0.032 A 
ENDROOT
BRANCH   1  11
HETATM   11  N   UNL     1      40.341 -16.077   2.712  1.00  0.00    -0.327 N 
HETATM   12  C   UNL     1      41.332 -15.798   3.641  1.00  0.00     0.226 C 
HETATM   13  O   UNL     1      42.090 -14.834   3.628  1.00  0.00    -0.273 OA
HETATM   14  H   UNL     1      39.901 -16.986   2.779  1.00  0.00     0.169 HD
BRANCH  12  15
HETATM   15  C   UNL     1      41.424 -16.842   4.745  1.00  0.00     0.141 C 
BRANCH  15  16
HETATM   16  C   UNL     1      42.586 -17.804   4.640  1.00  0.00    -0.049 A 
HETATM   17  C   UNL     1      42.714 -18.592   3.483  1.00  0.00     0.023 A 
HETATM   18  C   UNL     1      43.728 -19.557   3.364  1.00  0.00     0.048 A 
HETATM   19  C   UNL     1      44.632 -19.725   4.422  1.00  0.00     0.016 A 
HETATM   20  C   UNL     1      44.507 -18.959   5.580  1.00  0.00     0.001 A 
HETATM   21  C   UNL     1      43.485 -18.014   5.693  1.00  0.00     0.007 A 
BRANCH  18  22
HETATM   22  C   UNL     1      43.835 -20.389   2.110  1.00  0.00     0.417 C 
HETATM   23  F   UNL     1      44.924 -21.208   2.085  1.00  0.00    -0.166 F 
HETATM   24  F   UNL     1      42.756 -21.201   1.924  1.00  0.00    -0.166 F 
HETATM   25  F   UNL     1      43.920 -19.622   0.987  1.00  0.00    -0.166 F 
ENDBRANCH  18  22
ENDBRANCH  15  16
ENDBRANCH  12  15
ENDBRANCH   1  11
BRANCH   8  26
HETATM   26  C   UNL     1      41.425 -14.547  -2.757  1.00  0.00     0.270 C 
HETATM   27  N   UNL     1      42.500 -13.715  -2.919  1.00  0.00    -0.365 N 
HETATM   28  H   UNL     1      42.481 -12.805  -2.475  1.00  0.00     0.159 HD
HETATM   29  H   UNL     1      43.290 -14.022  -3.465  1.00  0.00     0.159 HD
HETATM   30  O   UNL     1      41.405 -15.662  -3.269  1.00  0.00    -0.266 OA
ENDBRANCH   8  26
TORSDOF 5
ENDMDL
MODEL 6
REMARK VINA RESULT:      -8.5      4.159      5.752
REMARK  5 active torsions:
REMARK  status: ('A' for Active; 'I' for Inactive)
REMARK    1  A    between atoms: C_3  and  C_4 
REMARK    2  A    between atoms: C_9  and  C_10 
REMARK    3  A    between atoms: C_10  and  C_11 
REMARK       I    between atoms: C_11  and  N_12 
REMARK    4  A    between atoms: N_12  and  C_13 
REMARK    5  A    between atoms: C_20  and  C_21 
REMARK       I    between atoms: C_21  and  N_22 
ROOT
HETATM    1  C   UNL     1      41.601 -15.273   0.184  1.00  0.00     0.035 A 
HETATM    2  C   UNL     1      40.933 -15.385  -1.044  1.00  0.00     0.046 A 
HETATM    3  C   UNL     1      39.923 -14.455  -1.379  1.00  0.00     0.030 A 
HETATM    4  C   UNL     1      39.611 -13.450  -0.472  1.00  0.00     0.063 A 
HETATM    5  N   UNL     1      38.619 -12.721  -1.067  1.00  0.00    -0.277 N 
HETATM    6  H   UNL     1      38.148 -11.904  -0.693  1.00  0.00     0.189 HD
HETATM    7  N   UNL     1      38.257 -13.161  -2.284  1.00  0.00    -0.168 NA
HETATM    8  C   UNL     1      39.056 -14.233  -2.491  1.00  0.00     0.156 A 
HETATM    9  C   UNL     1      40.251 -13.309   0.761  1.00  0.00     0.034 A 
HETATM   10  C   UNL     1      41.252 -14.241   1.066  1.00  0.00     0.032 A 
ENDROOT
BRANCH   1  11
HETATM   11  N   UNL     1      42.648 -16.131   0.588  1.00  0.00    -0.327 N 
HETATM   12  C   UNL     1      42.532 -17.406   1.121  1.00  0.00     0.226 C 
HETATM   13  O   UNL     1      41.491 -17.961   1.458  1.00  0.00    -0.273 OA
HETATM   14  H   UNL     1      43.586 -15.761   0.502  1.00  0.00     0.169 HD
BRANCH  12  15
HETATM   15  C   UNL     1      43.871 -18.111   1.275  1.00  0.00     0.141 C 
BRANCH  15  16
HETATM   16  C   UNL     1      44.071 -18.861   2.572  1.00  0.00    -0.049 A 
HETATM   17  C   UNL     1      44.042 -18.146   3.782  1.00  0.00     0.023 A 
HETATM   18  C   UNL     1      44.298 -18.777   5.012  1.00  0.00     0.048 A 
HETATM   19  C   UNL     1      44.578 -20.150   5.023  1.00  0.00     0.016 A 
HETATM   20  C   UNL     1      44.623 -20.868   3.829  1.00  0.00     0.001 A 
HETATM   21  C   UNL     1      44.382 -20.226   2.611  1.00  0.00     0.007 A 
BRANCH  18  22
HETATM   22  C   UNL     1      44.263 -17.979   6.291  1.00  0.00     0.417 C 
HETATM   23  F   UNL     1      43.114 -18.139   7.006  1.00  0.00    -0.166 F 
HETATM   24  F   UNL     1      45.278 -18.304   7.142  1.00  0.00    -0.166 F 
HETATM   25  F   UNL     1      44.382 -16.640   6.069  1.00  0.00    -0.166 F 
ENDBRANCH  18  22
ENDBRANCH  15  16
ENDBRANCH  12  15
ENDBRANCH   1  11
BRANCH   8  26
HETATM   26  C   UNL     1      38.977 -15.010  -3.736  1.00  0.00     0.270 C 
HETATM   27  N   UNL     1      37.764 -14.933  -4.367  1.00  0.00    -0.365 N 
HETATM   28  H   UNL     1      37.036 -14.365  -3.953  1.00  0.00     0.159 HD
HETATM   29  H   UNL     1      37.620 -15.431  -5.232  1.00  0.00     0.159 HD
HETATM   30  O   UNL     1      39.892 -15.679  -4.203  1.00  0.00    -0.266 OA
ENDBRANCH   8  26
TORSDOF 5
ENDMDL
MODEL 7
REMARK VINA RESULT:      -8.4      4.609      5.525
REMARK  5 active torsions:
REMARK  status: ('A' for Active; 'I' for Inactive)
REMARK    1  A    between atoms: C_3  and  C_4 
REMARK    2  A    between atoms: C_9  and  C_10 
REMARK    3  A    between atoms: C_10  and  C_11 
REMARK       I    between atoms: C_11  and  N_12 
REMARK    4  A    between atoms: N_12  and  C_13 
REMARK    5  A    between atoms: C_20  and  C_21 
REMARK       I    between atoms: C_21  and  N_22 
ROOT
HETATM    1  C   UNL     1      41.325 -15.454  -0.925  1.00  0.00     0.035 A 
HETATM    2  C   UNL     1      41.783 -14.147  -0.708  1.00  0.00     0.046 A 
HETATM    3  C   UNL     1      41.870 -13.246  -1.793  1.00  0.00     0.030 A 
HETATM    4  C   UNL     1      41.500 -13.684  -3.059  1.00  0.00     0.063 A 
HETATM    5  N   UNL     1      41.686 -12.609  -3.883  1.00  0.00    -0.277 N 
HETATM    6  H   UNL     1      41.515 -12.564  -4.882  1.00  0.00     0.189 HD
HETATM    7  N   UNL     1      42.143 -11.507  -3.267  1.00  0.00    -0.168 NA
HETATM    8  C   UNL     1      42.261 -11.884  -1.972  1.00  0.00     0.156 A 
HETATM    9  C   UNL     1      41.043 -14.978  -3.314  1.00  0.00     0.034 A 
HETATM   10  C   UNL     1      40.962 -15.850  -2.220  1.00  0.00     0.032 A 
ENDROOT
BRANCH   1  11
HETATM   11  N   UNL     1      41.169 -16.411   0.102  1.00  0.00    -0.327 N 
HETATM   12  C   UNL     1      42.170 -17.025   0.837  1.00  0.00     0.226 C 
HETATM   13  O   UNL     1      43.377 -16.943   0.633  1.00  0.00    -0.273 OA
HETATM   14  H   UNL     1      40.219 -16.697   0.304  1.00  0.00     0.169 HD
BRANCH  12  15
HETATM   15  C   UNL     1      41.635 -17.869   1.985  1.00  0.00     0.141 C 
BRANCH  15  16
HETATM   16  C   UNL     1      42.657 -18.718   2.706  1.00  0.00    -0.049 A 
HETATM   17  C   UNL     1      43.093 -18.319   3.982  1.00  0.00     0.023 A 
HETATM   18  C   UNL     1      44.098 -19.025   4.666  1.00  0.00     0.048 A 
HETATM   19  C   UNL     1      44.665 -20.154   4.059  1.00  0.00     0.016 A 
HETATM   20  C   UNL     1      44.252 -20.551   2.788  1.00  0.00     0.001 A 
HETATM   21  C   UNL     1      43.263 -19.832   2.111  1.00  0.00     0.007 A 
BRANCH  18  22
HETATM   22  C   UNL     1      44.545 -18.569   6.032  1.00  0.00     0.417 C 
HETATM   23  F   UNL     1      44.363 -19.502   7.009  1.00  0.00    -0.166 F 
HETATM   24  F   UNL     1      45.868 -18.244   6.071  1.00  0.00    -0.166 F 
HETATM   25  F   UNL     1      43.878 -17.457   6.449  1.00  0.00    -0.166 F 
ENDBRANCH  18  22
ENDBRANCH  15  16
ENDBRANCH  12  15
ENDBRANCH   1  11
BRANCH   8  26
HETATM   26  C   UNL     1      42.734 -10.944  -0.947  1.00  0.00     0.270 C 
HETATM   27  N   UNL     1      41.763 -10.535  -0.073  1.00  0.00    -0.365 N 
HETATM   28  H   UNL     1      40.824 -10.896  -0.186  1.00  0.00     0.159 HD
HETATM   29  H   UNL     1      41.997  -9.892   0.667  1.00  0.00     0.159 HD
HETATM   30  O   UNL     1      43.888 -10.540  -0.846  1.00  0.00    -0.266 OA
ENDBRANCH   8  26
TORSDOF 5
ENDMDL
MODEL 8
REMARK VINA RESULT:      -8.3      2.709      3.432
REMARK  5 active torsions:
REMARK  status: ('A' for Active; 'I' for Inactive)
REMARK    1  A    between atoms: C_3  and  C_4 
REMARK    2  A    between atoms: C_9  and  C_10 
REMARK    3  A    between atoms: C_10  and  C_11 
REMARK       I    between atoms: C_11  and  N_12 
REMARK    4  A    between atoms: N_12  and  C_13 
REMARK    5  A    between atoms: C_20  and  C_21 
REMARK       I    between atoms: C_21  and  N_22 
ROOT
HETATM    1  C   UNL     1      41.321 -16.420   1.919  1.00  0.00     0.035 A 
HETATM    2  C   UNL     1      41.324 -15.726   3.137  1.00  0.00     0.046 A 
HETATM    3  C   UNL     1      40.572 -14.537   3.268  1.00  0.00     0.030 A 
HETATM    4  C   UNL     1      39.846 -14.080   2.175  1.00  0.00     0.063 A 
HETATM    5  N   UNL     1      39.232 -12.935   2.601  1.00  0.00    -0.277 N 
HETATM    6  H   UNL     1      38.617 -12.332   2.066  1.00  0.00     0.189 HD
HETATM    7  N   UNL     1      39.491 -12.606   3.877  1.00  0.00    -0.168 NA
HETATM    8  C   UNL     1      40.318 -13.588   4.304  1.00  0.00     0.156 A 
HETATM    9  C   UNL     1      39.822 -14.741   0.945  1.00  0.00     0.034 A 
HETATM   10  C   UNL     1      40.572 -15.920   0.844  1.00  0.00     0.032 A 
ENDROOT
BRANCH   1  11
HETATM   11  N   UNL     1      42.010 -17.634   1.706  1.00  0.00    -0.327 N 
HETATM   12  C   UNL     1      43.380 -17.813   1.586  1.00  0.00     0.226 C 
HETATM   13  O   UNL     1      44.225 -16.928   1.513  1.00  0.00    -0.273 OA
HETATM   14  H   UNL     1      41.436 -18.461   1.604  1.00  0.00     0.169 HD
BRANCH  12  15
HETATM   15  C   UNL     1      43.787 -19.279   1.544  1.00  0.00     0.141 C 
BRANCH  15  16
HETATM   16  C   UNL     1      44.060 -19.921   2.885  1.00  0.00    -0.049 A 
HETATM   17  C   UNL     1      44.031 -19.121   4.040  1.00  0.00     0.023 A 
HETATM   18  C   UNL     1      44.352 -19.647   5.304  1.00  0.00     0.048 A 
HETATM   19  C   UNL     1      44.699 -21.000   5.405  1.00  0.00     0.016 A 
HETATM   20  C   UNL     1      44.744 -21.802   4.265  1.00  0.00     0.001 A 
HETATM   21  C   UNL     1      44.438 -21.264   3.013  1.00  0.00     0.007 A 
BRANCH  18  22
HETATM   22  C   UNL     1      44.315 -18.759   6.523  1.00  0.00     0.417 C 
HETATM   23  F   UNL     1      43.484 -17.687   6.396  1.00  0.00    -0.166 F 
HETATM   24  F   UNL     1      43.902 -19.419   7.641  1.00  0.00    -0.166 F 
HETATM   25  F   UNL     1      45.541 -18.247   6.827  1.00  0.00    -0.166 F 
ENDBRANCH  18  22
ENDBRANCH  15  16
ENDBRANCH  12  15
ENDBRANCH   1  11
BRANCH   8  26
HETATM   26  C   UNL     1      40.837 -13.600   5.679  1.00  0.00     0.270 C 
HETATM   27  N   UNL     1      39.898 -13.902   6.628  1.00  0.00    -0.365 N 
HETATM   28  H   UNL     1      38.950 -14.093   6.330  1.00  0.00     0.159 HD
HETATM   29  H   UNL     1      40.165 -13.938   7.600  1.00  0.00     0.159 HD
HETATM   30  O   UNL     1      42.001 -13.370   5.990  1.00  0.00    -0.266 OA
ENDBRANCH   8  26
TORSDOF 5
ENDMDL
MODEL 9
REMARK VINA RESULT:      -8.3      4.661      5.922
REMARK  5 active torsions:
REMARK  status: ('A' for Active; 'I' for Inactive)
REMARK    1  A    between atoms: C_3  and  C_4 
REMARK    2  A    between atoms: C_9  and  C_10 
REMARK    3  A    between atoms: C_10  and  C_11 
REMARK       I    between atoms: C_11  and  N_12 
REMARK    4  A    between atoms: N_12  and  C_13 
REMARK    5  A    between atoms: C_20  and  C_21 
REMARK       I    between atoms: C_21  and  N_22 
ROOT
HETATM    1  C   UNL     1      44.360 -14.293   7.279  1.00  0.00     0.035 A 
HETATM    2  C   UNL     1      44.048 -13.417   8.328  1.00  0.00     0.046 A 
HETATM    3  C   UNL     1      44.952 -12.387   8.673  1.00  0.00     0.030 A 
HETATM    4  C   UNL     1      46.139 -12.272   7.961  1.00  0.00     0.063 A 
HETATM    5  N   UNL     1      46.791 -11.203   8.512  1.00  0.00    -0.277 N 
HETATM    6  H   UNL     1      47.691 -10.826   8.240  1.00  0.00     0.189 HD
HETATM    7  N   UNL     1      46.131 -10.609   9.521  1.00  0.00    -0.168 NA
HETATM    8  C   UNL     1      44.991 -11.329   9.632  1.00  0.00     0.156 A 
HETATM    9  C   UNL     1      46.486 -13.127   6.913  1.00  0.00     0.034 A 
HETATM   10  C   UNL     1      45.570 -14.137   6.588  1.00  0.00     0.032 A 
ENDROOT
BRANCH   1  11
HETATM   11  N   UNL     1      43.503 -15.326   6.839  1.00  0.00    -0.327 N 
HETATM   12  C   UNL     1      43.151 -16.477   7.528  1.00  0.00     0.226 C 
HETATM   13  O   UNL     1      43.628 -16.862   8.591  1.00  0.00    -0.273 OA
HETATM   14  H   UNL     1      43.126 -15.225   5.906  1.00  0.00     0.169 HD
BRANCH  12  15
HETATM   15  C   UNL     1      42.067 -17.282   6.827  1.00  0.00     0.141 C 
BRANCH  15  16
HETATM   16  C   UNL     1      42.474 -17.930   5.523  1.00  0.00    -0.049 A 
HETATM   17  C   UNL     1      43.370 -19.012   5.552  1.00  0.00     0.023 A 
HETATM   18  C   UNL     1      43.843 -19.603   4.368  1.00  0.00     0.048 A 
HETATM   19  C   UNL     1      43.400 -19.102   3.137  1.00  0.00     0.016 A 
HETATM   20  C   UNL     1      42.521 -18.020   3.094  1.00  0.00     0.001 A 
HETATM   21  C   UNL     1      42.071 -17.431   4.277  1.00  0.00     0.007 A 
BRANCH  18  22
HETATM   22  C   UNL     1      44.807 -20.761   4.435  1.00  0.00     0.417 C 
HETATM   23  F   UNL     1      44.701 -21.499   5.575  1.00  0.00    -0.166 F 
HETATM   24  F   UNL     1      44.644 -21.641   3.406  1.00  0.00    -0.166 F 
HETATM   25  F   UNL     1      46.107 -20.356   4.372  1.00  0.00    -0.166 F 
ENDBRANCH  18  22
ENDBRANCH  15  16
ENDBRANCH  12  15
ENDBRANCH   1  11
BRANCH   8  26
HETATM   26  C   UNL     1      43.974 -10.992  10.637  1.00  0.00     0.270 C 
HETATM   27  N   UNL     1      42.692 -11.282  10.254  1.00  0.00    -0.365 N 
HETATM   28  H   UNL     1      42.539 -11.696   9.343  1.00  0.00     0.159 HD
HETATM   29  H   UNL     1      41.928 -11.088  10.882  1.00  0.00     0.159 HD
HETATM   30  O   UNL     1      44.211 -10.496  11.734  1.00  0.00    -0.266 OA
ENDBRANCH   8  26
TORSDOF 5
ENDMDL
MODEL 10
REMARK VINA RESULT:      -8.3      1.649      2.491
REMARK  5 active torsions:
REMARK  status: ('A' for Active; 'I' for Inactive)
REMARK    1  A    between atoms: C_3  and  C_4 
REMARK    2  A    between atoms: C_9  and  C_10 
REMARK    3  A    between atoms: C_10  and  C_11 
REMARK       I    between atoms: C_11  and  N_12 
REMARK    4  A    between atoms: N_12  and  C_13 
REMARK    5  A    between atoms: C_20  and  C_21 
REMARK       I    between atoms: C_21  and  N_22 
ROOT
HETATM    1  C   UNL     1      40.143 -14.754   3.724  1.00  0.00     0.035 A 
HETATM    2  C   UNL     1      39.505 -13.636   3.171  1.00  0.00     0.046 A 
HETATM    3  C   UNL     1      39.225 -12.515   3.985  1.00  0.00     0.030 A 
HETATM    4  C   UNL     1      39.587 -12.554   5.325  1.00  0.00     0.063 A 
HETATM    5  N   UNL     1      39.197 -11.349   5.841  1.00  0.00    -0.277 N 
HETATM    6  H   UNL     1      39.306 -11.026   6.796  1.00  0.00     0.189 HD
HETATM    7  N   UNL     1      38.614 -10.526   4.954  1.00  0.00    -0.168 NA
HETATM    8  C   UNL     1      38.625 -11.232   3.800  1.00  0.00     0.156 A 
HETATM    9  C   UNL     1      40.220 -13.651   5.913  1.00  0.00     0.034 A 
HETATM   10  C   UNL     1      40.490 -14.747   5.083  1.00  0.00     0.032 A 
ENDROOT
BRANCH   1  11
HETATM   11  N   UNL     1      40.496 -15.903   2.982  1.00  0.00    -0.327 N 
HETATM   12  C   UNL     1      41.574 -16.050   2.123  1.00  0.00     0.226 C 
HETATM   13  O   UNL     1      42.337 -15.162   1.755  1.00  0.00    -0.273 OA
HETATM   14  H   UNL     1      39.877 -16.698   3.069  1.00  0.00     0.169 HD
BRANCH  12  15
HETATM   15  C   UNL     1      41.754 -17.479   1.631  1.00  0.00     0.141 C 
BRANCH  15  16
HETATM   16  C   UNL     1      42.750 -18.315   2.403  1.00  0.00    -0.049 A 
HETATM   17  C   UNL     1      43.031 -19.619   1.958  1.00  0.00     0.023 A 
HETATM   18  C   UNL     1      43.888 -20.469   2.678  1.00  0.00     0.048 A 
HETATM   19  C   UNL     1      44.477 -19.996   3.858  1.00  0.00     0.016 A 
HETATM   20  C   UNL     1      44.196 -18.710   4.317  1.00  0.00     0.001 A 
HETATM   21  C   UNL     1      43.330 -17.880   3.601  1.00  0.00     0.007 A 
BRANCH  18  22
HETATM   22  C   UNL     1      44.166 -21.864   2.175  1.00  0.00     0.417 C 
HETATM   23  F   UNL     1      45.322 -21.971   1.463  1.00  0.00    -0.166 F 
HETATM   24  F   UNL     1      44.265 -22.776   3.183  1.00  0.00    -0.166 F 
HETATM   25  F   UNL     1      43.179 -22.323   1.355  1.00  0.00    -0.166 F 
ENDBRANCH  18  22
ENDBRANCH  15  16
ENDBRANCH  12  15
ENDBRANCH   1  11
BRANCH   8  26
HETATM   26  C   UNL     1      38.072 -10.671   2.560  1.00  0.00     0.270 C 
HETATM   27  N   UNL     1      36.780 -10.232   2.672  1.00  0.00    -0.365 N 
HETATM   28  H   UNL     1      36.314 -10.317   3.567  1.00  0.00     0.159 HD
HETATM   29  H   UNL     1      36.320  -9.827   1.872  1.00  0.00     0.159 HD
HETATM   30  O   UNL     1      38.680 -10.583   1.498  1.00  0.00    -0.266 OA
ENDBRANCH   8  26
TORSDOF 5
ENDMDL
