MODEL 1
REMARK VINA RESULT:      -7.1      0.000      0.000
REMARK  5 active torsions:
REMARK  status: ('A' for Active; 'I' for Inactive)
REMARK    1  A    between atoms: C_2  and  N_3 
REMARK    2  A    between atoms: N_3  and  C_6 
REMARK    3  A    between atoms: C_6  and  C_7 
REMARK    4  A    between atoms: C_8  and  N_9 
REMARK       I    between atoms: N_9  and  C_10 
REMARK    5  A    between atoms: C_10  and  C_11 
ROOT
HETATM    1  N   UNL     1      42.523 -17.582   3.115  1.00  0.00    -0.326 N 
HETATM    2  C   UNL     1      41.444 -17.092   3.822  1.00  0.00     0.231 C 
HETATM    3  O   UNL     1      40.961 -17.639   4.810  1.00  0.00    -0.272 OA
HETATM    4  H   UNL     1      42.734 -17.058   2.270  1.00  0.00     0.169 HD
ENDROOT
BRANCH   1   5
HETATM    5  C   UNL     1      43.288 -18.771   3.263  1.00  0.00     0.042 A 
HETATM    6  C   UNL     1      44.093 -19.193   4.345  1.00  0.00    -0.006 A 
HETATM    7  C   UNL     1      44.713 -20.470   4.265  1.00  0.00     0.011 A 
HETATM    8  C   UNL     1      44.575 -21.294   3.152  1.00  0.00     0.001 A 
HETATM    9  C   UNL     1      43.813 -20.866   2.083  1.00  0.00     0.002 A 
HETATM   10  C   UNL     1      43.184 -19.623   2.139  1.00  0.00     0.030 A 
BRANCH   6  11
HETATM   11  C   UNL     1      44.414 -18.419   5.599  1.00  0.00     0.273 C 
BRANCH  11  12
HETATM   12  N   UNL     1      43.325 -18.492   6.610  1.00  0.00    -0.072 N 
HETATM   13  H   UNL     1      43.336 -19.393   7.097  1.00  0.00     0.277 HD
HETATM   14  H   UNL     1      42.464 -18.481   6.030  1.00  0.00     0.277 HD
BRANCH  12  15
HETATM   15  C   UNL     1      43.229 -17.344   7.543  1.00  0.00     0.228 C 
HETATM   16  C   UNL     1      43.432 -16.061   6.761  1.00  0.00     0.034 C 
ENDBRANCH  12  15
ENDBRANCH  11  12
ENDBRANCH   6  11
ENDBRANCH   1   5
BRANCH   2  17
HETATM   17  C   UNL     1      40.804 -15.846   3.190  1.00  0.00     0.122 C 
HETATM   18  C   UNL     1      40.794 -14.706   4.185  1.00  0.00    -0.028 A 
HETATM   19  C   UNL     1      41.876 -13.826   4.057  1.00  0.00     0.007 A 
HETATM   20  C   UNL     1      39.866 -14.524   5.209  1.00  0.00     0.009 A 
HETATM   21  C   UNL     1      42.067 -12.783   4.949  1.00  0.00     0.019 A 
HETATM   22  S   UNL     1      42.893 -14.205   2.662  1.00  0.00    -0.128 SA
HETATM   23  C   UNL     1      41.145 -12.608   5.982  1.00  0.00     0.001 A 
HETATM   24  C   UNL     1      40.047 -13.470   6.105  1.00  0.00     0.001 A 
HETATM   25  C   UNL     1      41.639 -15.348   1.995  1.00  0.00     0.098 C 
ENDBRANCH   2  17
TORSDOF 5
ENDMDL
MODEL 2
REMARK VINA RESULT:      -7.0      1.747      2.700
REMARK  5 active torsions:
REMARK  status: ('A' for Active; 'I' for Inactive)
REMARK    1  A    between atoms: C_2  and  N_3 
REMARK    2  A    between atoms: N_3  and  C_6 
REMARK    3  A    between atoms: C_6  and  C_7 
REMARK    4  A    between atoms: C_8  and  N_9 
REMARK       I    between atoms: N_9  and  C_10 
REMARK    5  A    between atoms: C_10  and  C_11 
ROOT
HETATM    1  N   UNL     1      43.814 -18.134   3.345  1.00  0.00    -0.326 N 
HETATM    2  C   UNL     1      42.804 -17.434   3.971  1.00  0.00     0.231 C 
HETATM    3  O   UNL     1      41.885 -17.959   4.594  1.00  0.00    -0.272 OA
HETATM    4  H   UNL     1      44.440 -17.551   2.796  1.00  0.00     0.169 HD
ENDROOT
BRANCH   1   5
HETATM    5  C   UNL     1      44.045 -19.529   3.193  1.00  0.00     0.042 A 
HETATM    6  C   UNL     1      44.476 -20.477   4.149  1.00  0.00    -0.006 A 
HETATM    7  C   UNL     1      44.571 -21.838   3.750  1.00  0.00     0.011 A 
HETATM    8  C   UNL     1      44.283 -22.254   2.453  1.00  0.00     0.001 A 
HETATM    9  C   UNL     1      43.893 -21.320   1.513  1.00  0.00     0.002 A 
HETATM   10  C   UNL     1      43.779 -19.979   1.880  1.00  0.00     0.030 A 
BRANCH   6  11
HETATM   11  C   UNL     1      44.891 -20.212   5.573  1.00  0.00     0.273 C 
BRANCH  11  12
HETATM   12  N   UNL     1      43.752 -19.795   6.434  1.00  0.00    -0.072 N 
HETATM   13  H   UNL     1      43.257 -20.610   6.809  1.00  0.00     0.277 HD
HETATM   14  H   UNL     1      43.103 -19.340   5.763  1.00  0.00     0.277 HD
BRANCH  12  15
HETATM   15  C   UNL     1      44.062 -18.790   7.479  1.00  0.00     0.228 C 
HETATM   16  C   UNL     1      44.876 -17.674   6.856  1.00  0.00     0.034 C 
ENDBRANCH  12  15
ENDBRANCH  11  12
ENDBRANCH   6  11
ENDBRANCH   1   5
BRANCH   2  17
HETATM   17  C   UNL     1      42.853 -15.918   3.723  1.00  0.00     0.122 C 
HETATM   18  C   UNL     1      41.784 -15.520   2.729  1.00  0.00    -0.028 A 
HETATM   19  C   UNL     1      40.598 -15.064   3.318  1.00  0.00     0.007 A 
HETATM   20  C   UNL     1      41.873 -15.635   1.343  1.00  0.00     0.009 A 
HETATM   21  C   UNL     1      39.487 -14.748   2.553  1.00  0.00     0.019 A 
HETATM   22  S   UNL     1      40.722 -14.939   5.077  1.00  0.00    -0.128 SA
HETATM   23  C   UNL     1      39.572 -14.876   1.166  1.00  0.00     0.001 A 
HETATM   24  C   UNL     1      40.761 -15.309   0.566  1.00  0.00     0.001 A 
HETATM   25  C   UNL     1      42.533 -15.142   5.014  1.00  0.00     0.098 C 
ENDBRANCH   2  17
TORSDOF 5
ENDMDL
MODEL 3
REMARK VINA RESULT:      -6.8      1.884      2.306
REMARK  5 active torsions:
REMARK  status: ('A' for Active; 'I' for Inactive)
REMARK    1  A    between atoms: C_2  and  N_3 
REMARK    2  A    between atoms: N_3  and  C_6 
REMARK    3  A    between atoms: C_6  and  C_7 
REMARK    4  A    between atoms: C_8  and  N_9 
REMARK       I    between atoms: N_9  and  C_10 
REMARK    5  A    between atoms: C_10  and  C_11 
ROOT
HETATM    1  N   UNL     1      42.757 -18.510   2.729  1.00  0.00    -0.326 N 
HETATM    2  C   UNL     1      42.934 -17.374   1.966  1.00  0.00     0.231 C 
HETATM    3  O   UNL     1      43.836 -17.229   1.146  1.00  0.00    -0.272 OA
HETATM    4  H   UNL     1      42.019 -18.428   3.424  1.00  0.00     0.169 HD
ENDROOT
BRANCH   1   5
HETATM    5  C   UNL     1      43.515 -19.708   2.831  1.00  0.00     0.042 A 
HETATM    6  C   UNL     1      44.397 -20.128   3.852  1.00  0.00    -0.006 A 
HETATM    7  C   UNL     1      44.991 -21.415   3.741  1.00  0.00     0.011 A 
HETATM    8  C   UNL     1      44.755 -22.250   2.653  1.00  0.00     0.001 A 
HETATM    9  C   UNL     1      43.917 -21.824   1.641  1.00  0.00     0.002 A 
HETATM   10  C   UNL     1      43.311 -20.571   1.730  1.00  0.00     0.030 A 
BRANCH   6  11
HETATM   11  C   UNL     1      44.825 -19.345   5.067  1.00  0.00     0.273 C 
BRANCH  11  12
HETATM   12  N   UNL     1      43.691 -19.039   5.980  1.00  0.00    -0.072 N 
HETATM   13  H   UNL     1      42.793 -19.265   5.540  1.00  0.00     0.277 HD
HETATM   14  H   UNL     1      43.726 -18.004   6.061  1.00  0.00     0.277 HD
BRANCH  12  15
HETATM   15  C   UNL     1      43.800 -19.581   7.355  1.00  0.00     0.228 C 
HETATM   16  C   UNL     1      43.561 -21.077   7.310  1.00  0.00     0.034 C 
ENDBRANCH  12  15
ENDBRANCH  11  12
ENDBRANCH   6  11
ENDBRANCH   1   5
BRANCH   2  17
HETATM   17  C   UNL     1      41.965 -16.234   2.317  1.00  0.00     0.122 C 
HETATM   18  C   UNL     1      41.755 -16.173   3.815  1.00  0.00    -0.028 A 
HETATM   19  C   UNL     1      42.579 -15.249   4.470  1.00  0.00     0.007 A 
HETATM   20  C   UNL     1      40.892 -16.981   4.551  1.00  0.00     0.009 A 
HETATM   21  C   UNL     1      42.580 -15.135   5.851  1.00  0.00     0.019 A 
HETATM   22  S   UNL     1      43.548 -14.291   3.344  1.00  0.00    -0.128 SA
HETATM   23  C   UNL     1      41.724 -15.953   6.590  1.00  0.00     0.001 A 
HETATM   24  C   UNL     1      40.879 -16.864   5.942  1.00  0.00     0.001 A 
HETATM   25  C   UNL     1      42.562 -14.869   1.924  1.00  0.00     0.098 C 
ENDBRANCH   2  17
TORSDOF 5
ENDMDL
MODEL 4
REMARK VINA RESULT:      -6.8      1.816      3.553
REMARK  5 active torsions:
REMARK  status: ('A' for Active; 'I' for Inactive)
REMARK    1  A    between atoms: C_2  and  N_3 
REMARK    2  A    between atoms: N_3  and  C_6 
REMARK    3  A    between atoms: C_6  and  C_7 
REMARK    4  A    between atoms: C_8  and  N_9 
REMARK       I    between atoms: N_9  and  C_10 
REMARK    5  A    between atoms: C_10  and  C_11 
ROOT
HETATM    1  N   UNL     1      44.036 -18.489   4.713  1.00  0.00    -0.326 N 
HETATM    2  C   UNL     1      42.900 -17.746   4.958  1.00  0.00     0.231 C 
HETATM    3  O   UNL     1      41.758 -18.139   4.734  1.00  0.00    -0.272 OA
HETATM    4  H   UNL     1      44.903 -17.979   4.867  1.00  0.00     0.169 HD
ENDROOT
BRANCH   1   5
HETATM    5  C   UNL     1      44.219 -19.775   4.136  1.00  0.00     0.042 A 
HETATM    6  C   UNL     1      44.102 -20.179   2.787  1.00  0.00    -0.006 A 
HETATM    7  C   UNL     1      44.401 -21.529   2.460  1.00  0.00     0.011 A 
HETATM    8  C   UNL     1      44.772 -22.462   3.424  1.00  0.00     0.001 A 
HETATM    9  C   UNL     1      44.855 -22.072   4.747  1.00  0.00     0.002 A 
HETATM   10  C   UNL     1      44.580 -20.750   5.094  1.00  0.00     0.030 A 
BRANCH   6  11
HETATM   11  C   UNL     1      43.654 -19.337   1.619  1.00  0.00     0.273 C 
BRANCH  11  12
HETATM   12  N   UNL     1      42.246 -18.877   1.751  1.00  0.00    -0.072 N 
HETATM   13  H   UNL     1      41.908 -18.999   2.711  1.00  0.00     0.277 HD
HETATM   14  H   UNL     1      41.720 -19.554   1.166  1.00  0.00     0.277 HD
BRANCH  12  15
HETATM   15  C   UNL     1      41.952 -17.527   1.214  1.00  0.00     0.228 C 
HETATM   16  C   UNL     1      40.578 -17.101   1.691  1.00  0.00     0.034 C 
ENDBRANCH  12  15
ENDBRANCH  11  12
ENDBRANCH   6  11
ENDBRANCH   1   5
BRANCH   2  17
HETATM   17  C   UNL     1      43.186 -16.312   5.430  1.00  0.00     0.122 C 
HETATM   18  C   UNL     1      42.753 -15.320   4.371  1.00  0.00    -0.028 A 
HETATM   19  C   UNL     1      41.471 -14.793   4.574  1.00  0.00     0.007 A 
HETATM   20  C   UNL     1      43.478 -14.970   3.235  1.00  0.00     0.009 A 
HETATM   21  C   UNL     1      40.886 -13.944   3.649  1.00  0.00     0.019 A 
HETATM   22  S   UNL     1      40.757 -15.322   6.102  1.00  0.00    -0.128 SA
HETATM   23  C   UNL     1      41.607 -13.602   2.504  1.00  0.00     0.001 A 
HETATM   24  C   UNL     1      42.899 -14.107   2.304  1.00  0.00     0.001 A 
HETATM   25  C   UNL     1      42.357 -15.973   6.683  1.00  0.00     0.098 C 
ENDBRANCH   2  17
TORSDOF 5
ENDMDL
MODEL 5
REMARK VINA RESULT:      -6.6      3.702      5.652
REMARK  5 active torsions:
REMARK  status: ('A' for Active; 'I' for Inactive)
REMARK    1  A    between atoms: C_2  and  N_3 
REMARK    2  A    between atoms: N_3  and  C_6 
REMARK    3  A    between atoms: C_6  and  C_7 
REMARK    4  A    between atoms: C_8  and  N_9 
REMARK       I    between atoms: N_9  and  C_10 
REMARK    5  A    between atoms: C_10  and  C_11 
ROOT
HETATM    1  N   UNL     1      42.528 -15.749   0.652  1.00  0.00    -0.326 N 
HETATM    2  C   UNL     1      41.304 -15.302   0.200  1.00  0.00     0.231 C 
HETATM    3  O   UNL     1      40.224 -15.671   0.656  1.00  0.00    -0.272 OA
HETATM    4  H   UNL     1      43.316 -15.414   0.103  1.00  0.00     0.169 HD
ENDROOT
BRANCH   1   5
HETATM    5  C   UNL     1      42.879 -16.713   1.636  1.00  0.00     0.042 A 
HETATM    6  C   UNL     1      42.639 -16.704   3.028  1.00  0.00    -0.006 A 
HETATM    7  C   UNL     1      43.045 -17.834   3.788  1.00  0.00     0.011 A 
HETATM    8  C   UNL     1      43.691 -18.924   3.212  1.00  0.00     0.001 A 
HETATM    9  C   UNL     1      43.952 -18.916   1.856  1.00  0.00     0.002 A 
HETATM   10  C   UNL     1      43.554 -17.826   1.083  1.00  0.00     0.030 A 
BRANCH   6  11
HETATM   11  C   UNL     1      42.016 -15.596   3.839  1.00  0.00     0.273 C 
BRANCH  11  12
HETATM   12  N   UNL     1      40.533 -15.574   3.734  1.00  0.00    -0.072 N 
HETATM   13  H   UNL     1      40.122 -16.415   4.151  1.00  0.00     0.277 HD
HETATM   14  H   UNL     1      40.368 -15.642   2.711  1.00  0.00     0.277 HD
BRANCH  12  15
HETATM   15  C   UNL     1      39.868 -14.331   4.194  1.00  0.00     0.228 C 
HETATM   16  C   UNL     1      40.076 -13.252   3.151  1.00  0.00     0.034 C 
ENDBRANCH  12  15
ENDBRANCH  11  12
ENDBRANCH   6  11
ENDBRANCH   1   5
BRANCH   2  17
HETATM   17  C   UNL     1      41.394 -14.377  -1.024  1.00  0.00     0.122 C 
HETATM   18  C   UNL     1      40.370 -14.786  -2.061  1.00  0.00    -0.028 A 
HETATM   19  C   UNL     1      39.173 -14.062  -1.998  1.00  0.00     0.007 A 
HETATM   20  C   UNL     1      40.508 -15.825  -2.978  1.00  0.00     0.009 A 
HETATM   21  C   UNL     1      38.098 -14.374  -2.814  1.00  0.00     0.019 A 
HETATM   22  S   UNL     1      39.235 -12.756  -0.809  1.00  0.00    -0.128 SA
HETATM   23  C   UNL     1      38.231 -15.423  -3.725  1.00  0.00     0.001 A 
HETATM   24  C   UNL     1      39.433 -16.138  -3.811  1.00  0.00     0.001 A 
HETATM   25  C   UNL     1      41.042 -12.927  -0.640  1.00  0.00     0.098 C 
ENDBRANCH   2  17
TORSDOF 5
ENDMDL
MODEL 6
REMARK VINA RESULT:      -6.5      3.077      6.617
REMARK  5 active torsions:
REMARK  status: ('A' for Active; 'I' for Inactive)
REMARK    1  A    between atoms: C_2  and  N_3 
REMARK    2  A    between atoms: N_3  and  C_6 
REMARK    3  A    between atoms: C_6  and  C_7 
REMARK    4  A    between atoms: C_8  and  N_9 
REMARK       I    between atoms: N_9  and  C_10 
REMARK    5  A    between atoms: C_10  and  C_11 
ROOT
HETATM    1  N   UNL     1      41.146 -16.035   0.360  1.00  0.00    -0.326 N 
HETATM    2  C   UNL     1      42.096 -16.637   1.159  1.00  0.00     0.231 C 
HETATM    3  O   UNL     1      43.307 -16.471   1.035  1.00  0.00    -0.272 OA
HETATM    4  H   UNL     1      40.197 -16.354   0.537  1.00  0.00     0.169 HD
ENDROOT
BRANCH   1   5
HETATM    5  C   UNL     1      41.265 -15.178  -0.767  1.00  0.00     0.042 A 
HETATM    6  C   UNL     1      41.659 -13.822  -0.827  1.00  0.00    -0.006 A 
HETATM    7  C   UNL     1      41.754 -13.204  -2.103  1.00  0.00     0.011 A 
HETATM    8  C   UNL     1      41.446 -13.880  -3.281  1.00  0.00     0.001 A 
HETATM    9  C   UNL     1      41.030 -15.196  -3.217  1.00  0.00     0.002 A 
HETATM   10  C   UNL     1      40.940 -15.831  -1.978  1.00  0.00     0.030 A 
BRANCH   6  11
HETATM   11  C   UNL     1      41.968 -12.910   0.333  1.00  0.00     0.273 C 
BRANCH  11  12
HETATM   12  N   UNL     1      40.870 -12.866   1.336  1.00  0.00    -0.072 N 
HETATM   13  H   UNL     1      40.170 -13.590   1.146  1.00  0.00     0.277 HD
HETATM   14  H   UNL     1      40.410 -11.955   1.141  1.00  0.00     0.277 HD
BRANCH  12  15
HETATM   15  C   UNL     1      41.290 -12.840   2.757  1.00  0.00     0.228 C 
HETATM   16  C   UNL     1      42.677 -13.440   2.867  1.00  0.00     0.034 C 
ENDBRANCH  12  15
ENDBRANCH  11  12
ENDBRANCH   6  11
ENDBRANCH   1   5
BRANCH   2  17
HETATM   17  C   UNL     1      41.514 -17.647   2.161  1.00  0.00     0.122 C 
HETATM   18  C   UNL     1      42.572 -18.653   2.559  1.00  0.00    -0.028 A 
HETATM   19  C   UNL     1      43.241 -18.338   3.749  1.00  0.00     0.007 A 
HETATM   20  C   UNL     1      42.951 -19.773   1.823  1.00  0.00     0.009 A 
HETATM   21  C   UNL     1      44.301 -19.104   4.206  1.00  0.00     0.019 A 
HETATM   22  S   UNL     1      42.563 -16.915   4.548  1.00  0.00    -0.128 SA
HETATM   23  C   UNL     1      44.689 -20.220   3.463  1.00  0.00     0.001 A 
HETATM   24  C   UNL     1      44.012 -20.556   2.283  1.00  0.00     0.001 A 
HETATM   25  C   UNL     1      41.096 -16.943   3.466  1.00  0.00     0.098 C 
ENDBRANCH   2  17
TORSDOF 5
ENDMDL
MODEL 7
REMARK VINA RESULT:      -6.5      3.265      5.989
REMARK  5 active torsions:
REMARK  status: ('A' for Active; 'I' for Inactive)
REMARK    1  A    between atoms: C_2  and  N_3 
REMARK    2  A    between atoms: N_3  and  C_6 
REMARK    3  A    between atoms: C_6  and  C_7 
REMARK    4  A    between atoms: C_8  and  N_9 
REMARK       I    between atoms: N_9  and  C_10 
REMARK    5  A    between atoms: C_10  and  C_11 
ROOT
HETATM    1  N   UNL     1      42.042 -15.721  -0.218  1.00  0.00    -0.326 N 
HETATM    2  C   UNL     1      42.141 -16.760   0.684  1.00  0.00     0.231 C 
HETATM    3  O   UNL     1      41.209 -17.500   0.989  1.00  0.00    -0.272 OA
HETATM    4  H   UNL     1      42.882 -15.151  -0.283  1.00  0.00     0.169 HD
ENDROOT
BRANCH   1   5
HETATM    5  C   UNL     1      40.937 -15.205  -0.948  1.00  0.00     0.042 A 
HETATM    6  C   UNL     1      39.861 -14.405  -0.504  1.00  0.00    -0.006 A 
HETATM    7  C   UNL     1      38.906 -13.968  -1.462  1.00  0.00     0.011 A 
HETATM    8  C   UNL     1      38.984 -14.326  -2.805  1.00  0.00     0.001 A 
HETATM    9  C   UNL     1      40.020 -15.135  -3.231  1.00  0.00     0.002 A 
HETATM   10  C   UNL     1      40.978 -15.568  -2.314  1.00  0.00     0.030 A 
BRANCH   6  11
HETATM   11  C   UNL     1      39.572 -13.970   0.911  1.00  0.00     0.273 C 
BRANCH  11  12
HETATM   12  N   UNL     1      39.233 -15.111   1.803  1.00  0.00    -0.072 N 
HETATM   13  H   UNL     1      39.375 -16.006   1.325  1.00  0.00     0.277 HD
HETATM   14  H   UNL     1      38.208 -15.009   1.937  1.00  0.00     0.277 HD
BRANCH  12  15
HETATM   15  C   UNL     1      39.847 -15.084   3.152  1.00  0.00     0.228 C 
HETATM   16  C   UNL     1      39.853 -13.655   3.656  1.00  0.00     0.034 C 
ENDBRANCH  12  15
ENDBRANCH  11  12
ENDBRANCH   6  11
ENDBRANCH   1   5
BRANCH   2  17
HETATM   17  C   UNL     1      43.507 -16.846   1.383  1.00  0.00     0.122 C 
HETATM   18  C   UNL     1      43.465 -16.102   2.700  1.00  0.00    -0.028 A 
HETATM   19  C   UNL     1      43.202 -16.918   3.808  1.00  0.00     0.007 A 
HETATM   20  C   UNL     1      43.596 -14.725   2.864  1.00  0.00     0.009 A 
HETATM   21  C   UNL     1      43.037 -16.381   5.075  1.00  0.00     0.019 A 
HETATM   22  S   UNL     1      43.133 -18.632   3.385  1.00  0.00    -0.128 SA
HETATM   23  C   UNL     1      43.156 -15.001   5.238  1.00  0.00     0.001 A 
HETATM   24  C   UNL     1      43.441 -14.179   4.139  1.00  0.00     0.001 A 
HETATM   25  C   UNL     1      43.848 -18.306   1.739  1.00  0.00     0.098 C 
ENDBRANCH   2  17
TORSDOF 5
ENDMDL
MODEL 8
REMARK VINA RESULT:      -6.3      2.388      4.558
REMARK  5 active torsions:
REMARK  status: ('A' for Active; 'I' for Inactive)
REMARK    1  A    between atoms: C_2  and  N_3 
REMARK    2  A    between atoms: N_3  and  C_6 
REMARK    3  A    between atoms: C_6  and  C_7 
REMARK    4  A    between atoms: C_8  and  N_9 
REMARK       I    between atoms: N_9  and  C_10 
REMARK    5  A    between atoms: C_10  and  C_11 
ROOT
HETATM    1  N   UNL     1      42.364 -15.591   4.205  1.00  0.00    -0.326 N 
HETATM    2  C   UNL     1      42.644 -14.520   3.382  1.00  0.00     0.231 C 
HETATM    3  O   UNL     1      43.776 -14.197   3.031  1.00  0.00    -0.272 OA
HETATM    4  H   UNL     1      41.386 -15.661   4.472  1.00  0.00     0.169 HD
ENDROOT
BRANCH   1   5
HETATM    5  C   UNL     1      43.212 -16.513   4.877  1.00  0.00     0.042 A 
HETATM    6  C   UNL     1      43.593 -17.821   4.501  1.00  0.00    -0.006 A 
HETATM    7  C   UNL     1      44.512 -18.519   5.330  1.00  0.00     0.011 A 
HETATM    8  C   UNL     1      45.018 -17.969   6.505  1.00  0.00     0.001 A 
HETATM    9  C   UNL     1      44.619 -16.703   6.887  1.00  0.00     0.002 A 
HETATM   10  C   UNL     1      43.728 -15.991   6.085  1.00  0.00     0.030 A 
BRANCH   6  11
HETATM   11  C   UNL     1      43.106 -18.605   3.308  1.00  0.00     0.273 C 
BRANCH  11  12
HETATM   12  N   UNL     1      44.104 -18.649   2.206  1.00  0.00    -0.072 N 
HETATM   13  H   UNL     1      43.981 -19.490   1.632  1.00  0.00     0.277 HD
HETATM   14  H   UNL     1      45.006 -18.767   2.708  1.00  0.00     0.277 HD
BRANCH  12  15
HETATM   15  C   UNL     1      44.224 -17.418   1.390  1.00  0.00     0.228 C 
HETATM   16  C   UNL     1      42.875 -17.109   0.772  1.00  0.00     0.034 C 
ENDBRANCH  12  15
ENDBRANCH  11  12
ENDBRANCH   6  11
ENDBRANCH   1   5
BRANCH   2  17
HETATM   17  C   UNL     1      41.412 -13.673   3.026  1.00  0.00     0.122 C 
HETATM   18  C   UNL     1      41.324 -13.487   1.526  1.00  0.00    -0.028 A 
HETATM   19  C   UNL     1      40.484 -14.405   0.885  1.00  0.00     0.007 A 
HETATM   20  C   UNL     1      42.040 -12.556   0.777  1.00  0.00     0.009 A 
HETATM   21  C   UNL     1      40.365 -14.433  -0.495  1.00  0.00     0.019 A 
HETATM   22  S   UNL     1      39.632 -15.452   2.026  1.00  0.00    -0.128 SA
HETATM   23  C   UNL     1      41.091 -13.508  -1.248  1.00  0.00     0.001 A 
HETATM   24  C   UNL     1      41.917 -12.571  -0.613  1.00  0.00     0.001 A 
HETATM   25  C   UNL     1      40.114 -14.398   3.432  1.00  0.00     0.098 C 
ENDBRANCH   2  17
TORSDOF 5
ENDMDL
MODEL 9
REMARK VINA RESULT:      -6.2      3.829      7.140
REMARK  5 active torsions:
REMARK  status: ('A' for Active; 'I' for Inactive)
REMARK    1  A    between atoms: C_2  and  N_3 
REMARK    2  A    between atoms: N_3  and  C_6 
REMARK    3  A    between atoms: C_6  and  C_7 
REMARK    4  A    between atoms: C_8  and  N_9 
REMARK       I    between atoms: N_9  and  C_10 
REMARK    5  A    between atoms: C_10  and  C_11 
ROOT
HETATM    1  N   UNL     1      41.727 -15.421   0.082  1.00  0.00    -0.326 N 
HETATM    2  C   UNL     1      41.846 -16.521   0.905  1.00  0.00     0.231 C 
HETATM    3  O   UNL     1      40.913 -17.258   1.211  1.00  0.00    -0.272 OA
HETATM    4  H   UNL     1      42.576 -14.867   0.008  1.00  0.00     0.169 HD
ENDROOT
BRANCH   1   5
HETATM    5  C   UNL     1      40.598 -14.831  -0.550  1.00  0.00     0.042 A 
HETATM    6  C   UNL     1      40.315 -14.681  -1.927  1.00  0.00    -0.006 A 
HETATM    7  C   UNL     1      39.072 -14.102  -2.299  1.00  0.00     0.011 A 
HETATM    8  C   UNL     1      38.148 -13.657  -1.357  1.00  0.00     0.001 A 
HETATM    9  C   UNL     1      38.441 -13.775  -0.013  1.00  0.00     0.002 A 
HETATM   10  C   UNL     1      39.649 -14.351   0.381  1.00  0.00     0.030 A 
BRANCH   6  11
HETATM   11  C   UNL     1      41.210 -15.040  -3.086  1.00  0.00     0.273 C 
BRANCH  11  12
HETATM   12  N   UNL     1      42.437 -14.201  -3.143  1.00  0.00    -0.072 N 
HETATM   13  H   UNL     1      43.062 -14.515  -3.892  1.00  0.00     0.277 HD
HETATM   14  H   UNL     1      42.916 -14.423  -2.249  1.00  0.00     0.277 HD
BRANCH  12  15
HETATM   15  C   UNL     1      42.220 -12.735  -3.162  1.00  0.00     0.228 C 
HETATM   16  C   UNL     1      42.882 -12.128  -1.941  1.00  0.00     0.034 C 
ENDBRANCH  12  15
ENDBRANCH  11  12
ENDBRANCH   6  11
ENDBRANCH   1   5
BRANCH   2  17
HETATM   17  C   UNL     1      43.245 -16.687   1.519  1.00  0.00     0.122 C 
HETATM   18  C   UNL     1      43.137 -16.867   3.018  1.00  0.00    -0.028 A 
HETATM   19  C   UNL     1      43.143 -18.204   3.435  1.00  0.00     0.007 A 
HETATM   20  C   UNL     1      42.971 -15.847   3.952  1.00  0.00     0.009 A 
HETATM   21  C   UNL     1      42.957 -18.545   4.765  1.00  0.00     0.019 A 
HETATM   22  S   UNL     1      43.423 -19.327   2.099  1.00  0.00    -0.128 SA
HETATM   23  C   UNL     1      42.779 -17.525   5.699  1.00  0.00     0.001 A 
HETATM   24  C   UNL     1      42.794 -16.183   5.295  1.00  0.00     0.001 A 
HETATM   25  C   UNL     1      43.925 -17.966   0.994  1.00  0.00     0.098 C 
ENDBRANCH   2  17
TORSDOF 5
ENDMDL
MODEL 10
REMARK VINA RESULT:      -6.2      1.686      2.649
REMARK  5 active torsions:
REMARK  status: ('A' for Active; 'I' for Inactive)
REMARK    1  A    between atoms: C_2  and  N_3 
REMARK    2  A    between atoms: N_3  and  C_6 
REMARK    3  A    between atoms: C_6  and  C_7 
REMARK    4  A    between atoms: C_8  and  N_9 
REMARK       I    between atoms: N_9  and  C_10 
REMARK    5  A    between atoms: C_10  and  C_11 
ROOT
HETATM    1  N   UNL     1      42.657 -17.588   4.821  1.00  0.00    -0.326 N 
HETATM    2  C   UNL     1      41.407 -17.451   5.390  1.00  0.00     0.231 C 
HETATM    3  O   UNL     1      40.480 -18.237   5.213  1.00  0.00    -0.272 OA
HETATM    4  H   UNL     1      43.277 -16.800   4.996  1.00  0.00     0.169 HD
ENDROOT
BRANCH   1   5
HETATM    5  C   UNL     1      43.181 -18.543   3.909  1.00  0.00     0.042 A 
HETATM    6  C   UNL     1      44.072 -19.615   4.143  1.00  0.00    -0.006 A 
HETATM    7  C   UNL     1      44.396 -20.470   3.055  1.00  0.00     0.011 A 
HETATM    8  C   UNL     1      43.891 -20.267   1.774  1.00  0.00     0.001 A 
HETATM    9  C   UNL     1      43.046 -19.199   1.541  1.00  0.00     0.002 A 
HETATM   10  C   UNL     1      42.701 -18.351   2.593  1.00  0.00     0.030 A 
BRANCH   6  11
HETATM   11  C   UNL     1      44.768 -19.956   5.436  1.00  0.00     0.273 C 
BRANCH  11  12
HETATM   12  N   UNL     1      44.103 -21.066   6.169  1.00  0.00    -0.072 N 
HETATM   13  H   UNL     1      44.677 -21.915   6.150  1.00  0.00     0.277 HD
HETATM   14  H   UNL     1      43.266 -21.265   5.587  1.00  0.00     0.277 HD
BRANCH  12  15
HETATM   15  C   UNL     1      43.613 -20.743   7.530  1.00  0.00     0.228 C 
HETATM   16  C   UNL     1      43.818 -19.263   7.784  1.00  0.00     0.034 C 
ENDBRANCH  12  15
ENDBRANCH  11  12
ENDBRANCH   6  11
ENDBRANCH   1   5
BRANCH   2  17
HETATM   17  C   UNL     1      41.226 -16.147   6.183  1.00  0.00     0.122 C 
HETATM   18  C   UNL     1      42.541 -15.403   6.268  1.00  0.00    -0.028 A 
HETATM   19  C   UNL     1      42.701 -14.413   5.290  1.00  0.00     0.007 A 
HETATM   20  C   UNL     1      43.574 -15.671   7.163  1.00  0.00     0.009 A 
HETATM   21  C   UNL     1      43.885 -13.704   5.168  1.00  0.00     0.019 A 
HETATM   22  S   UNL     1      41.252 -14.200   4.301  1.00  0.00    -0.128 SA
HETATM   23  C   UNL     1      44.925 -13.980   6.058  1.00  0.00     0.001 A 
HETATM   24  C   UNL     1      44.765 -14.953   7.054  1.00  0.00     0.001 A 
HETATM   25  C   UNL     1      40.255 -15.197   5.457  1.00  0.00     0.098 C 
ENDBRANCH   2  17
TORSDOF 5
ENDMDL
