MODEL 1
REMARK VINA RESULT:      -8.8      0.000      0.000
REMARK  6 active torsions:
REMARK  status: ('A' for Active; 'I' for Inactive)
REMARK    1  A    between atoms: C_2  and  N_3 
REMARK    2  A    between atoms: N_7  and  C_8 
REMARK    3  A    between atoms: C_11  and  N_12 
REMARK    4  A    between atoms: C_13  and  N_14 
REMARK       I    between atoms: N_14  and  C_15 
REMARK    5  A    between atoms: C_15  and  C_16 
REMARK    6  A    between atoms: C_18  and  C_19 
ROOT
HETATM    1  N   UNL     1      43.949 -19.438   1.993  1.00  0.00    -0.338 N 
HETATM    2  C   UNL     1      44.327 -20.305   2.952  1.00  0.00     0.157 C 
HETATM    3  S   UNL     1      44.295 -21.943   2.593  1.00  0.00    -0.047 SA
HETATM    4  H   UNL     1      43.940 -19.856   1.066  1.00  0.00     0.168 HD
ENDROOT
BRANCH   2   5
HETATM    5  N   UNL     1      44.841 -19.941   4.157  1.00  0.00    -0.199 NA
HETATM    6  C   UNL     1      44.371 -20.345   5.404  1.00  0.00     0.261 C 
HETATM    7  O   UNL     1      44.434 -21.489   5.840  1.00  0.00    -0.271 OA
HETATM    8  H   UNL     1      44.987 -18.936   4.130  1.00  0.00     0.139 HD
BRANCH   6   9
HETATM    9  C   UNL     1      43.939 -19.238   6.237  1.00  0.00     0.138 A 
HETATM   10  O   UNL     1      43.417 -18.115   5.651  1.00  0.00    -0.305 OA
HETATM   11  C   UNL     1      43.011 -17.275   6.655  1.00  0.00     0.088 A 
HETATM   12  C   UNL     1      43.352 -17.826   7.874  1.00  0.00     0.041 A 
HETATM   13  C   UNL     1      43.923 -19.092   7.608  1.00  0.00     0.045 A 
BRANCH  11  14
HETATM   14  C   UNL     1      42.332 -16.051   6.228  1.00  0.00     0.020 A 
HETATM   15  C   UNL     1      42.982 -14.804   6.115  1.00  0.00     0.048 A 
HETATM   16 CL   UNL     1      44.646 -14.567   6.531  1.00  0.00    -0.083 Cl
HETATM   17  C   UNL     1      42.283 -13.665   5.693  1.00  0.00     0.048 A 
HETATM   18  C   UNL     1      40.929 -13.754   5.389  1.00  0.00     0.035 A 
HETATM   19 CL   UNL     1      40.075 -12.353   4.877  1.00  0.00    -0.084 Cl
HETATM   20  C   UNL     1      40.263 -14.969   5.503  1.00  0.00     0.025 A 
HETATM   21  C   UNL     1      40.960 -16.108   5.921  1.00  0.00     0.017 A 
ENDBRANCH  11  14
ENDBRANCH   6   9
ENDBRANCH   2   5
BRANCH   1  22
HETATM   22  C   UNL     1      43.344 -18.173   2.062  1.00  0.00     0.034 A 
HETATM   23  C   UNL     1      44.011 -17.009   2.432  1.00  0.00     0.032 A 
HETATM   24  C   UNL     1      43.330 -15.782   2.481  1.00  0.00     0.031 A 
HETATM   25  C   UNL     1      41.971 -15.682   2.157  1.00  0.00     0.030 A 
HETATM   26  C   UNL     1      41.305 -16.882   1.858  1.00  0.00     0.031 A 
HETATM   27  C   UNL     1      41.973 -18.109   1.822  1.00  0.00     0.032 A 
BRANCH  25  28
HETATM   28  N   UNL     1      41.259 -14.483   2.141  1.00  0.00    -0.378 N 
HETATM   29  C   UNL     1      39.845 -14.577   1.724  1.00  0.00     0.150 C 
HETATM   30  C   UNL     1      39.686 -14.243   0.224  1.00  0.00     0.254 C 
HETATM   31  N   UNL     1      40.275 -12.857  -0.070  1.00  0.00    -0.068 N 
HETATM   32  H   UNL     1      39.795 -12.186   0.545  1.00  0.00     0.280 HD
HETATM   33  C   UNL     1      41.757 -12.833   0.329  1.00  0.00     0.254 C 
HETATM   34  C   UNL     1      41.927 -13.214   1.814  1.00  0.00     0.150 C 
BRANCH  31  35
HETATM   35  C   UNL     1      40.083 -12.404  -1.496  1.00  0.00     0.230 C 
HETATM   36  C   UNL     1      39.036 -13.251  -2.196  1.00  0.00     0.034 C 
ENDBRANCH  31  35
ENDBRANCH  25  28
ENDBRANCH   1  22
TORSDOF 6
ENDMDL
MODEL 2
REMARK VINA RESULT:      -8.5      5.945      9.417
REMARK  6 active torsions:
REMARK  status: ('A' for Active; 'I' for Inactive)
REMARK    1  A    between atoms: C_2  and  N_3 
REMARK    2  A    between atoms: N_7  and  C_8 
REMARK    3  A    between atoms: C_11  and  N_12 
REMARK    4  A    between atoms: C_13  and  N_14 
REMARK       I    between atoms: N_14  and  C_15 
REMARK    5  A    between atoms: C_15  and  C_16 
REMARK    6  A    between atoms: C_18  and  C_19 
ROOT
HETATM    1  N   UNL     1      41.282 -10.861   6.015  1.00  0.00    -0.338 N 
HETATM    2  C   UNL     1      41.622 -11.893   5.220  1.00  0.00     0.157 C 
HETATM    3  S   UNL     1      41.202 -11.812   3.599  1.00  0.00    -0.047 SA
HETATM    4  H   UNL     1      41.042 -10.023   5.492  1.00  0.00     0.168 HD
ENDROOT
BRANCH   2   5
HETATM    5  N   UNL     1      42.382 -12.948   5.615  1.00  0.00    -0.199 NA
HETATM    6  C   UNL     1      43.058 -13.832   4.777  1.00  0.00     0.261 C 
HETATM    7  O   UNL     1      44.018 -13.537   4.074  1.00  0.00    -0.271 OA
HETATM    8  H   UNL     1      41.856 -13.449   6.325  1.00  0.00     0.139 HD
BRANCH   6   9
HETATM    9  C   UNL     1      42.625 -15.209   4.932  1.00  0.00     0.138 A 
HETATM   10  O   UNL     1      43.175 -16.183   4.142  1.00  0.00    -0.305 OA
HETATM   11  C   UNL     1      42.663 -17.386   4.552  1.00  0.00     0.088 A 
HETATM   12  C   UNL     1      41.727 -17.167   5.543  1.00  0.00     0.041 A 
HETATM   13  C   UNL     1      41.720 -15.778   5.803  1.00  0.00     0.045 A 
BRANCH  11  14
HETATM   14  C   UNL     1      43.206 -18.571   3.887  1.00  0.00     0.020 A 
HETATM   15  C   UNL     1      44.162 -19.422   4.478  1.00  0.00     0.048 A 
HETATM   16 CL   UNL     1      44.853 -19.124   6.039  1.00  0.00    -0.083 Cl
HETATM   17  C   UNL     1      44.640 -20.550   3.798  1.00  0.00     0.048 A 
HETATM   18  C   UNL     1      44.178 -20.836   2.518  1.00  0.00     0.035 A 
HETATM   19 CL   UNL     1      44.772 -22.217   1.684  1.00  0.00    -0.084 Cl
HETATM   20  C   UNL     1      43.244 -20.007   1.908  1.00  0.00     0.025 A 
HETATM   21  C   UNL     1      42.763 -18.882   2.588  1.00  0.00     0.017 A 
ENDBRANCH  11  14
ENDBRANCH   6   9
ENDBRANCH   2   5
BRANCH   1  22
HETATM   22  C   UNL     1      40.965 -10.798   7.382  1.00  0.00     0.034 A 
HETATM   23  C   UNL     1      41.890 -10.531   8.385  1.00  0.00     0.032 A 
HETATM   24  C   UNL     1      41.491 -10.492   9.732  1.00  0.00     0.031 A 
HETATM   25  C   UNL     1      40.161 -10.713  10.111  1.00  0.00     0.030 A 
HETATM   26  C   UNL     1      39.262 -11.053   9.087  1.00  0.00     0.031 A 
HETATM   27  C   UNL     1      39.656 -11.108   7.747  1.00  0.00     0.032 A 
BRANCH  25  28
HETATM   28  N   UNL     1      39.702 -10.636  11.426  1.00  0.00    -0.378 N 
HETATM   29  C   UNL     1      39.300  -9.293  11.892  1.00  0.00     0.150 C 
HETATM   30  C   UNL     1      40.448  -8.607  12.663  1.00  0.00     0.254 C 
HETATM   31  N   UNL     1      40.907  -9.499  13.825  1.00  0.00    -0.068 N 
HETATM   32  H   UNL     1      40.082  -9.683  14.410  1.00  0.00     0.280 HD
HETATM   33  C   UNL     1      41.367 -10.858  13.278  1.00  0.00     0.254 C 
HETATM   34  C   UNL     1      40.239 -11.527  12.465  1.00  0.00     0.150 C 
BRANCH  31  35
HETATM   35  C   UNL     1      41.968  -8.869  14.693  1.00  0.00     0.230 C 
HETATM   36  C   UNL     1      43.355  -9.166  14.154  1.00  0.00     0.034 C 
ENDBRANCH  31  35
ENDBRANCH  25  28
ENDBRANCH   1  22
TORSDOF 6
ENDMDL
MODEL 3
REMARK VINA RESULT:      -8.2      3.727      5.924
REMARK  6 active torsions:
REMARK  status: ('A' for Active; 'I' for Inactive)
REMARK    1  A    between atoms: C_2  and  N_3 
REMARK    2  A    between atoms: N_7  and  C_8 
REMARK    3  A    between atoms: C_11  and  N_12 
REMARK    4  A    between atoms: C_13  and  N_14 
REMARK       I    between atoms: N_14  and  C_15 
REMARK    5  A    between atoms: C_15  and  C_16 
REMARK    6  A    between atoms: C_18  and  C_19 
ROOT
HETATM    1  N   UNL     1      40.538 -11.951   5.319  1.00  0.00    -0.338 N 
HETATM    2  C   UNL     1      41.531 -12.033   6.226  1.00  0.00     0.157 C 
HETATM    3  S   UNL     1      41.729 -10.759   7.297  1.00  0.00    -0.047 SA
HETATM    4  H   UNL     1      39.847 -11.244   5.555  1.00  0.00     0.168 HD
ENDROOT
BRANCH   2   5
HETATM    5  N   UNL     1      42.314 -13.130   6.407  1.00  0.00    -0.199 NA
HETATM    6  C   UNL     1      42.911 -13.886   5.402  1.00  0.00     0.261 C 
HETATM    7  O   UNL     1      43.810 -13.494   4.668  1.00  0.00    -0.271 OA
HETATM    8  H   UNL     1      41.846 -13.726   7.084  1.00  0.00     0.139 HD
BRANCH   6   9
HETATM    9  C   UNL     1      42.483 -15.274   5.402  1.00  0.00     0.138 A 
HETATM   10  O   UNL     1      43.037 -16.152   4.509  1.00  0.00    -0.305 OA
HETATM   11  C   UNL     1      42.529 -17.395   4.783  1.00  0.00     0.088 A 
HETATM   12  C   UNL     1      41.592 -17.291   5.791  1.00  0.00     0.041 A 
HETATM   13  C   UNL     1      41.579 -15.940   6.204  1.00  0.00     0.045 A 
BRANCH  11  14
HETATM   14  C   UNL     1      43.076 -18.497   3.991  1.00  0.00     0.020 A 
HETATM   15  C   UNL     1      42.735 -18.727   2.642  1.00  0.00     0.048 A 
HETATM   16 CL   UNL     1      41.576 -17.765   1.786  1.00  0.00    -0.083 Cl
HETATM   17  C   UNL     1      43.297 -19.794   1.929  1.00  0.00     0.048 A 
HETATM   18  C   UNL     1      44.198 -20.649   2.555  1.00  0.00     0.035 A 
HETATM   19 CL   UNL     1      44.881 -21.960   1.678  1.00  0.00    -0.084 Cl
HETATM   20  C   UNL     1      44.543 -20.451   3.887  1.00  0.00     0.025 A 
HETATM   21  C   UNL     1      43.985 -19.384   4.599  1.00  0.00     0.017 A 
ENDBRANCH  11  14
ENDBRANCH   6   9
ENDBRANCH   2   5
BRANCH   1  22
HETATM   22  C   UNL     1      40.413 -12.469   4.019  1.00  0.00     0.034 A 
HETATM   23  C   UNL     1      40.925 -11.855   2.882  1.00  0.00     0.032 A 
HETATM   24  C   UNL     1      40.750 -12.438   1.616  1.00  0.00     0.031 A 
HETATM   25  C   UNL     1      40.066 -13.649   1.453  1.00  0.00     0.030 A 
HETATM   26  C   UNL     1      39.496 -14.211   2.607  1.00  0.00     0.031 A 
HETATM   27  C   UNL     1      39.654 -13.628   3.867  1.00  0.00     0.032 A 
BRANCH  25  28
HETATM   28  N   UNL     1      39.908 -14.297   0.228  1.00  0.00    -0.378 N 
HETATM   29  C   UNL     1      41.137 -14.862  -0.367  1.00  0.00     0.150 C 
HETATM   30  C   UNL     1      41.750 -13.891  -1.400  1.00  0.00     0.254 C 
HETATM   31  N   UNL     1      40.709 -13.538  -2.471  1.00  0.00    -0.068 N 
HETATM   32  H   UNL     1      40.391 -14.422  -2.889  1.00  0.00     0.280 HD
HETATM   33  C   UNL     1      39.480 -12.904  -1.803  1.00  0.00     0.254 C 
HETATM   34  C   UNL     1      38.892 -13.850  -0.736  1.00  0.00     0.150 C 
BRANCH  31  35
HETATM   35  C   UNL     1      41.245 -12.663  -3.576  1.00  0.00     0.230 C 
HETATM   36  C   UNL     1      42.478 -11.906  -3.117  1.00  0.00     0.034 C 
ENDBRANCH  31  35
ENDBRANCH  25  28
ENDBRANCH   1  22
TORSDOF 6
ENDMDL
MODEL 4
REMARK VINA RESULT:      -7.9      3.789      5.762
REMARK  6 active torsions:
REMARK  status: ('A' for Active; 'I' for Inactive)
REMARK    1  A    between atoms: C_2  and  N_3 
REMARK    2  A    between atoms: N_7  and  C_8 
REMARK    3  A    between atoms: C_11  and  N_12 
REMARK    4  A    between atoms: C_13  and  N_14 
REMARK       I    between atoms: N_14  and  C_15 
REMARK    5  A    between atoms: C_15  and  C_16 
REMARK    6  A    between atoms: C_18  and  C_19 
ROOT
HETATM    1  N   UNL     1      41.366 -12.446   6.828  1.00  0.00    -0.338 N 
HETATM    2  C   UNL     1      42.607 -12.328   7.337  1.00  0.00     0.157 C 
HETATM    3  S   UNL     1      42.949 -10.985   8.280  1.00  0.00    -0.047 SA
HETATM    4  H   UNL     1      40.691 -11.843   7.291  1.00  0.00     0.168 HD
ENDROOT
BRANCH   2   5
HETATM    5  N   UNL     1      43.572 -13.280   7.232  1.00  0.00    -0.199 NA
HETATM    6  C   UNL     1      43.872 -14.022   6.093  1.00  0.00     0.261 C 
HETATM    7  O   UNL     1      44.358 -13.564   5.064  1.00  0.00    -0.271 OA
HETATM    8  H   UNL     1      43.493 -13.880   8.048  1.00  0.00     0.139 HD
BRANCH   6   9
HETATM    9  C   UNL     1      43.711 -15.452   6.285  1.00  0.00     0.138 A 
HETATM   10  O   UNL     1      43.816 -16.294   5.210  1.00  0.00    -0.305 OA
HETATM   11  C   UNL     1      43.715 -17.578   5.679  1.00  0.00     0.088 A 
HETATM   12  C   UNL     1      43.462 -17.547   7.036  1.00  0.00     0.041 A 
HETATM   13  C   UNL     1      43.484 -16.189   7.428  1.00  0.00     0.045 A 
BRANCH  11  14
HETATM   14  C   UNL     1      43.900 -18.637   4.686  1.00  0.00     0.020 A 
HETATM   15  C   UNL     1      44.112 -19.989   5.026  1.00  0.00     0.048 A 
HETATM   16 CL   UNL     1      44.242 -20.541   6.663  1.00  0.00    -0.083 Cl
HETATM   17  C   UNL     1      44.274 -20.964   4.033  1.00  0.00     0.048 A 
HETATM   18  C   UNL     1      44.236 -20.600   2.691  1.00  0.00     0.035 A 
HETATM   19 CL   UNL     1      44.442 -21.798   1.476  1.00  0.00    -0.084 Cl
HETATM   20  C   UNL     1      44.040 -19.273   2.329  1.00  0.00     0.025 A 
HETATM   21  C   UNL     1      43.874 -18.299   3.321  1.00  0.00     0.017 A 
ENDBRANCH  11  14
ENDBRANCH   6   9
ENDBRANCH   2   5
BRANCH   1  22
HETATM   22  C   UNL     1      40.891 -13.044   5.649  1.00  0.00     0.034 A 
HETATM   23  C   UNL     1      40.894 -12.424   4.404  1.00  0.00     0.032 A 
HETATM   24  C   UNL     1      40.394 -13.091   3.273  1.00  0.00     0.031 A 
HETATM   25  C   UNL     1      39.886 -14.393   3.354  1.00  0.00     0.030 A 
HETATM   26  C   UNL     1      39.827 -14.969   4.633  1.00  0.00     0.031 A 
HETATM   27  C   UNL     1      40.308 -14.304   5.765  1.00  0.00     0.032 A 
BRANCH  25  28
HETATM   28  N   UNL     1      39.425 -15.120   2.256  1.00  0.00    -0.378 N 
HETATM   29  C   UNL     1      40.289 -16.232   1.809  1.00  0.00     0.150 C 
HETATM   30  C   UNL     1      41.201 -15.791   0.643  1.00  0.00     0.254 C 
HETATM   31  N   UNL     1      40.351 -15.232  -0.507  1.00  0.00    -0.068 N 
HETATM   32  H   UNL     1      39.682 -15.967  -0.774  1.00  0.00     0.280 HD
HETATM   33  C   UNL     1      39.518 -14.046  -0.000  1.00  0.00     0.254 C 
HETATM   34  C   UNL     1      38.640 -14.469   1.196  1.00  0.00     0.150 C 
BRANCH  31  35
HETATM   35  C   UNL     1      41.151 -14.859  -1.730  1.00  0.00     0.230 C 
HETATM   36  C   UNL     1      40.715 -15.677  -2.932  1.00  0.00     0.034 C 
ENDBRANCH  31  35
ENDBRANCH  25  28
ENDBRANCH   1  22
TORSDOF 6
ENDMDL
MODEL 5
REMARK VINA RESULT:      -7.7      3.543      6.008
REMARK  6 active torsions:
REMARK  status: ('A' for Active; 'I' for Inactive)
REMARK    1  A    between atoms: C_2  and  N_3 
REMARK    2  A    between atoms: N_7  and  C_8 
REMARK    3  A    between atoms: C_11  and  N_12 
REMARK    4  A    between atoms: C_13  and  N_14 
REMARK       I    between atoms: N_14  and  C_15 
REMARK    5  A    between atoms: C_15  and  C_16 
REMARK    6  A    between atoms: C_18  and  C_19 
ROOT
HETATM    1  N   UNL     1      39.377 -13.195   4.075  1.00  0.00    -0.338 N 
HETATM    2  C   UNL     1      40.057 -13.410   5.218  1.00  0.00     0.157 C 
HETATM    3  S   UNL     1      39.658 -12.488   6.560  1.00  0.00    -0.047 SA
HETATM    4  H   UNL     1      38.512 -12.682   4.223  1.00  0.00     0.168 HD
ENDROOT
BRANCH   2   5
HETATM    5  N   UNL     1      40.970 -14.402   5.392  1.00  0.00    -0.199 NA
HETATM    6  C   UNL     1      42.352 -14.274   5.271  1.00  0.00     0.261 C 
HETATM    7  O   UNL     1      43.066 -13.626   6.028  1.00  0.00    -0.271 OA
HETATM    8  H   UNL     1      40.633 -15.214   4.883  1.00  0.00     0.139 HD
BRANCH   6   9
HETATM    9  C   UNL     1      42.916 -15.130   4.243  1.00  0.00     0.138 A 
HETATM   10  O   UNL     1      43.231 -16.429   4.543  1.00  0.00    -0.305 OA
HETATM   11  C   UNL     1      43.654 -17.030   3.386  1.00  0.00     0.088 A 
HETATM   12  C   UNL     1      43.687 -16.092   2.373  1.00  0.00     0.041 A 
HETATM   13  C   UNL     1      43.193 -14.884   2.914  1.00  0.00     0.045 A 
BRANCH  11  14
HETATM   14  C   UNL     1      43.949 -18.460   3.480  1.00  0.00     0.020 A 
HETATM   15  C   UNL     1      44.511 -19.063   4.624  1.00  0.00     0.048 A 
HETATM   16 CL   UNL     1      44.977 -18.164   6.030  1.00  0.00    -0.083 Cl
HETATM   17  C   UNL     1      44.764 -20.440   4.661  1.00  0.00     0.048 A 
HETATM   18  C   UNL     1      44.468 -21.230   3.556  1.00  0.00     0.035 A 
HETATM   19 CL   UNL     1      44.786 -22.919   3.604  1.00  0.00    -0.084 Cl
HETATM   20  C   UNL     1      43.925 -20.659   2.411  1.00  0.00     0.025 A 
HETATM   21  C   UNL     1      43.668 -19.284   2.374  1.00  0.00     0.017 A 
ENDBRANCH  11  14
ENDBRANCH   6   9
ENDBRANCH   2   5
BRANCH   1  22
HETATM   22  C   UNL     1      39.748 -13.325   2.727  1.00  0.00     0.034 A 
HETATM   23  C   UNL     1      40.486 -12.378   2.027  1.00  0.00     0.032 A 
HETATM   24  C   UNL     1      40.811 -12.583   0.675  1.00  0.00     0.031 A 
HETATM   25  C   UNL     1      40.414 -13.738  -0.009  1.00  0.00     0.030 A 
HETATM   26  C   UNL     1      39.608 -14.644   0.700  1.00  0.00     0.031 A 
HETATM   27  C   UNL     1      39.268 -14.439   2.040  1.00  0.00     0.032 A 
BRANCH  25  28
HETATM   28  N   UNL     1      40.751 -14.015  -1.333  1.00  0.00    -0.378 N 
HETATM   29  C   UNL     1      42.062 -13.504  -1.786  1.00  0.00     0.150 C 
HETATM   30  C   UNL     1      41.907 -12.152  -2.515  1.00  0.00     0.254 C 
HETATM   31  N   UNL     1      40.918 -12.293  -3.680  1.00  0.00    -0.068 N 
HETATM   32  H   UNL     1      41.273 -13.041  -4.290  1.00  0.00     0.280 HD
HETATM   33  C   UNL     1      39.561 -12.771  -3.146  1.00  0.00     0.254 C 
HETATM   34  C   UNL     1      39.716 -14.098  -2.374  1.00  0.00     0.150 C 
BRANCH  31  35
HETATM   35  C   UNL     1      40.772 -11.042  -4.510  1.00  0.00     0.230 C 
HETATM   36  C   UNL     1      42.129 -10.436  -4.819  1.00  0.00     0.034 C 
ENDBRANCH  31  35
ENDBRANCH  25  28
ENDBRANCH   1  22
TORSDOF 6
ENDMDL
MODEL 6
REMARK VINA RESULT:      -7.6      3.644      6.577
REMARK  6 active torsions:
REMARK  status: ('A' for Active; 'I' for Inactive)
REMARK    1  A    between atoms: C_2  and  N_3 
REMARK    2  A    between atoms: N_7  and  C_8 
REMARK    3  A    between atoms: C_11  and  N_12 
REMARK    4  A    between atoms: C_13  and  N_14 
REMARK       I    between atoms: N_14  and  C_15 
REMARK    5  A    between atoms: C_15  and  C_16 
REMARK    6  A    between atoms: C_18  and  C_19 
ROOT
HETATM    1  N   UNL     1      38.906 -12.565   3.068  1.00  0.00    -0.338 N 
HETATM    2  C   UNL     1      39.672 -13.031   4.073  1.00  0.00     0.157 C 
HETATM    3  S   UNL     1      40.004 -12.004   5.355  1.00  0.00    -0.047 SA
HETATM    4  H   UNL     1      38.389 -11.728   3.324  1.00  0.00     0.168 HD
ENDROOT
BRANCH   2   5
HETATM    5  N   UNL     1      40.104 -14.316   4.174  1.00  0.00    -0.199 NA
HETATM    6  C   UNL     1      41.242 -14.747   4.852  1.00  0.00     0.261 C 
HETATM    7  O   UNL     1      41.391 -14.711   6.068  1.00  0.00    -0.271 OA
HETATM    8  H   UNL     1      40.057 -14.725   3.245  1.00  0.00     0.139 HD
BRANCH   6   9
HETATM    9  C   UNL     1      42.200 -15.415   3.990  1.00  0.00     0.138 A 
HETATM   10  O   UNL     1      42.526 -16.724   4.229  1.00  0.00    -0.305 OA
HETATM   11  C   UNL     1      43.370 -17.130   3.228  1.00  0.00     0.088 A 
HETATM   12  C   UNL     1      43.645 -16.057   2.404  1.00  0.00     0.041 A 
HETATM   13  C   UNL     1      42.879 -14.967   2.876  1.00  0.00     0.045 A 
BRANCH  11  14
HETATM   14  C   UNL     1      43.759 -18.540   3.252  1.00  0.00     0.020 A 
HETATM   15  C   UNL     1      44.389 -19.152   4.355  1.00  0.00     0.048 A 
HETATM   16 CL   UNL     1      44.834 -18.284   5.787  1.00  0.00    -0.083 Cl
HETATM   17  C   UNL     1      44.731 -20.510   4.327  1.00  0.00     0.048 A 
HETATM   18  C   UNL     1      44.458 -21.271   3.196  1.00  0.00     0.035 A 
HETATM   19 CL   UNL     1      44.885 -22.936   3.162  1.00  0.00    -0.084 Cl
HETATM   20  C   UNL     1      43.848 -20.690   2.090  1.00  0.00     0.025 A 
HETATM   21  C   UNL     1      43.502 -19.334   2.119  1.00  0.00     0.017 A 
ENDBRANCH  11  14
ENDBRANCH   6   9
ENDBRANCH   2   5
BRANCH   1  22
HETATM   22  C   UNL     1      38.877 -12.865   1.696  1.00  0.00     0.034 A 
HETATM   23  C   UNL     1      37.860 -13.584   1.077  1.00  0.00     0.032 A 
HETATM   24  C   UNL     1      37.910 -13.847  -0.302  1.00  0.00     0.031 A 
HETATM   25  C   UNL     1      38.970 -13.395  -1.098  1.00  0.00     0.030 A 
HETATM   26  C   UNL     1      40.018 -12.735  -0.437  1.00  0.00     0.031 A 
HETATM   27  C   UNL     1      39.982 -12.484   0.938  1.00  0.00     0.032 A 
BRANCH  25  28
HETATM   28  N   UNL     1      39.044 -13.584  -2.478  1.00  0.00    -0.378 N 
HETATM   29  C   UNL     1      38.627 -12.436  -3.310  1.00  0.00     0.150 C 
HETATM   30  C   UNL     1      37.157 -12.584  -3.760  1.00  0.00     0.254 C 
HETATM   31  N   UNL     1      36.962 -13.918  -4.492  1.00  0.00    -0.068 N 
HETATM   32  H   UNL     1      37.627 -13.933  -5.277  1.00  0.00     0.280 HD
HETATM   33  C   UNL     1      37.357 -15.076  -3.564  1.00  0.00     0.254 C 
HETATM   34  C   UNL     1      38.809 -14.908  -3.072  1.00  0.00     0.150 C 
BRANCH  31  35
HETATM   35  C   UNL     1      35.575 -14.110  -5.050  1.00  0.00     0.230 C 
HETATM   36  C   UNL     1      34.731 -12.866  -4.842  1.00  0.00     0.034 C 
ENDBRANCH  31  35
ENDBRANCH  25  28
ENDBRANCH   1  22
TORSDOF 6
ENDMDL
MODEL 7
REMARK VINA RESULT:      -7.5      3.003      5.644
REMARK  6 active torsions:
REMARK  status: ('A' for Active; 'I' for Inactive)
REMARK    1  A    between atoms: C_2  and  N_3 
REMARK    2  A    between atoms: N_7  and  C_8 
REMARK    3  A    between atoms: C_11  and  N_12 
REMARK    4  A    between atoms: C_13  and  N_14 
REMARK       I    between atoms: N_14  and  C_15 
REMARK    5  A    between atoms: C_15  and  C_16 
REMARK    6  A    between atoms: C_18  and  C_19 
ROOT
HETATM    1  N   UNL     1      43.019 -18.124   5.610  1.00  0.00    -0.338 N 
HETATM    2  C   UNL     1      43.446 -18.858   4.564  1.00  0.00     0.157 C 
HETATM    3  S   UNL     1      44.669 -19.973   4.830  1.00  0.00    -0.047 SA
HETATM    4  H   UNL     1      43.299 -18.515   6.505  1.00  0.00     0.168 HD
ENDROOT
BRANCH   2   5
HETATM    5  N   UNL     1      42.878 -18.837   3.329  1.00  0.00    -0.199 NA
HETATM    6  C   UNL     1      43.276 -18.043   2.257  1.00  0.00     0.261 C 
HETATM    7  O   UNL     1      44.337 -18.160   1.652  1.00  0.00    -0.271 OA
HETATM    8  H   UNL     1      41.871 -18.793   3.461  1.00  0.00     0.139 HD
BRANCH   6   9
HETATM    9  C   UNL     1      42.233 -17.147   1.792  1.00  0.00     0.138 A 
HETATM   10  O   UNL     1      42.498 -16.273   0.771  1.00  0.00    -0.305 OA
HETATM   11  C   UNL     1      41.331 -15.619   0.473  1.00  0.00     0.088 A 
HETATM   12  C   UNL     1      40.350 -16.015   1.359  1.00  0.00     0.041 A 
HETATM   13  C   UNL     1      40.919 -17.010   2.187  1.00  0.00     0.045 A 
BRANCH  11  14
HETATM   14  C   UNL     1      41.386 -14.702  -0.667  1.00  0.00     0.020 A 
HETATM   15  C   UNL     1      41.781 -13.353  -0.558  1.00  0.00     0.048 A 
HETATM   16 CL   UNL     1      42.187 -12.608   0.952  1.00  0.00    -0.083 Cl
HETATM   17  C   UNL     1      41.822 -12.523  -1.686  1.00  0.00     0.048 A 
HETATM   18  C   UNL     1      41.462 -13.025  -2.931  1.00  0.00     0.035 A 
HETATM   19 CL   UNL     1      41.509 -12.001  -4.311  1.00  0.00    -0.084 Cl
HETATM   20  C   UNL     1      41.057 -14.348  -3.063  1.00  0.00     0.025 A 
HETATM   21  C   UNL     1      41.019 -15.180  -1.939  1.00  0.00     0.017 A 
ENDBRANCH  11  14
ENDBRANCH   6   9
ENDBRANCH   2   5
BRANCH   1  22
HETATM   22  C   UNL     1      42.487 -16.826   5.687  1.00  0.00     0.034 A 
HETATM   23  C   UNL     1      41.135 -16.547   5.857  1.00  0.00     0.032 A 
HETATM   24  C   UNL     1      40.684 -15.218   5.919  1.00  0.00     0.031 A 
HETATM   25  C   UNL     1      41.567 -14.137   5.818  1.00  0.00     0.030 A 
HETATM   26  C   UNL     1      42.915 -14.445   5.573  1.00  0.00     0.031 A 
HETATM   27  C   UNL     1      43.369 -15.765   5.495  1.00  0.00     0.032 A 
BRANCH  25  28
HETATM   28  N   UNL     1      41.180 -12.801   5.923  1.00  0.00    -0.378 N 
HETATM   29  C   UNL     1      39.800 -12.564   6.397  1.00  0.00     0.150 C 
HETATM   30  C   UNL     1      38.836 -12.347   5.210  1.00  0.00     0.254 C 
HETATM   31  N   UNL     1      39.340 -11.197   4.327  1.00  0.00    -0.068 N 
HETATM   32  H   UNL     1      39.430 -10.369   4.930  1.00  0.00     0.280 HD
HETATM   33  C   UNL     1      40.751 -11.521   3.818  1.00  0.00     0.254 C 
HETATM   34  C   UNL     1      41.709 -11.787   4.998  1.00  0.00     0.150 C 
BRANCH  31  35
HETATM   35  C   UNL     1      38.412 -10.851   3.190  1.00  0.00     0.230 C 
HETATM   36  C   UNL     1      38.346 -11.983   2.182  1.00  0.00     0.034 C 
ENDBRANCH  31  35
ENDBRANCH  25  28
ENDBRANCH   1  22
TORSDOF 6
ENDMDL
MODEL 8
REMARK VINA RESULT:      -7.4      3.303      6.575
REMARK  6 active torsions:
REMARK  status: ('A' for Active; 'I' for Inactive)
REMARK    1  A    between atoms: C_2  and  N_3 
REMARK    2  A    between atoms: N_7  and  C_8 
REMARK    3  A    between atoms: C_11  and  N_12 
REMARK    4  A    between atoms: C_13  and  N_14 
REMARK       I    between atoms: N_14  and  C_15 
REMARK    5  A    between atoms: C_15  and  C_16 
REMARK    6  A    between atoms: C_18  and  C_19 
ROOT
HETATM    1  N   UNL     1      42.857 -17.965   5.606  1.00  0.00    -0.338 N 
HETATM    2  C   UNL     1      43.401 -18.680   4.603  1.00  0.00     0.157 C 
HETATM    3  S   UNL     1      44.693 -19.686   4.961  1.00  0.00    -0.047 SA
HETATM    4  H   UNL     1      43.116 -18.316   6.524  1.00  0.00     0.168 HD
ENDROOT
BRANCH   2   5
HETATM    5  N   UNL     1      42.904 -18.728   3.338  1.00  0.00    -0.199 NA
HETATM    6  C   UNL     1      43.315 -17.939   2.266  1.00  0.00     0.261 C 
HETATM    7  O   UNL     1      44.413 -18.005   1.726  1.00  0.00    -0.271 OA
HETATM    8  H   UNL     1      41.891 -18.744   3.413  1.00  0.00     0.139 HD
BRANCH   6   9
HETATM    9  C   UNL     1      42.247 -17.123   1.717  1.00  0.00     0.138 A 
HETATM   10  O   UNL     1      42.537 -16.185   0.761  1.00  0.00    -0.305 OA
HETATM   11  C   UNL     1      41.352 -15.628   0.356  1.00  0.00     0.088 A 
HETATM   12  C   UNL     1      40.322 -16.151   1.113  1.00  0.00     0.041 A 
HETATM   13  C   UNL     1      40.891 -17.124   1.966  1.00  0.00     0.045 A 
BRANCH  11  14
HETATM   14  C   UNL     1      41.441 -14.663  -0.740  1.00  0.00     0.020 A 
HETATM   15  C   UNL     1      41.792 -13.310  -0.554  1.00  0.00     0.048 A 
HETATM   16 CL   UNL     1      42.095 -12.620   1.006  1.00  0.00    -0.083 Cl
HETATM   17  C   UNL     1      41.870 -12.431  -1.642  1.00  0.00     0.048 A 
HETATM   18  C   UNL     1      41.592 -12.888  -2.925  1.00  0.00     0.035 A 
HETATM   19 CL   UNL     1      41.684 -11.805  -4.257  1.00  0.00    -0.084 Cl
HETATM   20  C   UNL     1      41.232 -14.214  -3.134  1.00  0.00     0.025 A 
HETATM   21  C   UNL     1      41.157 -15.094  -2.049  1.00  0.00     0.017 A 
ENDBRANCH  11  14
ENDBRANCH   6   9
ENDBRANCH   2   5
BRANCH   1  22
HETATM   22  C   UNL     1      42.217 -16.715   5.625  1.00  0.00     0.034 A 
HETATM   23  C   UNL     1      40.883 -16.526   5.969  1.00  0.00     0.032 A 
HETATM   24  C   UNL     1      40.318 -15.240   5.956  1.00  0.00     0.031 A 
HETATM   25  C   UNL     1      41.069 -14.111   5.607  1.00  0.00     0.030 A 
HETATM   26  C   UNL     1      42.392 -14.337   5.194  1.00  0.00     0.031 A 
HETATM   27  C   UNL     1      42.956 -15.616   5.189  1.00  0.00     0.032 A 
BRANCH  25  28
HETATM   28  N   UNL     1      40.573 -12.808   5.626  1.00  0.00    -0.378 N 
HETATM   29  C   UNL     1      41.584 -11.733   5.703  1.00  0.00     0.150 C 
HETATM   30  C   UNL     1      41.785 -11.264   7.161  1.00  0.00     0.254 C 
HETATM   31  N   UNL     1      40.442 -10.827   7.762  1.00  0.00    -0.068 N 
HETATM   32  H   UNL     1      40.062 -10.092   7.152  1.00  0.00     0.280 HD
HETATM   33  C   UNL     1      39.450 -11.997   7.708  1.00  0.00     0.254 C 
HETATM   34  C   UNL     1      39.282 -12.502   6.260  1.00  0.00     0.150 C 
BRANCH  31  35
HETATM   35  C   UNL     1      40.554 -10.266   9.158  1.00  0.00     0.230 C 
HETATM   36  C   UNL     1      41.998  -9.946   9.498  1.00  0.00     0.034 C 
ENDBRANCH  31  35
ENDBRANCH  25  28
ENDBRANCH   1  22
TORSDOF 6
ENDMDL
MODEL 9
REMARK VINA RESULT:      -7.3      3.937      7.220
REMARK  6 active torsions:
REMARK  status: ('A' for Active; 'I' for Inactive)
REMARK    1  A    between atoms: C_2  and  N_3 
REMARK    2  A    between atoms: N_7  and  C_8 
REMARK    3  A    between atoms: C_11  and  N_12 
REMARK    4  A    between atoms: C_13  and  N_14 
REMARK       I    between atoms: N_14  and  C_15 
REMARK    5  A    between atoms: C_15  and  C_16 
REMARK    6  A    between atoms: C_18  and  C_19 
ROOT
HETATM    1  N   UNL     1      42.189 -11.778  -0.329  1.00  0.00    -0.338 N 
HETATM    2  C   UNL     1      42.229 -12.699  -1.311  1.00  0.00     0.157 C 
HETATM    3  S   UNL     1      42.475 -12.167  -2.882  1.00  0.00    -0.047 SA
HETATM    4  H   UNL     1      42.580 -10.884  -0.612  1.00  0.00     0.168 HD
ENDROOT
BRANCH   2   5
HETATM    5  N   UNL     1      42.195 -14.042  -1.105  1.00  0.00    -0.199 NA
HETATM    6  C   UNL     1      41.051 -14.832  -1.036  1.00  0.00     0.261 C 
HETATM    7  O   UNL     1      40.299 -15.063  -1.977  1.00  0.00    -0.271 OA
HETATM    8  H   UNL     1      42.825 -14.245  -0.334  1.00  0.00     0.139 HD
BRANCH   6   9
HETATM    9  C   UNL     1      40.905 -15.516   0.236  1.00  0.00     0.138 A 
HETATM   10  O   UNL     1      41.852 -16.426   0.626  1.00  0.00    -0.305 OA
HETATM   11  C   UNL     1      41.524 -16.849   1.887  1.00  0.00     0.088 A 
HETATM   12  C   UNL     1      40.327 -16.272   2.263  1.00  0.00     0.041 A 
HETATM   13  C   UNL     1      39.944 -15.402   1.218  1.00  0.00     0.045 A 
BRANCH  11  14
HETATM   14  C   UNL     1      42.475 -17.762   2.523  1.00  0.00     0.020 A 
HETATM   15  C   UNL     1      43.145 -17.468   3.728  1.00  0.00     0.048 A 
HETATM   16 CL   UNL     1      42.965 -15.961   4.563  1.00  0.00    -0.083 Cl
HETATM   17  C   UNL     1      44.040 -18.384   4.296  1.00  0.00     0.048 A 
HETATM   18  C   UNL     1      44.284 -19.598   3.665  1.00  0.00     0.035 A 
HETATM   19 CL   UNL     1      45.387 -20.717   4.362  1.00  0.00    -0.084 Cl
HETATM   20  C   UNL     1      43.646 -19.908   2.469  1.00  0.00     0.025 A 
HETATM   21  C   UNL     1      42.749 -18.995   1.903  1.00  0.00     0.017 A 
ENDBRANCH  11  14
ENDBRANCH   6   9
ENDBRANCH   2   5
BRANCH   1  22
HETATM   22  C   UNL     1      41.504 -11.747   0.897  1.00  0.00     0.034 A 
HETATM   23  C   UNL     1      41.916 -12.430   2.037  1.00  0.00     0.032 A 
HETATM   24  C   UNL     1      41.169 -12.350   3.225  1.00  0.00     0.031 A 
HETATM   25  C   UNL     1      39.999 -11.586   3.307  1.00  0.00     0.030 A 
HETATM   26  C   UNL     1      39.566 -10.966   2.123  1.00  0.00     0.031 A 
HETATM   27  C   UNL     1      40.297 -11.054   0.934  1.00  0.00     0.032 A 
BRANCH  25  28
HETATM   28  N   UNL     1      39.248 -11.432   4.472  1.00  0.00    -0.378 N 
HETATM   29  C   UNL     1      38.767 -10.063   4.754  1.00  0.00     0.150 C 
HETATM   30  C   UNL     1      39.714  -9.334   5.731  1.00  0.00     0.254 C 
HETATM   31  N   UNL     1      39.879 -10.156   7.017  1.00  0.00    -0.068 N 
HETATM   32  H   UNL     1      38.938 -10.305   7.404  1.00  0.00     0.280 HD
HETATM   33  C   UNL     1      40.433 -11.545   6.670  1.00  0.00     0.254 C 
HETATM   34  C   UNL     1      39.516 -12.260   5.657  1.00  0.00     0.150 C 
BRANCH  31  35
HETATM   35  C   UNL     1      40.717  -9.477   8.070  1.00  0.00     0.230 C 
HETATM   36  C   UNL     1      41.936 -10.313   8.414  1.00  0.00     0.034 C 
ENDBRANCH  31  35
ENDBRANCH  25  28
ENDBRANCH   1  22
TORSDOF 6
ENDMDL
MODEL 10
REMARK VINA RESULT:      -7.2      3.484      6.094
REMARK  6 active torsions:
REMARK  status: ('A' for Active; 'I' for Inactive)
REMARK    1  A    between atoms: C_2  and  N_3 
REMARK    2  A    between atoms: N_7  and  C_8 
REMARK    3  A    between atoms: C_11  and  N_12 
REMARK    4  A    between atoms: C_13  and  N_14 
REMARK       I    between atoms: N_14  and  C_15 
REMARK    5  A    between atoms: C_15  and  C_16 
REMARK    6  A    between atoms: C_18  and  C_19 
ROOT
HETATM    1  N   UNL     1      42.586 -17.407   5.496  1.00  0.00    -0.338 N 
HETATM    2  C   UNL     1      43.016 -18.179   4.479  1.00  0.00     0.157 C 
HETATM    3  S   UNL     1      44.227 -19.296   4.793  1.00  0.00    -0.047 SA
HETATM    4  H   UNL     1      42.855 -17.770   6.406  1.00  0.00     0.168 HD
ENDROOT
BRANCH   2   5
HETATM    5  N   UNL     1      42.459 -18.195   3.239  1.00  0.00    -0.199 NA
HETATM    6  C   UNL     1      42.955 -17.548   2.110  1.00  0.00     0.261 C 
HETATM    7  O   UNL     1      43.996 -17.842   1.532  1.00  0.00    -0.271 OA
HETATM    8  H   UNL     1      41.465 -18.019   3.353  1.00  0.00     0.139 HD
BRANCH   6   9
HETATM    9  C   UNL     1      42.030 -16.576   1.557  1.00  0.00     0.138 A 
HETATM   10  O   UNL     1      42.445 -15.742   0.553  1.00  0.00    -0.305 OA
HETATM   11  C   UNL     1      41.364 -14.998   0.159  1.00  0.00     0.088 A 
HETATM   12  C   UNL     1      40.287 -15.298   0.969  1.00  0.00     0.041 A 
HETATM   13  C   UNL     1      40.705 -16.324   1.847  1.00  0.00     0.045 A 
BRANCH  11  14
HETATM   14  C   UNL     1      41.582 -14.106  -0.981  1.00  0.00     0.020 A 
HETATM   15  C   UNL     1      41.269 -14.456  -2.310  1.00  0.00     0.048 A 
HETATM   16 CL   UNL     1      40.647 -16.011  -2.754  1.00  0.00    -0.083 Cl
HETATM   17  C   UNL     1      41.492 -13.559  -3.362  1.00  0.00     0.048 A 
HETATM   18  C   UNL     1      42.038 -12.306  -3.102  1.00  0.00     0.035 A 
HETATM   19 CL   UNL     1      42.315 -11.210  -4.397  1.00  0.00    -0.084 Cl
HETATM   20  C   UNL     1      42.366 -11.941  -1.802  1.00  0.00     0.025 A 
HETATM   21  C   UNL     1      42.141 -12.835  -0.750  1.00  0.00     0.017 A 
ENDBRANCH  11  14
ENDBRANCH   6   9
ENDBRANCH   2   5
BRANCH   1  22
HETATM   22  C   UNL     1      42.065 -16.103   5.525  1.00  0.00     0.034 A 
HETATM   23  C   UNL     1      40.753 -15.796   5.870  1.00  0.00     0.032 A 
HETATM   24  C   UNL     1      40.309 -14.463   5.868  1.00  0.00     0.031 A 
HETATM   25  C   UNL     1      41.161 -13.405   5.528  1.00  0.00     0.030 A 
HETATM   26  C   UNL     1      42.458 -13.748   5.114  1.00  0.00     0.031 A 
HETATM   27  C   UNL     1      42.902 -15.074   5.099  1.00  0.00     0.032 A 
BRANCH  25  28
HETATM   28  N   UNL     1      40.787 -12.062   5.559  1.00  0.00    -0.378 N 
HETATM   29  C   UNL     1      39.342 -11.798   5.724  1.00  0.00     0.150 C 
HETATM   30  C   UNL     1      38.664 -11.554   4.358  1.00  0.00     0.254 C 
HETATM   31  N   UNL     1      39.370 -10.411   3.617  1.00  0.00    -0.068 N 
HETATM   32  H   UNL     1      39.344  -9.588   4.232  1.00  0.00     0.280 HD
HETATM   33  C   UNL     1      40.852 -10.763   3.423  1.00  0.00     0.254 C 
HETATM   34  C   UNL     1      41.524 -11.055   4.781  1.00  0.00     0.150 C 
BRANCH  31  35
HETATM   35  C   UNL     1      38.719 -10.040   2.308  1.00  0.00     0.230 C 
HETATM   36  C   UNL     1      37.614 -11.019   1.957  1.00  0.00     0.034 C 
ENDBRANCH  31  35
ENDBRANCH  25  28
ENDBRANCH   1  22
TORSDOF 6
ENDMDL
