MODEL 1
REMARK VINA RESULT:      -8.5      0.000      0.000
REMARK  8 active torsions:
REMARK  status: ('A' for Active; 'I' for Inactive)
REMARK    1  A    between atoms: C_2  and  C_3 
REMARK    2  A    between atoms: C_3  and  N_4 
REMARK    3  A    between atoms: N_9  and  C_11 
REMARK    4  A    between atoms: C_11  and  C_12 
REMARK    5  A    between atoms: C_14  and  C_15 
REMARK    6  A    between atoms: C_15  and  C_16 
REMARK    7  A    between atoms: C_16  and  C_17 
REMARK    8  A    between atoms: C_17  and  O_18 
ROOT
HETATM    1  N   UNL     1      42.676 -17.427   4.049  1.00  0.00    -0.066 N 
HETATM    2  H   UNL     1      43.203 -18.008   4.713  1.00  0.00     0.280 HD
HETATM    3  C   UNL     1      43.163 -15.996   4.135  1.00  0.00     0.246 C 
HETATM    4  C   UNL     1      42.998 -15.452   5.566  1.00  0.00     0.009 C 
HETATM    5  C   UNL     1      43.468 -13.987   5.637  1.00  0.00     0.246 C 
HETATM    6  N   UNL     1      43.826 -13.772   7.090  1.00  0.00    -0.066 N 
HETATM    7  H   UNL     1      43.005 -13.361   7.565  1.00  0.00     0.280 HD
HETATM    8  C   UNL     1      44.095 -15.116   7.719  1.00  0.00     0.236 C 
HETATM    9  C   UNL     1      43.967 -16.108   6.567  1.00  0.00     0.040 C 
HETATM   10  C   UNL     1      41.521 -15.597   5.995  1.00  0.00     0.014 C 
HETATM   11  C   UNL     1      40.987 -17.020   5.810  1.00  0.00     0.029 C 
HETATM   12  C   UNL     1      41.210 -17.552   4.399  1.00  0.00     0.235 C 
ENDROOT
BRANCH   1  13
HETATM   13  C   UNL     1      42.960 -18.068   2.687  1.00  0.00     0.273 C 
BRANCH  13  14
HETATM   14  C   UNL     1      43.557 -19.445   2.815  1.00  0.00    -0.032 A 
HETATM   15  C   UNL     1      43.357 -20.411   1.812  1.00  0.00     0.012 A 
HETATM   16  C   UNL     1      43.851 -21.707   1.972  1.00  0.00     0.043 A 
HETATM   17  C   UNL     1      44.554 -22.038   3.125  1.00  0.00     0.116 A 
HETATM   18  C   UNL     1      44.784 -21.094   4.116  1.00  0.00     0.043 A 
HETATM   19  F   UNL     1      45.009 -23.286   3.282  1.00  0.00    -0.206 F 
HETATM   20  C   UNL     1      44.290 -19.797   3.963  1.00  0.00     0.012 A 
ENDBRANCH  13  14
ENDBRANCH   1  13
BRANCH   6  21
HETATM   21  C   UNL     1      44.927 -12.754   7.326  1.00  0.00     0.280 C 
BRANCH  21  22
HETATM   22  C   UNL     1      44.914 -12.223   8.719  1.00  0.00     0.009 A 
HETATM   23  S   UNL     1      43.595 -11.259   9.245  1.00  0.00    -0.084 SA
HETATM   24  C   UNL     1      44.267 -11.062  10.800  1.00  0.00     0.058 A 
HETATM   25  C   UNL     1      45.471 -11.719  10.925  1.00  0.00     0.029 A 
HETATM   26  C   UNL     1      45.845 -12.394   9.723  1.00  0.00     0.018 A 
BRANCH  24  27
HETATM   27  C   UNL     1      43.637 -10.301  11.827  1.00  0.00    -0.057 C 
BRANCH  27  28
HETATM   28  C   UNL     1      43.114  -9.637  12.681  1.00  0.00    -0.075 C 
BRANCH  28  29
HETATM   29  C   UNL     1      42.458  -8.811  13.692  1.00  0.00     0.258 C 
BRANCH  29  30
HETATM   30  O   UNL     1      43.236  -8.818  14.879  1.00  0.00    -0.389 OA
HETATM   31  H   UNL     1      43.146  -7.937  15.279  1.00  0.00     0.210 HD
ENDBRANCH  29  30
ENDBRANCH  28  29
ENDBRANCH  27  28
ENDBRANCH  24  27
ENDBRANCH  21  22
ENDBRANCH   6  21
TORSDOF 8
ENDMDL
MODEL 2
REMARK VINA RESULT:      -7.9      5.567      8.067
REMARK  8 active torsions:
REMARK  status: ('A' for Active; 'I' for Inactive)
REMARK    1  A    between atoms: C_2  and  C_3 
REMARK    2  A    between atoms: C_3  and  N_4 
REMARK    3  A    between atoms: N_9  and  C_11 
REMARK    4  A    between atoms: C_11  and  C_12 
REMARK    5  A    between atoms: C_14  and  C_15 
REMARK    6  A    between atoms: C_15  and  C_16 
REMARK    7  A    between atoms: C_16  and  C_17 
REMARK    8  A    between atoms: C_17  and  O_18 
ROOT
HETATM    1  N   UNL     1      44.149 -18.510   5.949  1.00  0.00    -0.066 N 
HETATM    2  H   UNL     1      44.576 -18.217   5.061  1.00  0.00     0.280 HD
HETATM    3  C   UNL     1      42.708 -18.050   5.991  1.00  0.00     0.246 C 
HETATM    4  C   UNL     1      42.622 -16.520   5.839  1.00  0.00     0.009 C 
HETATM    5  C   UNL     1      41.154 -16.059   5.913  1.00  0.00     0.246 C 
HETATM    6  N   UNL     1      41.133 -14.735   5.182  1.00  0.00    -0.066 N 
HETATM    7  H   UNL     1      41.235 -13.982   5.881  1.00  0.00     0.280 HD
HETATM    8  C   UNL     1      42.331 -14.678   4.267  1.00  0.00     0.236 C 
HETATM    9  C   UNL     1      42.997 -16.041   4.425  1.00  0.00     0.040 C 
HETATM   10  C   UNL     1      43.483 -15.854   6.935  1.00  0.00     0.014 C 
HETATM   11  C   UNL     1      44.916 -16.392   6.970  1.00  0.00     0.029 C 
HETATM   12  C   UNL     1      44.971 -17.912   7.069  1.00  0.00     0.235 C 
ENDROOT
BRANCH   1  13
HETATM   13  C   UNL     1      44.284 -20.036   5.940  1.00  0.00     0.273 C 
BRANCH  13  14
HETATM   14  C   UNL     1      44.319 -20.601   4.543  1.00  0.00    -0.032 A 
HETATM   15  C   UNL     1      44.012 -19.793   3.434  1.00  0.00     0.012 A 
HETATM   16  C   UNL     1      43.974 -20.343   2.151  1.00  0.00     0.043 A 
HETATM   17  C   UNL     1      44.252 -21.692   1.971  1.00  0.00     0.116 A 
HETATM   18  C   UNL     1      44.581 -22.502   3.049  1.00  0.00     0.043 A 
HETATM   19  F   UNL     1      44.197 -22.218   0.743  1.00  0.00    -0.206 F 
HETATM   20  C   UNL     1      44.618 -21.959   4.336  1.00  0.00     0.012 A 
ENDBRANCH  13  14
ENDBRANCH   1  13
BRANCH   6  21
HETATM   21  C   UNL     1      39.820 -14.414   4.493  1.00  0.00     0.280 C 
BRANCH  21  22
HETATM   22  C   UNL     1      40.006 -14.088   3.050  1.00  0.00     0.009 A 
HETATM   23  S   UNL     1      40.091 -15.359   1.900  1.00  0.00    -0.084 SA
HETATM   24  C   UNL     1      40.295 -14.269   0.604  1.00  0.00     0.058 A 
HETATM   25  C   UNL     1      40.295 -12.960   1.032  1.00  0.00     0.029 A 
HETATM   26  C   UNL     1      40.125 -12.853   2.446  1.00  0.00     0.018 A 
BRANCH  24  27
HETATM   27  C   UNL     1      40.447 -14.690  -0.748  1.00  0.00    -0.057 C 
BRANCH  27  28
HETATM   28  C   UNL     1      40.602 -15.047  -1.885  1.00  0.00    -0.075 C 
BRANCH  28  29
HETATM   29  C   UNL     1      40.829 -15.485  -3.260  1.00  0.00     0.258 C 
BRANCH  29  30
HETATM   30  O   UNL     1      42.150 -15.144  -3.649  1.00  0.00    -0.389 OA
HETATM   31  H   UNL     1      42.694 -15.940  -3.525  1.00  0.00     0.210 HD
ENDBRANCH  29  30
ENDBRANCH  28  29
ENDBRANCH  27  28
ENDBRANCH  24  27
ENDBRANCH  21  22
ENDBRANCH   6  21
TORSDOF 8
ENDMDL
MODEL 3
REMARK VINA RESULT:      -7.6      7.170     10.166
REMARK  8 active torsions:
REMARK  status: ('A' for Active; 'I' for Inactive)
REMARK    1  A    between atoms: C_2  and  C_3 
REMARK    2  A    between atoms: C_3  and  N_4 
REMARK    3  A    between atoms: N_9  and  C_11 
REMARK    4  A    between atoms: C_11  and  C_12 
REMARK    5  A    between atoms: C_14  and  C_15 
REMARK    6  A    between atoms: C_15  and  C_16 
REMARK    7  A    between atoms: C_16  and  C_17 
REMARK    8  A    between atoms: C_17  and  O_18 
ROOT
HETATM    1  N   UNL     1      43.264 -17.289   4.530  1.00  0.00    -0.066 N 
HETATM    2  H   UNL     1      43.402 -16.336   4.890  1.00  0.00     0.280 HD
HETATM    3  C   UNL     1      43.202 -17.253   3.018  1.00  0.00     0.246 C 
HETATM    4  C   UNL     1      42.061 -16.336   2.543  1.00  0.00     0.009 C 
HETATM    5  C   UNL     1      41.988 -16.330   1.004  1.00  0.00     0.246 C 
HETATM    6  N   UNL     1      41.308 -15.023   0.661  1.00  0.00    -0.066 N 
HETATM    7  H   UNL     1      40.298 -15.208   0.546  1.00  0.00     0.280 HD
HETATM    8  C   UNL     1      41.472 -14.080   1.826  1.00  0.00     0.236 C 
HETATM    9  C   UNL     1      42.340 -14.847   2.818  1.00  0.00     0.040 C 
HETATM   10  C   UNL     1      40.733 -16.812   3.173  1.00  0.00     0.014 C 
HETATM   11  C   UNL     1      40.819 -16.955   4.696  1.00  0.00     0.029 C 
HETATM   12  C   UNL     1      41.988 -17.826   5.139  1.00  0.00     0.235 C 
ENDROOT
BRANCH   1  13
HETATM   13  C   UNL     1      44.477 -18.062   5.055  1.00  0.00     0.273 C 
BRANCH  13  14
HETATM   14  C   UNL     1      44.493 -19.494   4.584  1.00  0.00    -0.032 A 
HETATM   15  C   UNL     1      44.620 -20.551   5.503  1.00  0.00     0.012 A 
HETATM   16  C   UNL     1      44.709 -21.869   5.053  1.00  0.00     0.043 A 
HETATM   17  C   UNL     1      44.662 -22.136   3.690  1.00  0.00     0.116 A 
HETATM   18  C   UNL     1      44.513 -21.110   2.768  1.00  0.00     0.043 A 
HETATM   19  F   UNL     1      44.766 -23.399   3.263  1.00  0.00    -0.206 F 
HETATM   20  C   UNL     1      44.426 -19.789   3.211  1.00  0.00     0.012 A 
ENDBRANCH  13  14
ENDBRANCH   1  13
BRANCH   6  21
HETATM   21  C   UNL     1      41.720 -14.428  -0.673  1.00  0.00     0.280 C 
BRANCH  21  22
HETATM   22  C   UNL     1      40.738 -14.731  -1.753  1.00  0.00     0.009 A 
HETATM   23  S   UNL     1      39.261 -13.860  -1.822  1.00  0.00    -0.084 SA
HETATM   24  C   UNL     1      38.739 -14.716  -3.203  1.00  0.00     0.058 A 
HETATM   25  C   UNL     1      39.670 -15.645  -3.611  1.00  0.00     0.029 A 
HETATM   26  C   UNL     1      40.828 -15.654  -2.776  1.00  0.00     0.018 A 
BRANCH  24  27
HETATM   27  C   UNL     1      37.485 -14.477  -3.836  1.00  0.00    -0.057 C 
BRANCH  27  28
HETATM   28  C   UNL     1      36.423 -14.303  -4.370  1.00  0.00    -0.075 C 
BRANCH  28  29
HETATM   29  C   UNL     1      35.130 -14.056  -5.005  1.00  0.00     0.258 C 
BRANCH  29  30
HETATM   30  O   UNL     1      35.056 -14.791  -6.216  1.00  0.00    -0.389 OA
HETATM   31  H   UNL     1      35.770 -14.463  -6.789  1.00  0.00     0.210 HD
ENDBRANCH  29  30
ENDBRANCH  28  29
ENDBRANCH  27  28
ENDBRANCH  24  27
ENDBRANCH  21  22
ENDBRANCH   6  21
TORSDOF 8
ENDMDL
MODEL 4
REMARK VINA RESULT:      -7.5      5.636      8.280
REMARK  8 active torsions:
REMARK  status: ('A' for Active; 'I' for Inactive)
REMARK    1  A    between atoms: C_2  and  C_3 
REMARK    2  A    between atoms: C_3  and  N_4 
REMARK    3  A    between atoms: N_9  and  C_11 
REMARK    4  A    between atoms: C_11  and  C_12 
REMARK    5  A    between atoms: C_14  and  C_15 
REMARK    6  A    between atoms: C_15  and  C_16 
REMARK    7  A    between atoms: C_16  and  C_17 
REMARK    8  A    between atoms: C_17  and  O_18 
ROOT
HETATM    1  N   UNL     1      44.120 -18.059   5.666  1.00  0.00    -0.066 N 
HETATM    2  H   UNL     1      44.739 -17.765   4.900  1.00  0.00     0.280 HD
HETATM    3  C   UNL     1      42.681 -17.787   5.285  1.00  0.00     0.246 C 
HETATM    4  C   UNL     1      42.473 -16.293   4.978  1.00  0.00     0.009 C 
HETATM    5  C   UNL     1      40.999 -16.022   4.620  1.00  0.00     0.246 C 
HETATM    6  N   UNL     1      41.035 -14.757   3.793  1.00  0.00    -0.066 N 
HETATM    7  H   UNL     1      40.859 -13.957   4.423  1.00  0.00     0.280 HD
HETATM    8  C   UNL     1      42.423 -14.598   3.224  1.00  0.00     0.236 C 
HETATM    9  C   UNL     1      43.165 -15.852   3.675  1.00  0.00     0.040 C 
HETATM   10  C   UNL     1      42.925 -15.458   6.197  1.00  0.00     0.014 C 
HETATM   11  C   UNL     1      44.344 -15.804   6.658  1.00  0.00     0.029 C 
HETATM   12  C   UNL     1      44.535 -17.295   6.904  1.00  0.00     0.235 C 
ENDROOT
BRANCH   1  13
HETATM   13  C   UNL     1      44.418 -19.552   5.832  1.00  0.00     0.273 C 
BRANCH  13  14
HETATM   14  C   UNL     1      44.402 -20.290   4.517  1.00  0.00    -0.032 A 
HETATM   15  C   UNL     1      44.088 -19.620   3.321  1.00  0.00     0.012 A 
HETATM   16  C   UNL     1      44.003 -20.325   2.120  1.00  0.00     0.043 A 
HETATM   17  C   UNL     1      44.241 -21.694   2.106  1.00  0.00     0.116 A 
HETATM   18  C   UNL     1      44.577 -22.370   3.271  1.00  0.00     0.043 A 
HETATM   19  F   UNL     1      44.141 -22.369   0.956  1.00  0.00    -0.206 F 
HETATM   20  C   UNL     1      44.661 -21.671   4.477  1.00  0.00     0.012 A 
ENDBRANCH  13  14
ENDBRANCH   1  13
BRANCH   6  21
HETATM   21  C   UNL     1      39.932 -14.649   2.756  1.00  0.00     0.280 C 
BRANCH  21  22
HETATM   22  C   UNL     1      40.470 -14.420   1.384  1.00  0.00     0.009 A 
HETATM   23  S   UNL     1      40.660 -12.815   0.807  1.00  0.00    -0.084 SA
HETATM   24  C   UNL     1      41.265 -13.351  -0.695  1.00  0.00     0.058 A 
HETATM   25  C   UNL     1      41.329 -14.726  -0.761  1.00  0.00     0.029 A 
HETATM   26  C   UNL     1      40.873 -15.346   0.443  1.00  0.00     0.018 A 
BRANCH  24  27
HETATM   27  C   UNL     1      41.649 -12.462  -1.739  1.00  0.00    -0.057 C 
BRANCH  27  28
HETATM   28  C   UNL     1      41.999 -11.718  -2.616  1.00  0.00    -0.075 C 
BRANCH  28  29
HETATM   29  C   UNL     1      42.441 -10.844  -3.700  1.00  0.00     0.258 C 
BRANCH  29  30
HETATM   30  O   UNL     1      42.799 -11.635  -4.823  1.00  0.00    -0.389 OA
HETATM   31  H   UNL     1      42.224 -11.358  -5.557  1.00  0.00     0.210 HD
ENDBRANCH  29  30
ENDBRANCH  28  29
ENDBRANCH  27  28
ENDBRANCH  24  27
ENDBRANCH  21  22
ENDBRANCH   6  21
TORSDOF 8
ENDMDL
MODEL 5
REMARK VINA RESULT:      -7.3      3.502      4.127
REMARK  8 active torsions:
REMARK  status: ('A' for Active; 'I' for Inactive)
REMARK    1  A    between atoms: C_2  and  C_3 
REMARK    2  A    between atoms: C_3  and  N_4 
REMARK    3  A    between atoms: N_9  and  C_11 
REMARK    4  A    between atoms: C_11  and  C_12 
REMARK    5  A    between atoms: C_14  and  C_15 
REMARK    6  A    between atoms: C_15  and  C_16 
REMARK    7  A    between atoms: C_16  and  C_17 
REMARK    8  A    between atoms: C_17  and  O_18 
ROOT
HETATM    1  N   UNL     1      41.805 -16.035   2.214  1.00  0.00    -0.066 N 
HETATM    2  H   UNL     1      41.605 -16.410   3.149  1.00  0.00     0.280 HD
HETATM    3  C   UNL     1      42.163 -14.568   2.325  1.00  0.00     0.246 C 
HETATM    4  C   UNL     1      41.016 -13.778   2.980  1.00  0.00     0.009 C 
HETATM    5  C   UNL     1      41.378 -12.283   3.062  1.00  0.00     0.246 C 
HETATM    6  N   UNL     1      40.531 -11.747   4.194  1.00  0.00    -0.066 N 
HETATM    7  H   UNL     1      39.668 -11.349   3.788  1.00  0.00     0.280 HD
HETATM    8  C   UNL     1      40.132 -12.902   5.079  1.00  0.00     0.236 C 
HETATM    9  C   UNL     1      40.844 -14.108   4.474  1.00  0.00     0.040 C 
HETATM   10  C   UNL     1      39.718 -14.005   2.174  1.00  0.00     0.014 C 
HETATM   11  C   UNL     1      39.405 -15.490   1.964  1.00  0.00     0.029 C 
HETATM   12  C   UNL     1      40.575 -16.258   1.361  1.00  0.00     0.235 C 
ENDROOT
BRANCH   1  13
HETATM   13  C   UNL     1      42.969 -16.893   1.711  1.00  0.00     0.273 C 
BRANCH  13  14
HETATM   14  C   UNL     1      43.402 -17.923   2.722  1.00  0.00    -0.032 A 
HETATM   15  C   UNL     1      43.283 -17.671   4.101  1.00  0.00     0.012 A 
HETATM   16  C   UNL     1      43.754 -18.599   5.031  1.00  0.00     0.043 A 
HETATM   17  C   UNL     1      44.333 -19.783   4.589  1.00  0.00     0.116 A 
HETATM   18  C   UNL     1      44.438 -20.063   3.234  1.00  0.00     0.043 A 
HETATM   19  F   UNL     1      44.800 -20.662   5.483  1.00  0.00    -0.206 F 
HETATM   20  C   UNL     1      43.971 -19.137   2.298  1.00  0.00     0.012 A 
ENDBRANCH  13  14
ENDBRANCH   1  13
BRANCH   6  21
HETATM   21  C   UNL     1      41.146 -10.582   4.948  1.00  0.00     0.280 C 
BRANCH  21  22
HETATM   22  C   UNL     1      40.592 -10.448   6.325  1.00  0.00     0.009 A 
HETATM   23  S   UNL     1      41.372 -11.241   7.632  1.00  0.00    -0.084 SA
HETATM   24  C   UNL     1      40.236 -10.653   8.760  1.00  0.00     0.058 A 
HETATM   25  C   UNL     1      39.281  -9.863   8.160  1.00  0.00     0.029 A 
HETATM   26  C   UNL     1      39.487  -9.740   6.752  1.00  0.00     0.018 A 
BRANCH  24  27
HETATM   27  C   UNL     1      40.292 -10.961  10.150  1.00  0.00    -0.057 C 
BRANCH  27  28
HETATM   28  C   UNL     1      40.325 -11.197  11.328  1.00  0.00    -0.075 C 
BRANCH  28  29
HETATM   29  C   UNL     1      40.387 -11.516  12.752  1.00  0.00     0.258 C 
BRANCH  29  30
HETATM   30  O   UNL     1      39.836 -12.806  12.968  1.00  0.00    -0.389 OA
HETATM   31  H   UNL     1      40.517 -13.331  13.420  1.00  0.00     0.210 HD
ENDBRANCH  29  30
ENDBRANCH  28  29
ENDBRANCH  27  28
ENDBRANCH  24  27
ENDBRANCH  21  22
ENDBRANCH   6  21
TORSDOF 8
ENDMDL
MODEL 6
REMARK VINA RESULT:      -7.3      6.599      9.637
REMARK  8 active torsions:
REMARK  status: ('A' for Active; 'I' for Inactive)
REMARK    1  A    between atoms: C_2  and  C_3 
REMARK    2  A    between atoms: C_3  and  N_4 
REMARK    3  A    between atoms: N_9  and  C_11 
REMARK    4  A    between atoms: C_11  and  C_12 
REMARK    5  A    between atoms: C_14  and  C_15 
REMARK    6  A    between atoms: C_15  and  C_16 
REMARK    7  A    between atoms: C_16  and  C_17 
REMARK    8  A    between atoms: C_17  and  O_18 
ROOT
HETATM    1  N   UNL     1      39.443 -12.698   0.123  1.00  0.00    -0.066 N 
HETATM    2  H   UNL     1      38.985 -13.619   0.140  1.00  0.00     0.280 HD
HETATM    3  C   UNL     1      40.744 -12.768   0.893  1.00  0.00     0.246 C 
HETATM    4  C   UNL     1      40.493 -13.209   2.346  1.00  0.00     0.009 C 
HETATM    5  C   UNL     1      41.819 -13.248   3.128  1.00  0.00     0.246 C 
HETATM    6  N   UNL     1      41.564 -14.217   4.261  1.00  0.00    -0.066 N 
HETATM    7  H   UNL     1      41.279 -13.672   5.091  1.00  0.00     0.280 HD
HETATM    8  C   UNL     1      40.409 -15.107   3.876  1.00  0.00     0.236 C 
HETATM    9  C   UNL     1      40.058 -14.682   2.454  1.00  0.00     0.040 C 
HETATM   10  C   UNL     1      39.476 -12.246   2.998  1.00  0.00     0.014 C 
HETATM   11  C   UNL     1      38.197 -12.086   2.170  1.00  0.00     0.029 C 
HETATM   12  C   UNL     1      38.479 -11.699   0.723  1.00  0.00     0.235 C 
ENDROOT
BRANCH   1  13
HETATM   13  C   UNL     1      39.651 -12.415  -1.368  1.00  0.00     0.273 C 
BRANCH  13  14
HETATM   14  C   UNL     1      39.453 -13.643  -2.219  1.00  0.00    -0.032 A 
HETATM   15  C   UNL     1      40.523 -14.518  -2.479  1.00  0.00     0.012 A 
HETATM   16  C   UNL     1      40.349 -15.612  -3.328  1.00  0.00     0.043 A 
HETATM   17  C   UNL     1      39.108 -15.842  -3.909  1.00  0.00     0.116 A 
HETATM   18  C   UNL     1      38.032 -15.006  -3.647  1.00  0.00     0.043 A 
HETATM   19  F   UNL     1      38.951 -16.880  -4.737  1.00  0.00    -0.206 F 
HETATM   20  C   UNL     1      38.200 -13.908  -2.800  1.00  0.00     0.012 A 
ENDBRANCH  13  14
ENDBRANCH   1  13
BRANCH   6  21
HETATM   21  C   UNL     1      42.792 -14.976   4.731  1.00  0.00     0.280 C 
BRANCH  21  22
HETATM   22  C   UNL     1      43.202 -16.037   3.766  1.00  0.00     0.009 A 
HETATM   23  S   UNL     1      43.169 -17.682   4.253  1.00  0.00    -0.084 SA
HETATM   24  C   UNL     1      43.728 -18.216   2.732  1.00  0.00     0.058 A 
HETATM   25  C   UNL     1      43.932 -17.167   1.864  1.00  0.00     0.029 A 
HETATM   26  C   UNL     1      43.625 -15.905   2.459  1.00  0.00     0.018 A 
BRANCH  24  27
HETATM   27  C   UNL     1      43.949 -19.590   2.426  1.00  0.00    -0.057 C 
BRANCH  27  28
HETATM   28  C   UNL     1      44.111 -20.749   2.154  1.00  0.00    -0.075 C 
BRANCH  28  29
HETATM   29  C   UNL     1      44.341 -22.149   1.805  1.00  0.00     0.258 C 
BRANCH  29  30
HETATM   30  O   UNL     1      44.619 -22.886   2.986  1.00  0.00    -0.389 OA
HETATM   31  H   UNL     1      45.283 -22.380   3.484  1.00  0.00     0.210 HD
ENDBRANCH  29  30
ENDBRANCH  28  29
ENDBRANCH  27  28
ENDBRANCH  24  27
ENDBRANCH  21  22
ENDBRANCH   6  21
TORSDOF 8
ENDMDL
MODEL 7
REMARK VINA RESULT:      -7.3      5.472      8.339
REMARK  8 active torsions:
REMARK  status: ('A' for Active; 'I' for Inactive)
REMARK    1  A    between atoms: C_2  and  C_3 
REMARK    2  A    between atoms: C_3  and  N_4 
REMARK    3  A    between atoms: N_9  and  C_11 
REMARK    4  A    between atoms: C_11  and  C_12 
REMARK    5  A    between atoms: C_14  and  C_15 
REMARK    6  A    between atoms: C_15  and  C_16 
REMARK    7  A    between atoms: C_16  and  C_17 
REMARK    8  A    between atoms: C_17  and  O_18 
ROOT
HETATM    1  N   UNL     1      43.416 -16.654   6.016  1.00  0.00    -0.066 N 
HETATM    2  H   UNL     1      43.841 -16.661   5.080  1.00  0.00     0.280 HD
HETATM    3  C   UNL     1      42.130 -15.857   5.980  1.00  0.00     0.246 C 
HETATM    4  C   UNL     1      42.397 -14.416   5.507  1.00  0.00     0.009 C 
HETATM    5  C   UNL     1      41.088 -13.605   5.502  1.00  0.00     0.246 C 
HETATM    6  N   UNL     1      41.333 -12.493   4.506  1.00  0.00    -0.066 N 
HETATM    7  H   UNL     1      41.655 -11.662   5.027  1.00  0.00     0.280 HD
HETATM    8  C   UNL     1      42.447 -12.918   3.583  1.00  0.00     0.236 C 
HETATM    9  C   UNL     1      42.782 -14.341   4.018  1.00  0.00     0.040 C 
HETATM   10  C   UNL     1      43.461 -13.772   6.423  1.00  0.00     0.014 C 
HETATM   11  C   UNL     1      44.727 -14.626   6.552  1.00  0.00     0.029 C 
HETATM   12  C   UNL     1      44.427 -16.060   6.971  1.00  0.00     0.235 C 
ENDROOT
BRANCH   1  13
HETATM   13  C   UNL     1      43.186 -18.135   6.330  1.00  0.00     0.273 C 
BRANCH  13  14
HETATM   14  C   UNL     1      43.629 -19.036   5.206  1.00  0.00    -0.032 A 
HETATM   15  C   UNL     1      44.397 -20.185   5.467  1.00  0.00     0.012 A 
HETATM   16  C   UNL     1      44.867 -20.973   4.414  1.00  0.00     0.043 A 
HETATM   17  C   UNL     1      44.562 -20.624   3.104  1.00  0.00     0.116 A 
HETATM   18  C   UNL     1      43.785 -19.508   2.826  1.00  0.00     0.043 A 
HETATM   19  F   UNL     1      45.029 -21.371   2.098  1.00  0.00    -0.206 F 
HETATM   20  C   UNL     1      43.315 -18.713   3.874  1.00  0.00     0.012 A 
ENDBRANCH  13  14
ENDBRANCH   1  13
BRANCH   6  21
HETATM   21  C   UNL     1      40.090 -12.007   3.783  1.00  0.00     0.280 C 
BRANCH  21  22
HETATM   22  C   UNL     1      39.708 -12.905   2.656  1.00  0.00     0.009 A 
HETATM   23  S   UNL     1      39.755 -12.310   1.047  1.00  0.00    -0.084 SA
HETATM   24  C   UNL     1      39.225 -13.799   0.405  1.00  0.00     0.058 A 
HETATM   25  C   UNL     1      39.019 -14.738   1.392  1.00  0.00     0.029 A 
HETATM   26  C   UNL     1      39.301 -14.223   2.694  1.00  0.00     0.018 A 
BRANCH  24  27
HETATM   27  C   UNL     1      39.027 -14.016  -0.989  1.00  0.00    -0.057 C 
BRANCH  27  28
HETATM   28  C   UNL     1      38.868 -14.174  -2.170  1.00  0.00    -0.075 C 
BRANCH  28  29
HETATM   29  C   UNL     1      38.639 -14.373  -3.599  1.00  0.00     0.258 C 
BRANCH  29  30
HETATM   30  O   UNL     1      39.806 -14.924  -4.188  1.00  0.00    -0.389 OA
HETATM   31  H   UNL     1      40.565 -14.570  -3.694  1.00  0.00     0.210 HD
ENDBRANCH  29  30
ENDBRANCH  28  29
ENDBRANCH  27  28
ENDBRANCH  24  27
ENDBRANCH  21  22
ENDBRANCH   6  21
TORSDOF 8
ENDMDL
MODEL 8
REMARK VINA RESULT:      -7.2      3.632      4.023
REMARK  8 active torsions:
REMARK  status: ('A' for Active; 'I' for Inactive)
REMARK    1  A    between atoms: C_2  and  C_3 
REMARK    2  A    between atoms: C_3  and  N_4 
REMARK    3  A    between atoms: N_9  and  C_11 
REMARK    4  A    between atoms: C_11  and  C_12 
REMARK    5  A    between atoms: C_14  and  C_15 
REMARK    6  A    between atoms: C_15  and  C_16 
REMARK    7  A    between atoms: C_16  and  C_17 
REMARK    8  A    between atoms: C_17  and  O_18 
ROOT
HETATM    1  N   UNL     1      42.591 -17.539   2.170  1.00  0.00    -0.066 N 
HETATM    2  H   UNL     1      42.418 -17.944   3.099  1.00  0.00     0.280 HD
HETATM    3  C   UNL     1      42.959 -16.078   2.318  1.00  0.00     0.246 C 
HETATM    4  C   UNL     1      41.837 -15.305   3.035  1.00  0.00     0.009 C 
HETATM    5  C   UNL     1      42.208 -13.815   3.153  1.00  0.00     0.246 C 
HETATM    6  N   UNL     1      41.399 -13.314   4.328  1.00  0.00    -0.066 N 
HETATM    7  H   UNL     1      40.526 -12.899   3.963  1.00  0.00     0.280 HD
HETATM    8  C   UNL     1      41.023 -14.495   5.187  1.00  0.00     0.236 C 
HETATM    9  C   UNL     1      41.710 -15.683   4.522  1.00  0.00     0.040 C 
HETATM   10  C   UNL     1      40.513 -15.502   2.262  1.00  0.00     0.014 C 
HETATM   11  C   UNL     1      40.187 -16.977   2.013  1.00  0.00     0.029 C 
HETATM   12  C   UNL     1      41.334 -17.729   1.350  1.00  0.00     0.235 C 
ENDROOT
BRANCH   1  13
HETATM   13  C   UNL     1      43.735 -18.384   1.604  1.00  0.00     0.273 C 
BRANCH  13  14
HETATM   14  C   UNL     1      44.107 -19.528   2.511  1.00  0.00    -0.032 A 
HETATM   15  C   UNL     1      44.151 -20.847   2.024  1.00  0.00     0.012 A 
HETATM   16  C   UNL     1      44.423 -21.909   2.888  1.00  0.00     0.043 A 
HETATM   17  C   UNL     1      44.664 -21.658   4.233  1.00  0.00     0.116 A 
HETATM   18  C   UNL     1      44.651 -20.362   4.730  1.00  0.00     0.043 A 
HETATM   19  F   UNL     1      44.907 -22.680   5.061  1.00  0.00    -0.206 F 
HETATM   20  C   UNL     1      44.375 -19.295   3.872  1.00  0.00     0.012 A 
ENDBRANCH  13  14
ENDBRANCH   1  13
BRANCH   6  21
HETATM   21  C   UNL     1      42.043 -12.176   5.100  1.00  0.00     0.280 C 
BRANCH  21  22
HETATM   22  C   UNL     1      41.033 -11.302   5.762  1.00  0.00     0.009 A 
HETATM   23  S   UNL     1      41.021 -11.168   7.472  1.00  0.00    -0.084 SA
HETATM   24  C   UNL     1      39.697 -10.092   7.450  1.00  0.00     0.058 A 
HETATM   25  C   UNL     1      39.271  -9.831   6.167  1.00  0.00     0.029 A 
HETATM   26  C   UNL     1      40.044 -10.528   5.188  1.00  0.00     0.018 A 
BRANCH  24  27
HETATM   27  C   UNL     1      39.122  -9.545   8.633  1.00  0.00    -0.057 C 
BRANCH  27  28
HETATM   28  C   UNL     1      38.641  -9.058   9.621  1.00  0.00    -0.075 C 
BRANCH  28  29
HETATM   29  C   UNL     1      38.059  -8.501  10.840  1.00  0.00     0.258 C 
BRANCH  29  30
HETATM   30  O   UNL     1      37.149  -9.437  11.395  1.00  0.00    -0.389 OA
HETATM   31  H   UNL     1      36.275  -9.011  11.401  1.00  0.00     0.210 HD
ENDBRANCH  29  30
ENDBRANCH  28  29
ENDBRANCH  27  28
ENDBRANCH  24  27
ENDBRANCH  21  22
ENDBRANCH   6  21
TORSDOF 8
ENDMDL
MODEL 9
REMARK VINA RESULT:      -7.2      5.886      8.070
REMARK  8 active torsions:
REMARK  status: ('A' for Active; 'I' for Inactive)
REMARK    1  A    between atoms: C_2  and  C_3 
REMARK    2  A    between atoms: C_3  and  N_4 
REMARK    3  A    between atoms: N_9  and  C_11 
REMARK    4  A    between atoms: C_11  and  C_12 
REMARK    5  A    between atoms: C_14  and  C_15 
REMARK    6  A    between atoms: C_15  and  C_16 
REMARK    7  A    between atoms: C_16  and  C_17 
REMARK    8  A    between atoms: C_17  and  O_18 
ROOT
HETATM    1  N   UNL     1      44.051 -17.708   5.695  1.00  0.00    -0.066 N 
HETATM    2  H   UNL     1      44.735 -17.480   4.962  1.00  0.00     0.280 HD
HETATM    3  C   UNL     1      42.651 -17.591   5.133  1.00  0.00     0.246 C 
HETATM    4  C   UNL     1      42.399 -16.171   4.594  1.00  0.00     0.009 C 
HETATM    5  C   UNL     1      40.962 -16.053   4.052  1.00  0.00     0.246 C 
HETATM    6  N   UNL     1      41.022 -14.914   3.059  1.00  0.00    -0.066 N 
HETATM    7  H   UNL     1      40.735 -14.049   3.546  1.00  0.00     0.280 HD
HETATM    8  C   UNL     1      42.454 -14.740   2.619  1.00  0.00     0.236 C 
HETATM    9  C   UNL     1      43.207 -15.866   3.320  1.00  0.00     0.040 C 
HETATM   10  C   UNL     1      42.667 -15.147   5.720  1.00  0.00     0.014 C 
HETATM   11  C   UNL     1      44.042 -15.328   6.369  1.00  0.00     0.029 C 
HETATM   12  C   UNL     1      44.284 -16.755   6.846  1.00  0.00     0.235 C 
ENDROOT
BRANCH   1  13
HETATM   13  C   UNL     1      44.408 -19.140   6.103  1.00  0.00     0.273 C 
BRANCH  13  14
HETATM   14  C   UNL     1      44.494 -20.070   4.920  1.00  0.00    -0.032 A 
HETATM   15  C   UNL     1      44.332 -19.583   3.610  1.00  0.00     0.012 A 
HETATM   16  C   UNL     1      44.339 -20.462   2.526  1.00  0.00     0.043 A 
HETATM   17  C   UNL     1      44.518 -21.823   2.743  1.00  0.00     0.116 A 
HETATM   18  C   UNL     1      44.703 -22.321   4.025  1.00  0.00     0.043 A 
HETATM   19  F   UNL     1      44.505 -22.663   1.703  1.00  0.00    -0.206 F 
HETATM   20  C   UNL     1      44.694 -21.448   5.115  1.00  0.00     0.012 A 
ENDBRANCH  13  14
ENDBRANCH   1  13
BRANCH   6  21
HETATM   21  C   UNL     1      40.037 -15.025   1.909  1.00  0.00     0.280 C 
BRANCH  21  22
HETATM   22  C   UNL     1      39.155 -13.828   1.806  1.00  0.00     0.009 A 
HETATM   23  S   UNL     1      37.792 -13.868   0.764  1.00  0.00    -0.084 SA
HETATM   24  C   UNL     1      37.345 -12.273   1.170  1.00  0.00     0.058 A 
HETATM   25  C   UNL     1      38.210 -11.716   2.085  1.00  0.00     0.029 A 
HETATM   26  C   UNL     1      39.256 -12.615   2.457  1.00  0.00     0.018 A 
BRANCH  24  27
HETATM   27  C   UNL     1      36.208 -11.620   0.612  1.00  0.00    -0.057 C 
BRANCH  27  28
HETATM   28  C   UNL     1      35.236 -11.092   0.143  1.00  0.00    -0.075 C 
BRANCH  28  29
HETATM   29  C   UNL     1      34.051 -10.428  -0.396  1.00  0.00     0.258 C 
BRANCH  29  30
HETATM   30  O   UNL     1      33.744 -10.980  -1.667  1.00  0.00    -0.389 OA
HETATM   31  H   UNL     1      34.065 -10.349  -2.333  1.00  0.00     0.210 HD
ENDBRANCH  29  30
ENDBRANCH  28  29
ENDBRANCH  27  28
ENDBRANCH  24  27
ENDBRANCH  21  22
ENDBRANCH   6  21
TORSDOF 8
ENDMDL
MODEL 10
REMARK VINA RESULT:      -7.1      7.127     10.223
REMARK  8 active torsions:
REMARK  status: ('A' for Active; 'I' for Inactive)
REMARK    1  A    between atoms: C_2  and  C_3 
REMARK    2  A    between atoms: C_3  and  N_4 
REMARK    3  A    between atoms: N_9  and  C_11 
REMARK    4  A    between atoms: C_11  and  C_12 
REMARK    5  A    between atoms: C_14  and  C_15 
REMARK    6  A    between atoms: C_15  and  C_16 
REMARK    7  A    between atoms: C_16  and  C_17 
REMARK    8  A    between atoms: C_17  and  O_18 
ROOT
HETATM    1  N   UNL     1      39.026 -14.388  -1.167  1.00  0.00    -0.066 N 
HETATM    2  H   UNL     1      38.744 -15.347  -0.927  1.00  0.00     0.280 HD
HETATM    3  C   UNL     1      40.330 -14.057  -0.475  1.00  0.00     0.246 C 
HETATM    4  C   UNL     1      40.189 -14.204   1.051  1.00  0.00     0.009 C 
HETATM    5  C   UNL     1      41.513 -13.837   1.747  1.00  0.00     0.246 C 
HETATM    6  N   UNL     1      41.459 -14.562   3.073  1.00  0.00    -0.066 N 
HETATM    7  H   UNL     1      41.093 -13.906   3.783  1.00  0.00     0.280 HD
HETATM    8  C   UNL     1      40.480 -15.703   2.954  1.00  0.00     0.236 C 
HETATM    9  C   UNL     1      40.033 -15.670   1.496  1.00  0.00     0.040 C 
HETATM   10  C   UNL     1      39.024 -13.314   1.539  1.00  0.00     0.014 C 
HETATM   11  C   UNL     1      37.724 -13.566   0.770  1.00  0.00     0.029 C 
HETATM   12  C   UNL     1      37.905 -13.465  -0.740  1.00  0.00     0.235 C 
ENDROOT
BRANCH   1  13
HETATM   13  C   UNL     1      39.152 -14.408  -2.693  1.00  0.00     0.273 C 
BRANCH  13  14
HETATM   14  C   UNL     1      40.085 -13.341  -3.206  1.00  0.00    -0.032 A 
HETATM   15  C   UNL     1      41.459 -13.599  -3.355  1.00  0.00     0.012 A 
HETATM   16  C   UNL     1      42.327 -12.583  -3.759  1.00  0.00     0.043 A 
HETATM   17  C   UNL     1      41.826 -11.315  -4.027  1.00  0.00     0.116 A 
HETATM   18  C   UNL     1      40.469 -11.045  -3.910  1.00  0.00     0.043 A 
HETATM   19  F   UNL     1      42.664 -10.340  -4.396  1.00  0.00    -0.206 F 
HETATM   20  C   UNL     1      39.596 -12.056  -3.502  1.00  0.00     0.012 A 
ENDBRANCH  13  14
ENDBRANCH   1  13
BRANCH   6  21
HETATM   21  C   UNL     1      42.813 -14.972   3.625  1.00  0.00     0.280 C 
BRANCH  21  22
HETATM   22  C   UNL     1      43.282 -16.269   3.057  1.00  0.00     0.009 A 
HETATM   23  S   UNL     1      43.292 -17.671   4.045  1.00  0.00    -0.084 SA
HETATM   24  C   UNL     1      43.907 -18.642   2.785  1.00  0.00     0.058 A 
HETATM   25  C   UNL     1      44.099 -17.919   1.628  1.00  0.00     0.029 A 
HETATM   26  C   UNL     1      43.735 -16.546   1.783  1.00  0.00     0.018 A 
BRANCH  24  27
HETATM   27  C   UNL     1      44.181 -20.032   2.939  1.00  0.00    -0.057 C 
BRANCH  27  28
HETATM   28  C   UNL     1      44.429 -21.202   3.047  1.00  0.00    -0.075 C 
BRANCH  28  29
HETATM   29  C   UNL     1      44.711 -22.633   3.146  1.00  0.00     0.258 C 
BRANCH  29  30
HETATM   30  O   UNL     1      44.719 -23.015   4.512  1.00  0.00    -0.389 OA
HETATM   31  H   UNL     1      44.586 -22.204   5.032  1.00  0.00     0.210 HD
ENDBRANCH  29  30
ENDBRANCH  28  29
ENDBRANCH  27  28
ENDBRANCH  24  27
ENDBRANCH  21  22
ENDBRANCH   6  21
TORSDOF 8
ENDMDL
