MODEL 1
REMARK VINA RESULT:      -8.6      0.000      0.000
REMARK  5 active torsions:
REMARK  status: ('A' for Active; 'I' for Inactive)
REMARK    1  A    between atoms: C_4  and  N_5 
REMARK    2  A    between atoms: C_9  and  C_10 
REMARK    3  A    between atoms: C_13  and  O_14 
REMARK    4  A    between atoms: C_17  and  C_18 
REMARK       I    between atoms: C_18  and  N_19 
REMARK    5  A    between atoms: N_19  and  C_20 
ROOT
HETATM    1  N   UNL     1      40.697 -14.091   2.386  1.00  0.00    -0.292 N 
HETATM    2  C   UNL     1      40.075 -13.510   3.515  1.00  0.00     0.179 C 
HETATM    3  S   UNL     1      39.121 -12.125   3.583  1.00  0.00    -0.040 SA
HETATM    4  N   UNL     1      40.216 -14.168   4.701  1.00  0.00    -0.354 N 
HETATM    5  C   UNL     1      41.119 -15.261   4.967  1.00  0.00     0.158 C 
HETATM    6  C   UNL     1      41.539 -15.908   3.689  1.00  0.00     0.060 C 
HETATM    7  C   UNL     1      41.362 -15.341   2.474  1.00  0.00     0.030 C 
HETATM    8  C   UNL     1      41.831 -15.997   1.190  1.00  0.00     0.070 C 
HETATM    9  H   UNL     1      39.776 -13.724   5.497  1.00  0.00     0.163 HD
ENDROOT
BRANCH   6  10
HETATM   10  C   UNL     1      41.983 -17.320   3.881  1.00  0.00     0.257 C 
HETATM   11  N   UNL     1      43.289 -17.563   3.536  1.00  0.00    -0.306 N 
HETATM   12  H   UNL     1      43.885 -16.792   3.275  1.00  0.00     0.170 HD
HETATM   13  O   UNL     1      41.178 -18.118   4.349  1.00  0.00    -0.267 OA
BRANCH  11  14
HETATM   14  C   UNL     1      43.793 -18.837   3.337  1.00  0.00     0.160 A 
HETATM   15  N   UNL     1      44.432 -19.575   4.251  1.00  0.00    -0.110 NA
HETATM   16  O   UNL     1      44.665 -20.802   3.672  1.00  0.00    -0.216 OA
HETATM   17  C   UNL     1      44.162 -20.809   2.411  1.00  0.00     0.078 A 
HETATM   18  C   UNL     1      44.272 -22.078   1.672  1.00  0.00     0.079 C 
HETATM   19  C   UNL     1      43.630 -19.573   2.137  1.00  0.00     0.087 A 
ENDBRANCH  11  14
ENDBRANCH   6  10
BRANCH   5  20
HETATM   20  C   UNL     1      42.304 -14.778   5.794  1.00  0.00    -0.031 A 
HETATM   21  C   UNL     1      43.073 -15.704   6.522  1.00  0.00     0.012 A 
HETATM   22  C   UNL     1      44.156 -15.280   7.299  1.00  0.00     0.037 A 
HETATM   23  C   UNL     1      44.479 -13.929   7.344  1.00  0.00     0.065 A 
HETATM   24  C   UNL     1      43.746 -12.997   6.621  1.00  0.00     0.037 A 
HETATM   25  C   UNL     1      42.664 -13.419   5.847  1.00  0.00     0.012 A 
BRANCH  23  26
HETATM   26  O   UNL     1      45.521 -13.471   8.095  1.00  0.00    -0.361 OA
HETATM   27  H   UNL     1      46.258 -13.253   7.501  1.00  0.00     0.217 HD
ENDBRANCH  23  26
ENDBRANCH   5  20
BRANCH   1  28
HETATM   28  C   UNL     1      40.551 -13.415   1.125  1.00  0.00     0.048 A 
HETATM   29  C   UNL     1      41.622 -12.613   0.687  1.00  0.00     0.037 A 
HETATM   30  C   UNL     1      41.550 -11.909  -0.520  1.00  0.00    -0.060 A 
HETATM   31  C   UNL     1      42.688 -11.034  -0.956  1.00  0.00     0.048 C 
HETATM   32  C   UNL     1      40.419 -12.060  -1.323  1.00  0.00     0.007 A 
HETATM   33  C   UNL     1      39.351 -12.854  -0.898  1.00  0.00     0.009 A 
HETATM   34  C   UNL     1      39.386 -13.517   0.340  1.00  0.00    -0.035 A 
HETATM   35  C   UNL     1      38.165 -14.288   0.756  1.00  0.00     0.050 C 
ENDBRANCH   1  28
TORSDOF 5
ENDMDL
MODEL 2
REMARK VINA RESULT:      -8.6      2.093      2.741
REMARK  5 active torsions:
REMARK  status: ('A' for Active; 'I' for Inactive)
REMARK    1  A    between atoms: C_4  and  N_5 
REMARK    2  A    between atoms: C_9  and  C_10 
REMARK    3  A    between atoms: C_13  and  O_14 
REMARK    4  A    between atoms: C_17  and  C_18 
REMARK       I    between atoms: C_18  and  N_19 
REMARK    5  A    between atoms: N_19  and  C_20 
ROOT
HETATM    1  N   UNL     1      40.091 -13.558  -0.077  1.00  0.00    -0.292 N 
HETATM    2  C   UNL     1      39.037 -12.948   0.640  1.00  0.00     0.179 C 
HETATM    3  S   UNL     1      38.080 -11.643   0.177  1.00  0.00    -0.040 SA
HETATM    4  N   UNL     1      38.710 -13.502   1.841  1.00  0.00    -0.354 N 
HETATM    5  C   UNL     1      39.471 -14.496   2.557  1.00  0.00     0.158 C 
HETATM    6  C   UNL     1      40.405 -15.200   1.629  1.00  0.00     0.060 C 
HETATM    7  C   UNL     1      40.716 -14.741   0.396  1.00  0.00     0.030 C 
HETATM    8  C   UNL     1      41.698 -15.450  -0.516  1.00  0.00     0.070 C 
HETATM    9  H   UNL     1      37.963 -13.038   2.343  1.00  0.00     0.163 HD
ENDROOT
BRANCH   6  10
HETATM   10  C   UNL     1      40.793 -16.553   2.125  1.00  0.00     0.257 C 
HETATM   11  N   UNL     1      42.082 -16.649   2.584  1.00  0.00    -0.306 N 
HETATM   12  H   UNL     1      42.648 -15.816   2.652  1.00  0.00     0.170 HD
HETATM   13  O   UNL     1      39.941 -17.436   2.114  1.00  0.00    -0.267 OA
BRANCH  11  14
HETATM   14  C   UNL     1      42.726 -17.858   2.781  1.00  0.00     0.160 A 
HETATM   15  N   UNL     1      43.084 -18.368   3.964  1.00  0.00    -0.110 NA
HETATM   16  O   UNL     1      43.596 -19.622   3.713  1.00  0.00    -0.216 OA
HETATM   17  C   UNL     1      43.541 -19.873   2.380  1.00  0.00     0.078 A 
HETATM   18  C   UNL     1      43.993 -21.206   1.948  1.00  0.00     0.079 C 
HETATM   19  C   UNL     1      43.031 -18.771   1.739  1.00  0.00     0.087 A 
ENDBRANCH  11  14
ENDBRANCH   6  10
BRANCH   5  20
HETATM   20  C   UNL     1      40.191 -13.860   3.740  1.00  0.00    -0.031 A 
HETATM   21  C   UNL     1      41.359 -13.107   3.525  1.00  0.00     0.012 A 
HETATM   22  C   UNL     1      42.043 -12.526   4.598  1.00  0.00     0.037 A 
HETATM   23  C   UNL     1      41.557 -12.691   5.890  1.00  0.00     0.065 A 
HETATM   24  C   UNL     1      40.397 -13.416   6.126  1.00  0.00     0.037 A 
HETATM   25  C   UNL     1      39.715 -13.998   5.056  1.00  0.00     0.012 A 
BRANCH  23  26
HETATM   26  O   UNL     1      42.197 -12.151   6.966  1.00  0.00    -0.361 OA
HETATM   27  H   UNL     1      41.543 -11.994   7.668  1.00  0.00     0.217 HD
ENDBRANCH  23  26
ENDBRANCH   5  20
BRANCH   1  28
HETATM   28  C   UNL     1      40.445 -12.991  -1.351  1.00  0.00     0.048 A 
HETATM   29  C   UNL     1      41.432 -11.987  -1.367  1.00  0.00     0.037 A 
HETATM   30  C   UNL     1      41.818 -11.373  -2.563  1.00  0.00    -0.060 A 
HETATM   31  C   UNL     1      42.848 -10.282  -2.557  1.00  0.00     0.048 C 
HETATM   32  C   UNL     1      41.255 -11.814  -3.761  1.00  0.00     0.007 A 
HETATM   33  C   UNL     1      40.275 -12.811  -3.756  1.00  0.00     0.009 A 
HETATM   34  C   UNL     1      39.836 -13.392  -2.556  1.00  0.00    -0.035 A 
HETATM   35  C   UNL     1      38.724 -14.401  -2.633  1.00  0.00     0.050 C 
ENDBRANCH   1  28
TORSDOF 5
ENDMDL
MODEL 3
REMARK VINA RESULT:      -8.4      3.602      7.429
REMARK  5 active torsions:
REMARK  status: ('A' for Active; 'I' for Inactive)
REMARK    1  A    between atoms: C_4  and  N_5 
REMARK    2  A    between atoms: C_9  and  C_10 
REMARK    3  A    between atoms: C_13  and  O_14 
REMARK    4  A    between atoms: C_17  and  C_18 
REMARK       I    between atoms: C_18  and  N_19 
REMARK    5  A    between atoms: N_19  and  C_20 
ROOT
HETATM    1  N   UNL     1      41.670 -15.373   2.950  1.00  0.00    -0.292 N 
HETATM    2  C   UNL     1      42.457 -14.199   3.005  1.00  0.00     0.179 C 
HETATM    3  S   UNL     1      43.933 -13.969   3.780  1.00  0.00    -0.040 SA
HETATM    4  N   UNL     1      41.999 -13.120   2.309  1.00  0.00    -0.354 N 
HETATM    5  C   UNL     1      40.692 -12.980   1.716  1.00  0.00     0.158 C 
HETATM    6  C   UNL     1      40.059 -14.320   1.534  1.00  0.00     0.060 C 
HETATM    7  C   UNL     1      40.508 -15.443   2.139  1.00  0.00     0.030 C 
HETATM    8  C   UNL     1      39.828 -16.788   1.973  1.00  0.00     0.070 C 
HETATM    9  H   UNL     1      42.571 -12.287   2.376  1.00  0.00     0.163 HD
ENDROOT
BRANCH   6  10
HETATM   10  C   UNL     1      39.018 -14.321   0.466  1.00  0.00     0.257 C 
HETATM   11  N   UNL     1      39.511 -14.319  -0.815  1.00  0.00    -0.306 N 
HETATM   12  H   UNL     1      40.504 -14.411  -0.966  1.00  0.00     0.170 HD
HETATM   13  O   UNL     1      37.841 -14.356   0.808  1.00  0.00    -0.267 OA
BRANCH  11  14
HETATM   14  C   UNL     1      38.739 -14.001  -1.920  1.00  0.00     0.160 A 
HETATM   15  N   UNL     1      38.321 -14.862  -2.853  1.00  0.00    -0.110 NA
HETATM   16  O   UNL     1      37.503 -14.152  -3.705  1.00  0.00    -0.216 OA
HETATM   17  C   UNL     1      37.422 -12.864  -3.283  1.00  0.00     0.078 A 
HETATM   18  C   UNL     1      36.529 -11.981  -4.052  1.00  0.00     0.079 C 
HETATM   19  C   UNL     1      38.218 -12.707  -2.175  1.00  0.00     0.087 A 
ENDBRANCH  11  14
ENDBRANCH   6  10
BRANCH   5  20
HETATM   20  C   UNL     1      39.832 -12.036   2.548  1.00  0.00    -0.031 A 
HETATM   21  C   UNL     1      39.397 -10.818   1.999  1.00  0.00     0.012 A 
HETATM   22  C   UNL     1      38.619  -9.931   2.751  1.00  0.00     0.037 A 
HETATM   23  C   UNL     1      38.267 -10.265   4.054  1.00  0.00     0.065 A 
HETATM   24  C   UNL     1      38.671 -11.470   4.614  1.00  0.00     0.037 A 
HETATM   25  C   UNL     1      39.449 -12.354   3.864  1.00  0.00     0.012 A 
BRANCH  23  26
HETATM   26  O   UNL     1      37.518  -9.427   4.826  1.00  0.00    -0.361 OA
HETATM   27  H   UNL     1      36.590  -9.496   4.547  1.00  0.00     0.217 HD
ENDBRANCH  23  26
ENDBRANCH   5  20
BRANCH   1  28
HETATM   28  C   UNL     1      42.142 -16.524   3.672  1.00  0.00     0.048 A 
HETATM   29  C   UNL     1      42.969 -17.433   2.983  1.00  0.00     0.037 A 
HETATM   30  C   UNL     1      43.453 -18.586   3.610  1.00  0.00    -0.060 A 
HETATM   31  C   UNL     1      44.307 -19.558   2.852  1.00  0.00     0.048 C 
HETATM   32  C   UNL     1      43.158 -18.796   4.958  1.00  0.00     0.007 A 
HETATM   33  C   UNL     1      42.339 -17.900   5.651  1.00  0.00     0.009 A 
HETATM   34  C   UNL     1      41.797 -16.771   5.015  1.00  0.00    -0.035 A 
HETATM   35  C   UNL     1      40.865 -15.901   5.810  1.00  0.00     0.050 C 
ENDBRANCH   1  28
TORSDOF 5
ENDMDL
MODEL 4
REMARK VINA RESULT:      -8.4      3.433      7.105
REMARK  5 active torsions:
REMARK  status: ('A' for Active; 'I' for Inactive)
REMARK    1  A    between atoms: C_4  and  N_5 
REMARK    2  A    between atoms: C_9  and  C_10 
REMARK    3  A    between atoms: C_13  and  O_14 
REMARK    4  A    between atoms: C_17  and  C_18 
REMARK       I    between atoms: C_18  and  N_19 
REMARK    5  A    between atoms: N_19  and  C_20 
ROOT
HETATM    1  N   UNL     1      42.505 -15.675   3.711  1.00  0.00    -0.292 N 
HETATM    2  C   UNL     1      43.103 -14.486   4.186  1.00  0.00     0.179 C 
HETATM    3  S   UNL     1      44.124 -14.288   5.509  1.00  0.00    -0.040 SA
HETATM    4  N   UNL     1      42.871 -13.352   3.465  1.00  0.00    -0.354 N 
HETATM    5  C   UNL     1      41.901 -13.196   2.409  1.00  0.00     0.158 C 
HETATM    6  C   UNL     1      41.508 -14.530   1.866  1.00  0.00     0.060 C 
HETATM    7  C   UNL     1      41.772 -15.697   2.496  1.00  0.00     0.030 C 
HETATM    8  C   UNL     1      41.330 -17.040   1.948  1.00  0.00     0.070 C 
HETATM    9  H   UNL     1      43.297 -12.510   3.833  1.00  0.00     0.163 HD
ENDROOT
BRANCH   6  10
HETATM   10  C   UNL     1      40.983 -14.448   0.472  1.00  0.00     0.257 C 
HETATM   11  N   UNL     1      41.945 -14.307  -0.496  1.00  0.00    -0.306 N 
HETATM   12  H   UNL     1      42.919 -14.362  -0.241  1.00  0.00     0.170 HD
HETATM   13  O   UNL     1      39.771 -14.543   0.307  1.00  0.00    -0.267 OA
BRANCH  11  14
HETATM   14  C   UNL     1      41.661 -13.898  -1.788  1.00  0.00     0.160 A 
HETATM   15  N   UNL     1      41.351 -14.702  -2.811  1.00  0.00    -0.110 NA
HETATM   16  O   UNL     1      41.044 -13.883  -3.875  1.00  0.00    -0.216 OA
HETATM   17  C   UNL     1      41.163 -12.585  -3.495  1.00  0.00     0.078 A 
HETATM   18  C   UNL     1      40.806 -11.575  -4.505  1.00  0.00     0.079 C 
HETATM   19  C   UNL     1      41.588 -12.540  -2.190  1.00  0.00     0.087 A 
ENDBRANCH  11  14
ENDBRANCH   6  10
BRANCH   5  20
HETATM   20  C   UNL     1      40.705 -12.392   2.904  1.00  0.00    -0.031 A 
HETATM   21  C   UNL     1      40.068 -12.752   4.105  1.00  0.00     0.012 A 
HETATM   22  C   UNL     1      38.960 -12.035   4.569  1.00  0.00     0.037 A 
HETATM   23  C   UNL     1      38.490 -10.951   3.838  1.00  0.00     0.065 A 
HETATM   24  C   UNL     1      39.112 -10.565   2.658  1.00  0.00     0.037 A 
HETATM   25  C   UNL     1      40.217 -11.281   2.193  1.00  0.00     0.012 A 
BRANCH  23  26
HETATM   26  O   UNL     1      37.408 -10.230   4.248  1.00  0.00    -0.361 OA
HETATM   27  H   UNL     1      37.513 -10.024   5.192  1.00  0.00     0.217 HD
ENDBRANCH  23  26
ENDBRANCH   5  20
BRANCH   1  28
HETATM   28  C   UNL     1      42.745 -16.883   4.455  1.00  0.00     0.048 A 
HETATM   29  C   UNL     1      43.734 -17.761   3.971  1.00  0.00     0.037 A 
HETATM   30  C   UNL     1      44.014 -18.965   4.627  1.00  0.00    -0.060 A 
HETATM   31  C   UNL     1      45.048 -19.903   4.080  1.00  0.00     0.048 C 
HETATM   32  C   UNL     1      43.340 -19.259   5.813  1.00  0.00     0.007 A 
HETATM   33  C   UNL     1      42.358 -18.394   6.302  1.00  0.00     0.009 A 
HETATM   34  C   UNL     1      42.026 -17.213   5.619  1.00  0.00    -0.035 A 
HETATM   35  C   UNL     1      40.905 -16.377   6.172  1.00  0.00     0.050 C 
ENDBRANCH   1  28
TORSDOF 5
ENDMDL
MODEL 5
REMARK VINA RESULT:      -8.3      1.950      2.808
REMARK  5 active torsions:
REMARK  status: ('A' for Active; 'I' for Inactive)
REMARK    1  A    between atoms: C_4  and  N_5 
REMARK    2  A    between atoms: C_9  and  C_10 
REMARK    3  A    between atoms: C_13  and  O_14 
REMARK    4  A    between atoms: C_17  and  C_18 
REMARK       I    between atoms: C_18  and  N_19 
REMARK    5  A    between atoms: N_19  and  C_20 
ROOT
HETATM    1  N   UNL     1      40.256 -14.872   0.465  1.00  0.00    -0.292 N 
HETATM    2  C   UNL     1      39.116 -14.363   1.128  1.00  0.00     0.179 C 
HETATM    3  S   UNL     1      37.892 -13.392   0.501  1.00  0.00    -0.040 SA
HETATM    4  N   UNL     1      38.946 -14.732   2.429  1.00  0.00    -0.354 N 
HETATM    5  C   UNL     1      39.920 -15.394   3.261  1.00  0.00     0.158 C 
HETATM    6  C   UNL     1      40.957 -16.058   2.417  1.00  0.00     0.060 C 
HETATM    7  C   UNL     1      41.130 -15.790   1.103  1.00  0.00     0.030 C 
HETATM    8  C   UNL     1      42.215 -16.446   0.271  1.00  0.00     0.070 C 
HETATM    9  H   UNL     1      38.131 -14.342   2.887  1.00  0.00     0.163 HD
ENDROOT
BRANCH   6  10
HETATM   10  C   UNL     1      41.636 -17.184   3.123  1.00  0.00     0.257 C 
HETATM   11  N   UNL     1      42.926 -17.420   2.720  1.00  0.00    -0.306 N 
HETATM   12  H   UNL     1      43.365 -16.789   2.067  1.00  0.00     0.170 HD
HETATM   13  O   UNL     1      41.014 -17.769   4.004  1.00  0.00    -0.267 OA
BRANCH  11  14
HETATM   14  C   UNL     1      43.605 -18.591   3.009  1.00  0.00     0.160 A 
HETATM   15  N   UNL     1      44.310 -18.830   4.120  1.00  0.00    -0.110 NA
HETATM   16  O   UNL     1      44.727 -20.140   4.047  1.00  0.00    -0.216 OA
HETATM   17  C   UNL     1      44.270 -20.695   2.895  1.00  0.00     0.078 A 
HETATM   18  C   UNL     1      44.576 -22.121   2.693  1.00  0.00     0.079 C 
HETATM   19  C   UNL     1      43.583 -19.743   2.183  1.00  0.00     0.087 A 
ENDBRANCH  11  14
ENDBRANCH   6  10
BRANCH   5  20
HETATM   20  C   UNL     1      40.521 -14.411   4.258  1.00  0.00    -0.031 A 
HETATM   21  C   UNL     1      39.775 -14.008   5.380  1.00  0.00     0.012 A 
HETATM   22  C   UNL     1      40.302 -13.095   6.300  1.00  0.00     0.037 A 
HETATM   23  C   UNL     1      41.582 -12.588   6.104  1.00  0.00     0.065 A 
HETATM   24  C   UNL     1      42.345 -12.983   5.013  1.00  0.00     0.037 A 
HETATM   25  C   UNL     1      41.818 -13.892   4.094  1.00  0.00     0.012 A 
BRANCH  23  26
HETATM   26  O   UNL     1      42.132 -11.690   6.970  1.00  0.00    -0.361 OA
HETATM   27  H   UNL     1      42.555 -10.983   6.455  1.00  0.00     0.217 HD
ENDBRANCH  23  26
ENDBRANCH   5  20
BRANCH   1  28
HETATM   28  C   UNL     1      40.447 -14.499  -0.911  1.00  0.00     0.048 A 
HETATM   29  C   UNL     1      39.808 -15.279  -1.893  1.00  0.00     0.037 A 
HETATM   30  C   UNL     1      39.958 -14.993  -3.254  1.00  0.00    -0.060 A 
HETATM   31  C   UNL     1      39.295 -15.854  -4.288  1.00  0.00     0.048 C 
HETATM   32  C   UNL     1      40.706 -13.876  -3.630  1.00  0.00     0.007 A 
HETATM   33  C   UNL     1      41.344 -13.094  -2.663  1.00  0.00     0.009 A 
HETATM   34  C   UNL     1      41.250 -13.408  -1.297  1.00  0.00    -0.035 A 
HETATM   35  C   UNL     1      42.029 -12.562  -0.329  1.00  0.00     0.050 C 
ENDBRANCH   1  28
TORSDOF 5
ENDMDL
MODEL 6
REMARK VINA RESULT:      -8.2      3.624      7.197
REMARK  5 active torsions:
REMARK  status: ('A' for Active; 'I' for Inactive)
REMARK    1  A    between atoms: C_4  and  N_5 
REMARK    2  A    between atoms: C_9  and  C_10 
REMARK    3  A    between atoms: C_13  and  O_14 
REMARK    4  A    between atoms: C_17  and  C_18 
REMARK       I    between atoms: C_18  and  N_19 
REMARK    5  A    between atoms: N_19  and  C_20 
ROOT
HETATM    1  N   UNL     1      42.384 -15.325   2.930  1.00  0.00    -0.292 N 
HETATM    2  C   UNL     1      42.942 -14.166   3.517  1.00  0.00     0.179 C 
HETATM    3  S   UNL     1      43.879 -14.050   4.910  1.00  0.00    -0.040 SA
HETATM    4  N   UNL     1      42.744 -12.989   2.859  1.00  0.00    -0.354 N 
HETATM    5  C   UNL     1      41.839 -12.769   1.758  1.00  0.00     0.158 C 
HETATM    6  C   UNL     1      41.491 -14.066   1.106  1.00  0.00     0.060 C 
HETATM    7  C   UNL     1      41.727 -15.271   1.674  1.00  0.00     0.030 C 
HETATM    8  C   UNL     1      41.330 -16.577   1.013  1.00  0.00     0.070 C 
HETATM    9  H   UNL     1      43.139 -12.171   3.306  1.00  0.00     0.163 HD
ENDROOT
BRANCH   6  10
HETATM   10  C   UNL     1      41.050 -13.896  -0.309  1.00  0.00     0.257 C 
HETATM   11  N   UNL     1      39.713 -14.120  -0.524  1.00  0.00    -0.306 N 
HETATM   12  H   UNL     1      39.104 -14.285   0.262  1.00  0.00     0.170 HD
HETATM   13  O   UNL     1      41.887 -13.547  -1.135  1.00  0.00    -0.267 OA
BRANCH  11  14
HETATM   14  C   UNL     1      39.176 -14.326  -1.783  1.00  0.00     0.160 A 
HETATM   15  N   UNL     1      39.716 -15.078  -2.749  1.00  0.00    -0.110 NA
HETATM   16  O   UNL     1      38.811 -15.093  -3.787  1.00  0.00    -0.216 OA
HETATM   17  C   UNL     1      37.722 -14.357  -3.448  1.00  0.00     0.078 A 
HETATM   18  C   UNL     1      36.626 -14.324  -4.430  1.00  0.00     0.079 C 
HETATM   19  C   UNL     1      37.920 -13.818  -2.200  1.00  0.00     0.087 A 
ENDBRANCH  11  14
ENDBRANCH   6  10
BRANCH   5  20
HETATM   20  C   UNL     1      40.608 -12.005   2.230  1.00  0.00    -0.031 A 
HETATM   21  C   UNL     1      39.867 -12.479   3.327  1.00  0.00     0.012 A 
HETATM   22  C   UNL     1      38.727 -11.800   3.768  1.00  0.00     0.037 A 
HETATM   23  C   UNL     1      38.327 -10.639   3.117  1.00  0.00     0.065 A 
HETATM   24  C   UNL     1      39.050 -10.141   2.041  1.00  0.00     0.037 A 
HETATM   25  C   UNL     1      40.188 -10.819   1.600  1.00  0.00     0.012 A 
BRANCH  23  26
HETATM   26  O   UNL     1      37.216  -9.950   3.506  1.00  0.00    -0.361 OA
HETATM   27  H   UNL     1      36.532 -10.055   2.824  1.00  0.00     0.217 HD
ENDBRANCH  23  26
ENDBRANCH   5  20
BRANCH   1  28
HETATM   28  C   UNL     1      42.590 -16.578   3.607  1.00  0.00     0.048 A 
HETATM   29  C   UNL     1      43.550 -17.458   3.073  1.00  0.00     0.037 A 
HETATM   30  C   UNL     1      43.796 -18.703   3.662  1.00  0.00    -0.060 A 
HETATM   31  C   UNL     1      44.800 -19.641   3.062  1.00  0.00     0.048 C 
HETATM   32  C   UNL     1      43.116 -19.040   4.834  1.00  0.00     0.007 A 
HETATM   33  C   UNL     1      42.162 -18.173   5.372  1.00  0.00     0.009 A 
HETATM   34  C   UNL     1      41.863 -16.948   4.755  1.00  0.00    -0.035 A 
HETATM   35  C   UNL     1      40.769 -16.110   5.356  1.00  0.00     0.050 C 
ENDBRANCH   1  28
TORSDOF 5
ENDMDL
MODEL 7
REMARK VINA RESULT:      -8.1      3.679      8.093
REMARK  5 active torsions:
REMARK  status: ('A' for Active; 'I' for Inactive)
REMARK    1  A    between atoms: C_4  and  N_5 
REMARK    2  A    between atoms: C_9  and  C_10 
REMARK    3  A    between atoms: C_13  and  O_14 
REMARK    4  A    between atoms: C_17  and  C_18 
REMARK       I    between atoms: C_18  and  N_19 
REMARK    5  A    between atoms: N_19  and  C_20 
ROOT
HETATM    1  N   UNL     1      41.913 -15.422   3.165  1.00  0.00    -0.292 N 
HETATM    2  C   UNL     1      42.573 -16.022   2.068  1.00  0.00     0.179 C 
HETATM    3  S   UNL     1      43.923 -17.027   2.086  1.00  0.00    -0.040 SA
HETATM    4  N   UNL     1      42.033 -15.808   0.835  1.00  0.00    -0.354 N 
HETATM    5  C   UNL     1      41.003 -14.852   0.509  1.00  0.00     0.158 C 
HETATM    6  C   UNL     1      40.256 -14.457   1.740  1.00  0.00     0.060 C 
HETATM    7  C   UNL     1      40.701 -14.704   2.993  1.00  0.00     0.030 C 
HETATM    8  C   UNL     1      39.947 -14.260   4.230  1.00  0.00     0.070 C 
HETATM    9  H   UNL     1      42.532 -16.234   0.064  1.00  0.00     0.163 HD
ENDROOT
BRANCH   6  10
HETATM   10  C   UNL     1      38.885 -13.949   1.439  1.00  0.00     0.257 C 
HETATM   11  N   UNL     1      38.810 -12.598   1.215  1.00  0.00    -0.306 N 
HETATM   12  H   UNL     1      39.659 -12.054   1.170  1.00  0.00     0.170 HD
HETATM   13  O   UNL     1      37.969 -14.763   1.385  1.00  0.00    -0.267 OA
BRANCH  11  14
HETATM   14  C   UNL     1      37.619 -11.894   1.238  1.00  0.00     0.160 A 
HETATM   15  N   UNL     1      37.321 -10.890   2.070  1.00  0.00    -0.110 NA
HETATM   16  O   UNL     1      36.089 -10.411   1.684  1.00  0.00    -0.216 OA
HETATM   17  C   UNL     1      35.644 -11.120   0.615  1.00  0.00     0.078 A 
HETATM   18  C   UNL     1      34.361 -10.689   0.035  1.00  0.00     0.079 C 
HETATM   19  C   UNL     1      36.561 -12.097   0.315  1.00  0.00     0.087 A 
ENDBRANCH  11  14
ENDBRANCH   6  10
BRANCH   5  20
HETATM   20  C   UNL     1      41.603 -13.656  -0.219  1.00  0.00    -0.031 A 
HETATM   21  C   UNL     1      41.722 -13.676  -1.620  1.00  0.00     0.012 A 
HETATM   22  C   UNL     1      42.282 -12.594  -2.307  1.00  0.00     0.037 A 
HETATM   23  C   UNL     1      42.719 -11.483  -1.595  1.00  0.00     0.065 A 
HETATM   24  C   UNL     1      42.597 -11.432  -0.213  1.00  0.00     0.037 A 
HETATM   25  C   UNL     1      42.040 -12.512   0.474  1.00  0.00     0.012 A 
BRANCH  23  26
HETATM   26  O   UNL     1      43.279 -10.410  -2.222  1.00  0.00    -0.361 OA
HETATM   27  H   UNL     1      44.151 -10.671  -2.562  1.00  0.00     0.217 HD
ENDBRANCH  23  26
ENDBRANCH   5  20
BRANCH   1  28
HETATM   28  C   UNL     1      42.464 -15.644   4.475  1.00  0.00     0.048 A 
HETATM   29  C   UNL     1      43.409 -14.716   4.951  1.00  0.00     0.037 A 
HETATM   30  C   UNL     1      44.005 -14.872   6.208  1.00  0.00    -0.060 A 
HETATM   31  C   UNL     1      45.033 -13.890   6.686  1.00  0.00     0.048 C 
HETATM   32  C   UNL     1      43.601 -15.934   7.019  1.00  0.00     0.007 A 
HETATM   33  C   UNL     1      42.663 -16.860   6.555  1.00  0.00     0.009 A 
HETATM   34  C   UNL     1      42.104 -16.748   5.272  1.00  0.00    -0.035 A 
HETATM   35  C   UNL     1      41.161 -17.829   4.823  1.00  0.00     0.050 C 
ENDBRANCH   1  28
TORSDOF 5
ENDMDL
MODEL 8
REMARK VINA RESULT:      -7.9      3.994      7.764
REMARK  5 active torsions:
REMARK  status: ('A' for Active; 'I' for Inactive)
REMARK    1  A    between atoms: C_4  and  N_5 
REMARK    2  A    between atoms: C_9  and  C_10 
REMARK    3  A    between atoms: C_13  and  O_14 
REMARK    4  A    between atoms: C_17  and  C_18 
REMARK       I    between atoms: C_18  and  N_19 
REMARK    5  A    between atoms: N_19  and  C_20 
ROOT
HETATM    1  N   UNL     1      41.976 -15.228   1.973  1.00  0.00    -0.292 N 
HETATM    2  C   UNL     1      42.561 -14.002   2.363  1.00  0.00     0.179 C 
HETATM    3  S   UNL     1      43.567 -13.699   3.679  1.00  0.00    -0.040 SA
HETATM    4  N   UNL     1      42.331 -12.927   1.557  1.00  0.00    -0.354 N 
HETATM    5  C   UNL     1      41.371 -12.858   0.483  1.00  0.00     0.158 C 
HETATM    6  C   UNL     1      40.992 -14.232   0.037  1.00  0.00     0.060 C 
HETATM    7  C   UNL     1      41.256 -15.346   0.756  1.00  0.00     0.030 C 
HETATM    8  C   UNL     1      40.828 -16.729   0.305  1.00  0.00     0.070 C 
HETATM    9  H   UNL     1      42.747 -12.057   1.866  1.00  0.00     0.163 HD
ENDROOT
BRANCH   6  10
HETATM   10  C   UNL     1      40.481 -14.258  -1.364  1.00  0.00     0.257 C 
HETATM   11  N   UNL     1      39.119 -14.135  -1.481  1.00  0.00    -0.306 N 
HETATM   12  H   UNL     1      38.566 -13.943  -0.660  1.00  0.00     0.170 HD
HETATM   13  O   UNL     1      41.299 -14.352  -2.274  1.00  0.00    -0.267 OA
BRANCH  11  14
HETATM   14  C   UNL     1      38.429 -14.451  -2.638  1.00  0.00     0.160 A 
HETATM   15  N   UNL     1      38.566 -15.578  -3.345  1.00  0.00    -0.110 NA
HETATM   16  O   UNL     1      37.626 -15.529  -4.350  1.00  0.00    -0.216 OA
HETATM   17  C   UNL     1      36.916 -14.376  -4.248  1.00  0.00     0.078 A 
HETATM   18  C   UNL     1      35.821 -14.196  -5.215  1.00  0.00     0.079 C 
HETATM   19  C   UNL     1      37.411 -13.639  -3.200  1.00  0.00     0.087 A 
ENDBRANCH  11  14
ENDBRANCH   6  10
BRANCH   5  20
HETATM   20  C   UNL     1      40.165 -12.027   0.904  1.00  0.00    -0.031 A 
HETATM   21  C   UNL     1      39.915 -10.791   0.282  1.00  0.00     0.012 A 
HETATM   22  C   UNL     1      38.821 -10.007   0.663  1.00  0.00     0.037 A 
HETATM   23  C   UNL     1      37.969 -10.460   1.663  1.00  0.00     0.065 A 
HETATM   24  C   UNL     1      38.185 -11.684   2.281  1.00  0.00     0.037 A 
HETATM   25  C   UNL     1      39.278 -12.467   1.903  1.00  0.00     0.012 A 
BRANCH  23  26
HETATM   26  O   UNL     1      36.897  -9.724   2.073  1.00  0.00    -0.361 OA
HETATM   27  H   UNL     1      36.990  -8.822   1.727  1.00  0.00     0.217 HD
ENDBRANCH  23  26
ENDBRANCH   5  20
BRANCH   1  28
HETATM   28  C   UNL     1      42.215 -16.375   2.808  1.00  0.00     0.048 A 
HETATM   29  C   UNL     1      41.387 -16.547   3.933  1.00  0.00     0.037 A 
HETATM   30  C   UNL     1      41.567 -17.627   4.804  1.00  0.00    -0.060 A 
HETATM   31  C   UNL     1      40.696 -17.778   6.015  1.00  0.00     0.048 C 
HETATM   32  C   UNL     1      42.547 -18.576   4.509  1.00  0.00     0.007 A 
HETATM   33  C   UNL     1      43.374 -18.415   3.394  1.00  0.00     0.009 A 
HETATM   34  C   UNL     1      43.242 -17.303   2.547  1.00  0.00    -0.035 A 
HETATM   35  C   UNL     1      44.222 -17.165   1.415  1.00  0.00     0.050 C 
ENDBRANCH   1  28
TORSDOF 5
ENDMDL
MODEL 9
REMARK VINA RESULT:      -7.6      3.968      7.443
REMARK  5 active torsions:
REMARK  status: ('A' for Active; 'I' for Inactive)
REMARK    1  A    between atoms: C_4  and  N_5 
REMARK    2  A    between atoms: C_9  and  C_10 
REMARK    3  A    between atoms: C_13  and  O_14 
REMARK    4  A    between atoms: C_17  and  C_18 
REMARK       I    between atoms: C_18  and  N_19 
REMARK    5  A    between atoms: N_19  and  C_20 
ROOT
HETATM    1  N   UNL     1      42.063 -14.463   4.573  1.00  0.00    -0.292 N 
HETATM    2  C   UNL     1      42.942 -13.812   5.468  1.00  0.00     0.179 C 
HETATM    3  S   UNL     1      44.252 -14.463   6.301  1.00  0.00    -0.040 SA
HETATM    4  N   UNL     1      42.748 -12.476   5.657  1.00  0.00    -0.354 N 
HETATM    5  C   UNL     1      41.606 -11.711   5.222  1.00  0.00     0.158 C 
HETATM    6  C   UNL     1      40.883 -12.432   4.132  1.00  0.00     0.060 C 
HETATM    7  C   UNL     1      41.083 -13.739   3.846  1.00  0.00     0.030 C 
HETATM    8  C   UNL     1      40.311 -14.464   2.761  1.00  0.00     0.070 C 
HETATM    9  H   UNL     1      43.380 -12.035   6.314  1.00  0.00     0.163 HD
ENDROOT
BRANCH   6  10
HETATM   10  C   UNL     1      40.080 -11.514   3.273  1.00  0.00     0.257 C 
HETATM   11  N   UNL     1      38.722 -11.599   3.456  1.00  0.00    -0.306 N 
HETATM   12  H   UNL     1      38.356 -12.179   4.196  1.00  0.00     0.170 HD
HETATM   13  O   UNL     1      40.682 -10.758   2.519  1.00  0.00    -0.267 OA
BRANCH  11  14
HETATM   14  C   UNL     1      37.806 -11.083   2.556  1.00  0.00     0.160 A 
HETATM   15  N   UNL     1      37.190  -9.901   2.661  1.00  0.00    -0.110 NA
HETATM   16  O   UNL     1      36.450  -9.740   1.510  1.00  0.00    -0.216 OA
HETATM   17  C   UNL     1      36.624 -10.820   0.707  1.00  0.00     0.078 A 
HETATM   18  C   UNL     1      35.948 -10.776  -0.600  1.00  0.00     0.079 C 
HETATM   19  C   UNL     1      37.446 -11.719   1.340  1.00  0.00     0.087 A 
ENDBRANCH  11  14
ENDBRANCH   6  10
BRANCH   5  20
HETATM   20  C   UNL     1      40.703 -11.387   6.406  1.00  0.00    -0.031 A 
HETATM   21  C   UNL     1      40.688 -10.086   6.940  1.00  0.00     0.012 A 
HETATM   22  C   UNL     1      39.877  -9.772   8.035  1.00  0.00     0.037 A 
HETATM   23  C   UNL     1      39.073 -10.757   8.597  1.00  0.00     0.065 A 
HETATM   24  C   UNL     1      39.058 -12.045   8.078  1.00  0.00     0.037 A 
HETATM   25  C   UNL     1      39.868 -12.360   6.986  1.00  0.00     0.012 A 
BRANCH  23  26
HETATM   26  O   UNL     1      38.274 -10.498   9.671  1.00  0.00    -0.361 OA
HETATM   27  H   UNL     1      37.430 -10.964   9.549  1.00  0.00     0.217 HD
ENDBRANCH  23  26
ENDBRANCH   5  20
BRANCH   1  28
HETATM   28  C   UNL     1      42.258 -15.872   4.355  1.00  0.00     0.048 A 
HETATM   29  C   UNL     1      43.083 -16.257   3.280  1.00  0.00     0.037 A 
HETATM   30  C   UNL     1      43.308 -17.607   2.991  1.00  0.00    -0.060 A 
HETATM   31  C   UNL     1      44.164 -18.000   1.824  1.00  0.00     0.048 C 
HETATM   32  C   UNL     1      42.751 -18.578   3.826  1.00  0.00     0.007 A 
HETATM   33  C   UNL     1      41.932 -18.205   4.895  1.00  0.00     0.009 A 
HETATM   34  C   UNL     1      41.650 -16.855   5.158  1.00  0.00    -0.035 A 
HETATM   35  C   UNL     1      40.698 -16.545   6.279  1.00  0.00     0.050 C 
ENDBRANCH   1  28
TORSDOF 5
ENDMDL
MODEL 10
REMARK VINA RESULT:      -7.4      2.553      3.567
REMARK  5 active torsions:
REMARK  status: ('A' for Active; 'I' for Inactive)
REMARK    1  A    between atoms: C_4  and  N_5 
REMARK    2  A    between atoms: C_9  and  C_10 
REMARK    3  A    between atoms: C_13  and  O_14 
REMARK    4  A    between atoms: C_17  and  C_18 
REMARK       I    between atoms: C_18  and  N_19 
REMARK    5  A    between atoms: N_19  and  C_20 
ROOT
HETATM    1  N   UNL     1      40.551 -13.675   1.231  1.00  0.00    -0.292 N 
HETATM    2  C   UNL     1      39.371 -12.978   1.577  1.00  0.00     0.179 C 
HETATM    3  S   UNL     1      38.314 -12.149   0.563  1.00  0.00    -0.040 SA
HETATM    4  N   UNL     1      39.001 -13.010   2.889  1.00  0.00    -0.354 N 
HETATM    5  C   UNL     1      39.805 -13.482   3.990  1.00  0.00     0.158 C 
HETATM    6  C   UNL     1      40.896 -14.370   3.490  1.00  0.00     0.060 C 
HETATM    7  C   UNL     1      41.263 -14.439   2.190  1.00  0.00     0.030 C 
HETATM    8  C   UNL     1      42.401 -15.318   1.709  1.00  0.00     0.070 C 
HETATM    9  H   UNL     1      38.162 -12.490   3.115  1.00  0.00     0.163 HD
ENDROOT
BRANCH   6  10
HETATM   10  C   UNL     1      41.392 -15.311   4.537  1.00  0.00     0.257 C 
HETATM   11  N   UNL     1      42.754 -15.478   4.560  1.00  0.00    -0.306 N 
HETATM   12  H   UNL     1      43.334 -14.910   3.962  1.00  0.00     0.170 HD
HETATM   13  O   UNL     1      40.569 -15.819   5.291  1.00  0.00    -0.267 OA
BRANCH  11  14
HETATM   14  C   UNL     1      43.375 -16.524   5.220  1.00  0.00     0.160 A 
HETATM   15  N   UNL     1      44.054 -16.429   6.368  1.00  0.00    -0.110 NA
HETATM   16  O   UNL     1      44.412 -17.712   6.721  1.00  0.00    -0.216 OA
HETATM   17  C   UNL     1      43.944 -18.583   5.790  1.00  0.00     0.078 A 
HETATM   18  C   UNL     1      44.187 -20.010   6.054  1.00  0.00     0.079 C 
HETATM   19  C   UNL     1      43.311 -17.877   4.797  1.00  0.00     0.087 A 
ENDBRANCH  11  14
ENDBRANCH   6  10
BRANCH   5  20
HETATM   20  C   UNL     1      40.334 -12.306   4.801  1.00  0.00    -0.031 A 
HETATM   21  C   UNL     1      40.967 -11.234   4.149  1.00  0.00     0.012 A 
HETATM   22  C   UNL     1      41.472 -10.151   4.876  1.00  0.00     0.037 A 
HETATM   23  C   UNL     1      41.339 -10.134   6.260  1.00  0.00     0.065 A 
HETATM   24  C   UNL     1      40.703 -11.174   6.926  1.00  0.00     0.037 A 
HETATM   25  C   UNL     1      40.201 -12.255   6.201  1.00  0.00     0.012 A 
BRANCH  23  26
HETATM   26  O   UNL     1      41.825  -9.104   7.010  1.00  0.00    -0.361 OA
HETATM   27  H   UNL     1      41.225  -8.958   7.760  1.00  0.00     0.217 HD
ENDBRANCH  23  26
ENDBRANCH   5  20
BRANCH   1  28
HETATM   28  C   UNL     1      40.951 -13.659  -0.151  1.00  0.00     0.048 A 
HETATM   29  C   UNL     1      40.493 -14.705  -0.975  1.00  0.00     0.037 A 
HETATM   30  C   UNL     1      40.853 -14.771  -2.325  1.00  0.00    -0.060 A 
HETATM   31  C   UNL     1      40.381 -15.909  -3.181  1.00  0.00     0.048 C 
HETATM   32  C   UNL     1      41.628 -13.745  -2.868  1.00  0.00     0.007 A 
HETATM   33  C   UNL     1      42.088 -12.702  -2.058  1.00  0.00     0.009 A 
HETATM   34  C   UNL     1      41.783 -12.658  -0.688  1.00  0.00    -0.035 A 
HETATM   35  C   UNL     1      42.381 -11.545   0.126  1.00  0.00     0.050 C 
ENDBRANCH   1  28
TORSDOF 5
ENDMDL
