MODEL 1
REMARK VINA RESULT:      -8.7      0.000      0.000
REMARK  5 active torsions:
REMARK  status: ('A' for Active; 'I' for Inactive)
REMARK    1  A    between atoms: C_9  and  C_10 
REMARK       I    between atoms: C_10  and  N_11 
REMARK    2  A    between atoms: N_11  and  C_12 
REMARK    3  A    between atoms: C_15  and  C_16 
REMARK    4  A    between atoms: C_16  and  C_17 
REMARK       I    between atoms: C_17  and  N_18 
REMARK    5  A    between atoms: N_18  and  C_19 
ROOT
HETATM    1  C   UNL     1      43.222 -16.531   3.353  1.00  0.00     0.277 C 
HETATM    2  N   UNL     1      41.969 -16.797   2.830  1.00  0.00    -0.322 N 
HETATM    3  O   UNL     1      43.873 -15.505   3.193  1.00  0.00    -0.266 OA
HETATM    4  H   UNL     1      41.628 -17.725   3.075  1.00  0.00     0.169 HD
ENDROOT
BRANCH   2   5
HETATM    5  C   UNL     1      41.073 -15.911   2.212  1.00  0.00     0.035 A 
HETATM    6  C   UNL     1      39.932 -15.396   2.828  1.00  0.00     0.030 A 
HETATM    7  C   UNL     1      39.010 -14.637   2.094  1.00  0.00     0.010 A 
HETATM    8  C   UNL     1      39.218 -14.382   0.734  1.00  0.00    -0.049 A 
HETATM    9  C   UNL     1      40.398 -14.840   0.136  1.00  0.00     0.010 A 
HETATM   10  C   UNL     1      41.317 -15.595   0.871  1.00  0.00     0.030 A 
BRANCH   8  11
HETATM   11  C   UNL     1      38.159 -13.694  -0.095  1.00  0.00     0.141 C 
BRANCH  11  12
HETATM   12  C   UNL     1      38.370 -13.626  -1.596  1.00  0.00     0.222 C 
HETATM   13  N   UNL     1      38.068 -14.760  -2.315  1.00  0.00    -0.357 N 
HETATM   14  H   UNL     1      37.824 -15.601  -1.806  1.00  0.00     0.162 HD
HETATM   15  O   UNL     1      38.707 -12.567  -2.125  1.00  0.00    -0.273 OA
BRANCH  13  16
HETATM   16  C   UNL     1      38.081 -14.833  -3.772  1.00  0.00     0.076 C 
HETATM   17  C   UNL     1      38.753 -16.112  -4.269  1.00  0.00     0.032 C 
HETATM   18  C   UNL     1      36.696 -14.651  -4.388  1.00  0.00     0.032 C 
ENDBRANCH  13  16
ENDBRANCH  11  12
ENDBRANCH   8  11
ENDBRANCH   2   5
BRANCH   1  19
HETATM   19  C   UNL     1      43.695 -17.643   4.203  1.00  0.00     0.157 A 
HETATM   20  C   UNL     1      43.942 -18.993   3.813  1.00  0.00     0.029 A 
HETATM   21  C   UNL     1      43.818 -19.749   2.629  1.00  0.00     0.023 A 
HETATM   22  C   UNL     1      44.452 -19.609   4.948  1.00  0.00     0.063 A 
HETATM   23  C   UNL     1      44.215 -21.097   2.623  1.00  0.00    -0.061 A 
HETATM   24  C   UNL     1      44.096 -21.921   1.373  1.00  0.00     0.048 C 
HETATM   25  C   UNL     1      44.730 -21.677   3.789  1.00  0.00     0.009 A 
HETATM   26  C   UNL     1      44.857 -20.947   4.977  1.00  0.00     0.032 A 
HETATM   27  N   UNL     1      44.456 -18.643   5.914  1.00  0.00    -0.277 N 
HETATM   28  H   UNL     1      44.765 -18.740   6.875  1.00  0.00     0.189 HD
HETATM   29  N   UNL     1      44.013 -17.440   5.503  1.00  0.00    -0.168 NA
ENDBRANCH   1  19
TORSDOF 5
ENDMDL
MODEL 2
REMARK VINA RESULT:      -8.6      5.665      9.247
REMARK  5 active torsions:
REMARK  status: ('A' for Active; 'I' for Inactive)
REMARK    1  A    between atoms: C_9  and  C_10 
REMARK       I    between atoms: C_10  and  N_11 
REMARK    2  A    between atoms: N_11  and  C_12 
REMARK    3  A    between atoms: C_15  and  C_16 
REMARK    4  A    between atoms: C_16  and  C_17 
REMARK       I    between atoms: C_17  and  N_18 
REMARK    5  A    between atoms: N_18  and  C_19 
ROOT
HETATM    1  C   UNL     1      45.100 -13.257   7.920  1.00  0.00     0.277 C 
HETATM    2  N   UNL     1      44.087 -14.177   7.716  1.00  0.00    -0.322 N 
HETATM    3  O   UNL     1      46.096 -13.106   7.222  1.00  0.00    -0.266 OA
HETATM    4  H   UNL     1      43.369 -14.139   8.437  1.00  0.00     0.169 HD
ENDROOT
BRANCH   2   5
HETATM    5  C   UNL     1      43.839 -14.967   6.583  1.00  0.00     0.035 A 
HETATM    6  C   UNL     1      43.130 -14.529   5.464  1.00  0.00     0.030 A 
HETATM    7  C   UNL     1      42.796 -15.425   4.439  1.00  0.00     0.010 A 
HETATM    8  C   UNL     1      43.169 -16.772   4.519  1.00  0.00    -0.049 A 
HETATM    9  C   UNL     1      43.940 -17.192   5.609  1.00  0.00     0.010 A 
HETATM   10  C   UNL     1      44.274 -16.296   6.629  1.00  0.00     0.030 A 
BRANCH   8  11
HETATM   11  C   UNL     1      42.685 -17.771   3.495  1.00  0.00     0.141 C 
BRANCH  11  12
HETATM   12  C   UNL     1      43.694 -18.756   2.937  1.00  0.00     0.222 C 
HETATM   13  N   UNL     1      43.710 -20.011   3.503  1.00  0.00    -0.357 N 
HETATM   14  H   UNL     1      43.131 -20.179   4.316  1.00  0.00     0.162 HD
HETATM   15  O   UNL     1      44.386 -18.450   1.967  1.00  0.00    -0.273 OA
BRANCH  13  16
HETATM   16  C   UNL     1      44.515 -21.122   3.007  1.00  0.00     0.076 C 
HETATM   17  C   UNL     1      44.784 -22.158   4.097  1.00  0.00     0.032 C 
HETATM   18  C   UNL     1      43.930 -21.766   1.753  1.00  0.00     0.032 C 
ENDBRANCH  13  16
ENDBRANCH  11  12
ENDBRANCH   8  11
ENDBRANCH   2   5
BRANCH   1  19
HETATM   19  C   UNL     1      44.822 -12.404   9.094  1.00  0.00     0.157 A 
HETATM   20  C   UNL     1      43.778 -11.444   9.244  1.00  0.00     0.029 A 
HETATM   21  C   UNL     1      42.738 -10.937   8.438  1.00  0.00     0.023 A 
HETATM   22  C   UNL     1      43.895 -10.983  10.549  1.00  0.00     0.063 A 
HETATM   23  C   UNL     1      41.847  -9.989   8.970  1.00  0.00    -0.061 A 
HETATM   24  C   UNL     1      40.730  -9.439   8.132  1.00  0.00     0.048 C 
HETATM   25  C   UNL     1      42.000  -9.557  10.293  1.00  0.00     0.009 A 
HETATM   26  C   UNL     1      43.027 -10.042  11.110  1.00  0.00     0.032 A 
HETATM   27  N   UNL     1      44.970 -11.645  11.071  1.00  0.00    -0.277 N 
HETATM   28  H   UNL     1      45.348 -11.555  12.008  1.00  0.00     0.189 HD
HETATM   29  N   UNL     1      45.554 -12.517  10.227  1.00  0.00    -0.168 NA
ENDBRANCH   1  19
TORSDOF 5
ENDMDL
MODEL 3
REMARK VINA RESULT:      -8.2      2.934      3.530
REMARK  5 active torsions:
REMARK  status: ('A' for Active; 'I' for Inactive)
REMARK    1  A    between atoms: C_9  and  C_10 
REMARK       I    between atoms: C_10  and  N_11 
REMARK    2  A    between atoms: N_11  and  C_12 
REMARK    3  A    between atoms: C_15  and  C_16 
REMARK    4  A    between atoms: C_16  and  C_17 
REMARK       I    between atoms: C_17  and  N_18 
REMARK    5  A    between atoms: N_18  and  C_19 
ROOT
HETATM    1  C   UNL     1      41.507 -16.750   2.422  1.00  0.00     0.277 C 
HETATM    2  N   UNL     1      42.178 -15.958   1.507  1.00  0.00    -0.322 N 
HETATM    3  O   UNL     1      40.302 -16.975   2.445  1.00  0.00    -0.266 OA
HETATM    4  H   UNL     1      43.176 -15.896   1.697  1.00  0.00     0.169 HD
ENDROOT
BRANCH   2   5
HETATM    5  C   UNL     1      41.704 -15.429   0.296  1.00  0.00     0.035 A 
HETATM    6  C   UNL     1      41.263 -16.205  -0.776  1.00  0.00     0.030 A 
HETATM    7  C   UNL     1      40.948 -15.606  -2.004  1.00  0.00     0.010 A 
HETATM    8  C   UNL     1      41.070 -14.222  -2.174  1.00  0.00    -0.049 A 
HETATM    9  C   UNL     1      41.445 -13.439  -1.076  1.00  0.00     0.010 A 
HETATM   10  C   UNL     1      41.756 -14.039   0.148  1.00  0.00     0.030 A 
BRANCH   8  11
HETATM   11  C   UNL     1      40.877 -13.590  -3.532  1.00  0.00     0.141 C 
BRANCH  11  12
HETATM   12  C   UNL     1      40.744 -12.081  -3.597  1.00  0.00     0.222 C 
HETATM   13  N   UNL     1      41.892 -11.370  -3.865  1.00  0.00    -0.357 N 
HETATM   14  H   UNL     1      42.771 -11.873  -3.902  1.00  0.00     0.162 HD
HETATM   15  O   UNL     1      39.637 -11.552  -3.503  1.00  0.00    -0.273 OA
BRANCH  13  16
HETATM   16  C   UNL     1      41.929  -9.931  -4.097  1.00  0.00     0.076 C 
HETATM   17  C   UNL     1      42.645  -9.193  -2.966  1.00  0.00     0.032 C 
HETATM   18  C   UNL     1      42.509  -9.563  -5.460  1.00  0.00     0.032 C 
ENDBRANCH  13  16
ENDBRANCH  11  12
ENDBRANCH   8  11
ENDBRANCH   2   5
BRANCH   1  19
HETATM   19  C   UNL     1      42.443 -17.367   3.386  1.00  0.00     0.157 A 
HETATM   20  C   UNL     1      43.133 -18.608   3.256  1.00  0.00     0.029 A 
HETATM   21  C   UNL     1      43.180 -19.652   2.310  1.00  0.00     0.023 A 
HETATM   22  C   UNL     1      43.948 -18.687   4.378  1.00  0.00     0.063 A 
HETATM   23  C   UNL     1      44.047 -20.739   2.518  1.00  0.00    -0.061 A 
HETATM   24  C   UNL     1      44.117 -21.860   1.523  1.00  0.00     0.048 C 
HETATM   25  C   UNL     1      44.855 -20.775   3.662  1.00  0.00     0.009 A 
HETATM   26  C   UNL     1      44.821 -19.752   4.617  1.00  0.00     0.032 A 
HETATM   27  N   UNL     1      43.689 -17.552   5.094  1.00  0.00    -0.277 N 
HETATM   28  H   UNL     1      44.108 -17.277   5.975  1.00  0.00     0.189 HD
HETATM   29  N   UNL     1      42.792 -16.725   4.526  1.00  0.00    -0.168 NA
ENDBRANCH   1  19
TORSDOF 5
ENDMDL
MODEL 4
REMARK VINA RESULT:      -8.1      1.913      2.590
REMARK  5 active torsions:
REMARK  status: ('A' for Active; 'I' for Inactive)
REMARK    1  A    between atoms: C_9  and  C_10 
REMARK       I    between atoms: C_10  and  N_11 
REMARK    2  A    between atoms: N_11  and  C_12 
REMARK    3  A    between atoms: C_15  and  C_16 
REMARK    4  A    between atoms: C_16  and  C_17 
REMARK       I    between atoms: C_17  and  N_18 
REMARK    5  A    between atoms: N_18  and  C_19 
ROOT
HETATM    1  C   UNL     1      41.410 -16.632   2.234  1.00  0.00     0.277 C 
HETATM    2  N   UNL     1      42.071 -15.743   1.406  1.00  0.00    -0.322 N 
HETATM    3  O   UNL     1      40.228 -16.951   2.164  1.00  0.00    -0.266 OA
HETATM    4  H   UNL     1      43.047 -15.613   1.666  1.00  0.00     0.169 HD
ENDROOT
BRANCH   2   5
HETATM    5  C   UNL     1      41.634 -15.190   0.192  1.00  0.00     0.035 A 
HETATM    6  C   UNL     1      41.288 -13.849   0.024  1.00  0.00     0.030 A 
HETATM    7  C   UNL     1      40.718 -13.408  -1.179  1.00  0.00     0.010 A 
HETATM    8  C   UNL     1      40.489 -14.304  -2.230  1.00  0.00    -0.049 A 
HETATM    9  C   UNL     1      40.902 -15.634  -2.083  1.00  0.00     0.010 A 
HETATM   10  C   UNL     1      41.472 -16.070  -0.884  1.00  0.00     0.030 A 
BRANCH   8  11
HETATM   11  C   UNL     1      39.741 -13.869  -3.468  1.00  0.00     0.141 C 
BRANCH  11  12
HETATM   12  C   UNL     1      38.234 -13.724  -3.370  1.00  0.00     0.222 C 
HETATM   13  N   UNL     1      37.666 -12.684  -4.069  1.00  0.00    -0.357 N 
HETATM   14  H   UNL     1      38.279 -12.018  -4.522  1.00  0.00     0.162 HD
HETATM   15  O   UNL     1      37.571 -14.565  -2.763  1.00  0.00    -0.273 OA
BRANCH  13  16
HETATM   16  C   UNL     1      36.228 -12.474  -4.199  1.00  0.00     0.076 C 
HETATM   17  C   UNL     1      35.705 -11.479  -3.164  1.00  0.00     0.032 C 
HETATM   18  C   UNL     1      35.811 -12.081  -5.614  1.00  0.00     0.032 C 
ENDBRANCH  13  16
ENDBRANCH  11  12
ENDBRANCH   8  11
ENDBRANCH   2   5
BRANCH   1  19
HETATM   19  C   UNL     1      42.330 -17.223   3.229  1.00  0.00     0.157 A 
HETATM   20  C   UNL     1      43.025 -18.465   3.140  1.00  0.00     0.029 A 
HETATM   21  C   UNL     1      43.093 -19.531   2.219  1.00  0.00     0.023 A 
HETATM   22  C   UNL     1      43.819 -18.516   4.279  1.00  0.00     0.063 A 
HETATM   23  C   UNL     1      43.959 -20.609   2.469  1.00  0.00    -0.061 A 
HETATM   24  C   UNL     1      44.051 -21.752   1.500  1.00  0.00     0.048 C 
HETATM   25  C   UNL     1      44.746 -20.616   3.628  1.00  0.00     0.009 A 
HETATM   26  C   UNL     1      44.691 -19.572   4.558  1.00  0.00     0.032 A 
HETATM   27  N   UNL     1      43.544 -17.366   4.964  1.00  0.00    -0.277 N 
HETATM   28  H   UNL     1      43.945 -17.069   5.846  1.00  0.00     0.189 HD
HETATM   29  N   UNL     1      42.655 -16.555   4.360  1.00  0.00    -0.168 NA
ENDBRANCH   1  19
TORSDOF 5
ENDMDL
MODEL 5
REMARK VINA RESULT:      -8.1      4.971      7.273
REMARK  5 active torsions:
REMARK  status: ('A' for Active; 'I' for Inactive)
REMARK    1  A    between atoms: C_9  and  C_10 
REMARK       I    between atoms: C_10  and  N_11 
REMARK    2  A    between atoms: N_11  and  C_12 
REMARK    3  A    between atoms: C_15  and  C_16 
REMARK    4  A    between atoms: C_16  and  C_17 
REMARK       I    between atoms: C_17  and  N_18 
REMARK    5  A    between atoms: N_18  and  C_19 
ROOT
HETATM    1  C   UNL     1      43.268 -16.865   4.312  1.00  0.00     0.277 C 
HETATM    2  N   UNL     1      42.470 -15.813   3.899  1.00  0.00    -0.322 N 
HETATM    3  O   UNL     1      43.772 -17.005   5.420  1.00  0.00    -0.266 OA
HETATM    4  H   UNL     1      42.182 -15.895   2.926  1.00  0.00     0.169 HD
ENDROOT
BRANCH   2   5
HETATM    5  C   UNL     1      41.874 -14.810   4.680  1.00  0.00     0.035 A 
HETATM    6  C   UNL     1      40.607 -14.917   5.256  1.00  0.00     0.030 A 
HETATM    7  C   UNL     1      40.022 -13.815   5.894  1.00  0.00     0.010 A 
HETATM    8  C   UNL     1      40.696 -12.590   5.964  1.00  0.00    -0.049 A 
HETATM    9  C   UNL     1      41.994 -12.506   5.447  1.00  0.00     0.010 A 
HETATM   10  C   UNL     1      42.577 -13.608   4.813  1.00  0.00     0.030 A 
BRANCH   8  11
HETATM   11  C   UNL     1      40.013 -11.361   6.516  1.00  0.00     0.141 C 
BRANCH  11  12
HETATM   12  C   UNL     1      39.952 -11.203   8.023  1.00  0.00     0.222 C 
HETATM   13  N   UNL     1      41.147 -10.986   8.670  1.00  0.00    -0.357 N 
HETATM   14  H   UNL     1      42.003 -11.045   8.132  1.00  0.00     0.162 HD
HETATM   15  O   UNL     1      38.865 -11.181   8.599  1.00  0.00    -0.273 OA
BRANCH  13  16
HETATM   16  C   UNL     1      41.264 -10.678  10.091  1.00  0.00     0.076 C 
HETATM   17  C   UNL     1      42.589 -11.173  10.671  1.00  0.00     0.032 C 
HETATM   18  C   UNL     1      41.035  -9.201  10.399  1.00  0.00     0.032 C 
ENDBRANCH  13  16
ENDBRANCH  11  12
ENDBRANCH   8  11
ENDBRANCH   2   5
BRANCH   1  19
HETATM   19  C   UNL     1      43.417 -17.876   3.244  1.00  0.00     0.157 A 
HETATM   20  C   UNL     1      43.866 -19.223   3.377  1.00  0.00     0.029 A 
HETATM   21  C   UNL     1      44.334 -20.040   4.426  1.00  0.00     0.023 A 
HETATM   22  C   UNL     1      43.741 -19.773   2.108  1.00  0.00     0.063 A 
HETATM   23  C   UNL     1      44.656 -21.384   4.167  1.00  0.00    -0.061 A 
HETATM   24  C   UNL     1      45.152 -22.274   5.269  1.00  0.00     0.048 C 
HETATM   25  C   UNL     1      44.510 -21.898   2.873  1.00  0.00     0.009 A 
HETATM   26  C   UNL     1      44.052 -21.103   1.815  1.00  0.00     0.032 A 
HETATM   27  N   UNL     1      43.271 -18.760   1.320  1.00  0.00    -0.277 N 
HETATM   28  H   UNL     1      43.062 -18.803   0.328  1.00  0.00     0.189 HD
HETATM   29  N   UNL     1      43.056 -17.600   1.969  1.00  0.00    -0.168 NA
ENDBRANCH   1  19
TORSDOF 5
ENDMDL
MODEL 6
REMARK VINA RESULT:      -7.8      5.960      9.000
REMARK  5 active torsions:
REMARK  status: ('A' for Active; 'I' for Inactive)
REMARK    1  A    between atoms: C_9  and  C_10 
REMARK       I    between atoms: C_10  and  N_11 
REMARK    2  A    between atoms: N_11  and  C_12 
REMARK    3  A    between atoms: C_15  and  C_16 
REMARK    4  A    between atoms: C_16  and  C_17 
REMARK       I    between atoms: C_17  and  N_18 
REMARK    5  A    between atoms: N_18  and  C_19 
ROOT
HETATM    1  C   UNL     1      41.599 -11.591   6.343  1.00  0.00     0.277 C 
HETATM    2  N   UNL     1      42.138 -12.852   6.523  1.00  0.00    -0.322 N 
HETATM    3  O   UNL     1      41.328 -11.062   5.270  1.00  0.00    -0.266 OA
HETATM    4  H   UNL     1      42.302 -13.074   7.503  1.00  0.00     0.169 HD
ENDROOT
BRANCH   2   5
HETATM    5  C   UNL     1      42.282 -13.884   5.582  1.00  0.00     0.035 A 
HETATM    6  C   UNL     1      43.338 -13.973   4.674  1.00  0.00     0.030 A 
HETATM    7  C   UNL     1      43.329 -14.949   3.668  1.00  0.00     0.010 A 
HETATM    8  C   UNL     1      42.263 -15.850   3.558  1.00  0.00    -0.049 A 
HETATM    9  C   UNL     1      41.240 -15.802   4.512  1.00  0.00     0.010 A 
HETATM   10  C   UNL     1      41.253 -14.829   5.516  1.00  0.00     0.030 A 
BRANCH   8  11
HETATM   11  C   UNL     1      42.175 -16.804   2.390  1.00  0.00     0.141 C 
BRANCH  11  12
HETATM   12  C   UNL     1      43.343 -17.742   2.153  1.00  0.00     0.222 C 
HETATM   13  N   UNL     1      43.333 -18.930   2.846  1.00  0.00    -0.357 N 
HETATM   14  H   UNL     1      42.613 -19.073   3.545  1.00  0.00     0.162 HD
HETATM   15  O   UNL     1      44.195 -17.467   1.308  1.00  0.00    -0.273 OA
BRANCH  13  16
HETATM   16  C   UNL     1      44.298 -20.005   2.644  1.00  0.00     0.076 C 
HETATM   17  C   UNL     1      44.924 -20.461   3.961  1.00  0.00     0.032 C 
HETATM   18  C   UNL     1      43.721 -21.182   1.861  1.00  0.00     0.032 C 
ENDBRANCH  13  16
ENDBRANCH  11  12
ENDBRANCH   8  11
ENDBRANCH   2   5
BRANCH   1  19
HETATM   19  C   UNL     1      41.327 -10.934   7.638  1.00  0.00     0.157 A 
HETATM   20  C   UNL     1      42.224 -10.767   8.734  1.00  0.00     0.029 A 
HETATM   21  C   UNL     1      43.552 -11.140   9.029  1.00  0.00     0.023 A 
HETATM   22  C   UNL     1      41.519 -10.016   9.667  1.00  0.00     0.063 A 
HETATM   23  C   UNL     1      44.129 -10.742  10.247  1.00  0.00    -0.061 A 
HETATM   24  C   UNL     1      45.542 -11.124  10.581  1.00  0.00     0.048 C 
HETATM   25  C   UNL     1      43.383  -9.981  11.156  1.00  0.00     0.009 A 
HETATM   26  C   UNL     1      42.063  -9.604  10.886  1.00  0.00     0.032 A 
HETATM   27  N   UNL     1      40.289  -9.810   9.109  1.00  0.00    -0.277 N 
HETATM   28  H   UNL     1      39.513  -9.298   9.514  1.00  0.00     0.189 HD
HETATM   29  N   UNL     1      40.134 -10.342   7.882  1.00  0.00    -0.168 NA
ENDBRANCH   1  19
TORSDOF 5
ENDMDL
MODEL 7
REMARK VINA RESULT:      -7.7      1.460      1.598
REMARK  5 active torsions:
REMARK  status: ('A' for Active; 'I' for Inactive)
REMARK    1  A    between atoms: C_9  and  C_10 
REMARK       I    between atoms: C_10  and  N_11 
REMARK    2  A    between atoms: N_11  and  C_12 
REMARK    3  A    between atoms: C_15  and  C_16 
REMARK    4  A    between atoms: C_16  and  C_17 
REMARK       I    between atoms: C_17  and  N_18 
REMARK    5  A    between atoms: N_18  and  C_19 
ROOT
HETATM    1  C   UNL     1      41.763 -16.180   5.083  1.00  0.00     0.277 C 
HETATM    2  N   UNL     1      41.920 -15.661   3.811  1.00  0.00    -0.322 N 
HETATM    3  O   UNL     1      40.815 -15.985   5.836  1.00  0.00    -0.266 OA
HETATM    4  H   UNL     1      42.799 -15.940   3.378  1.00  0.00     0.169 HD
ENDROOT
BRANCH   2   5
HETATM    5  C   UNL     1      40.972 -15.005   3.011  1.00  0.00     0.035 A 
HETATM    6  C   UNL     1      39.794 -15.596   2.550  1.00  0.00     0.030 A 
HETATM    7  C   UNL     1      38.974 -14.924   1.634  1.00  0.00     0.010 A 
HETATM    8  C   UNL     1      39.320 -13.651   1.166  1.00  0.00    -0.049 A 
HETATM    9  C   UNL     1      40.465 -13.033   1.683  1.00  0.00     0.010 A 
HETATM   10  C   UNL     1      41.280 -13.704   2.599  1.00  0.00     0.030 A 
BRANCH   8  11
HETATM   11  C   UNL     1      38.523 -12.987   0.068  1.00  0.00     0.141 C 
BRANCH  11  12
HETATM   12  C   UNL     1      38.962 -13.219  -1.365  1.00  0.00     0.222 C 
HETATM   13  N   UNL     1      38.963 -14.522  -1.808  1.00  0.00    -0.357 N 
HETATM   14  H   UNL     1      38.773 -15.257  -1.138  1.00  0.00     0.162 HD
HETATM   15  O   UNL     1      39.211 -12.262  -2.098  1.00  0.00    -0.273 OA
BRANCH  13  16
HETATM   16  C   UNL     1      39.225 -14.917  -3.187  1.00  0.00     0.076 C 
HETATM   17  C   UNL     1      40.254 -16.044  -3.269  1.00  0.00     0.032 C 
HETATM   18  C   UNL     1      37.952 -15.264  -3.957  1.00  0.00     0.032 C 
ENDBRANCH  13  16
ENDBRANCH  11  12
ENDBRANCH   8  11
ENDBRANCH   2   5
BRANCH   1  19
HETATM   19  C   UNL     1      42.884 -17.075   5.440  1.00  0.00     0.157 A 
HETATM   20  C   UNL     1      43.379 -18.188   4.698  1.00  0.00     0.029 A 
HETATM   21  C   UNL     1      43.035 -18.846   3.500  1.00  0.00     0.023 A 
HETATM   22  C   UNL     1      44.485 -18.633   5.411  1.00  0.00     0.063 A 
HETATM   23  C   UNL     1      43.816 -19.926   3.053  1.00  0.00    -0.061 A 
HETATM   24  C   UNL     1      43.471 -20.639   1.778  1.00  0.00     0.048 C 
HETATM   25  C   UNL     1      44.926 -20.338   3.801  1.00  0.00     0.009 A 
HETATM   26  C   UNL     1      45.283 -19.703   4.996  1.00  0.00     0.032 A 
HETATM   27  N   UNL     1      44.567 -17.814   6.501  1.00  0.00    -0.277 N 
HETATM   28  H   UNL     1      45.258 -17.850   7.242  1.00  0.00     0.189 HD
HETATM   29  N   UNL     1      43.623 -16.856   6.553  1.00  0.00    -0.168 NA
ENDBRANCH   1  19
TORSDOF 5
ENDMDL
MODEL 8
REMARK VINA RESULT:      -7.7      2.931      4.226
REMARK  5 active torsions:
REMARK  status: ('A' for Active; 'I' for Inactive)
REMARK    1  A    between atoms: C_9  and  C_10 
REMARK       I    between atoms: C_10  and  N_11 
REMARK    2  A    between atoms: N_11  and  C_12 
REMARK    3  A    between atoms: C_15  and  C_16 
REMARK    4  A    between atoms: C_16  and  C_17 
REMARK       I    between atoms: C_17  and  N_18 
REMARK    5  A    between atoms: N_18  and  C_19 
ROOT
HETATM    1  C   UNL     1      42.346 -16.434   2.726  1.00  0.00     0.277 C 
HETATM    2  N   UNL     1      41.075 -16.170   3.203  1.00  0.00    -0.322 N 
HETATM    3  O   UNL     1      42.836 -16.008   1.686  1.00  0.00    -0.266 OA
HETATM    4  H   UNL     1      40.875 -16.651   4.078  1.00  0.00     0.169 HD
ENDROOT
BRANCH   2   5
HETATM    5  C   UNL     1      40.156 -15.206   2.757  1.00  0.00     0.035 A 
HETATM    6  C   UNL     1      39.099 -15.477   1.888  1.00  0.00     0.030 A 
HETATM    7  C   UNL     1      38.319 -14.433   1.372  1.00  0.00     0.010 A 
HETATM    8  C   UNL     1      38.586 -13.104   1.720  1.00  0.00    -0.049 A 
HETATM    9  C   UNL     1      39.603 -12.842   2.646  1.00  0.00     0.010 A 
HETATM   10  C   UNL     1      40.377 -13.885   3.161  1.00  0.00     0.030 A 
BRANCH   8  11
HETATM   11  C   UNL     1      37.848 -11.967   1.054  1.00  0.00     0.141 C 
BRANCH  11  12
HETATM   12  C   UNL     1      37.968 -10.587   1.673  1.00  0.00     0.222 C 
HETATM   13  N   UNL     1      37.215 -10.347   2.799  1.00  0.00    -0.357 N 
HETATM   14  H   UNL     1      36.553 -11.054   3.094  1.00  0.00     0.162 HD
HETATM   15  O   UNL     1      38.776  -9.775   1.222  1.00  0.00    -0.273 OA
BRANCH  13  16
HETATM   16  C   UNL     1      37.305  -9.132   3.601  1.00  0.00     0.076 C 
HETATM   17  C   UNL     1      35.935  -8.684   4.107  1.00  0.00     0.032 C 
HETATM   18  C   UNL     1      38.313  -9.247   4.741  1.00  0.00     0.032 C 
ENDBRANCH  13  16
ENDBRANCH  11  12
ENDBRANCH   8  11
ENDBRANCH   2   5
BRANCH   1  19
HETATM   19  C   UNL     1      43.106 -17.283   3.667  1.00  0.00     0.157 A 
HETATM   20  C   UNL     1      43.563 -18.618   3.459  1.00  0.00     0.029 A 
HETATM   21  C   UNL     1      43.464 -19.580   2.433  1.00  0.00     0.023 A 
HETATM   22  C   UNL     1      44.295 -18.931   4.598  1.00  0.00     0.063 A 
HETATM   23  C   UNL     1      44.108 -20.821   2.581  1.00  0.00    -0.061 A 
HETATM   24  C   UNL     1      44.020 -21.858   1.500  1.00  0.00     0.048 C 
HETATM   25  C   UNL     1      44.839 -21.091   3.744  1.00  0.00     0.009 A 
HETATM   26  C   UNL     1      44.946 -20.154   4.778  1.00  0.00     0.032 A 
HETATM   27  N   UNL     1      44.213 -17.824   5.395  1.00  0.00    -0.277 N 
HETATM   28  H   UNL     1      44.632 -17.697   6.310  1.00  0.00     0.189 HD
HETATM   29  N   UNL     1      43.511 -16.804   4.867  1.00  0.00    -0.168 NA
ENDBRANCH   1  19
TORSDOF 5
ENDMDL
MODEL 9
REMARK VINA RESULT:      -7.6      5.658      8.345
REMARK  5 active torsions:
REMARK  status: ('A' for Active; 'I' for Inactive)
REMARK    1  A    between atoms: C_9  and  C_10 
REMARK       I    between atoms: C_10  and  N_11 
REMARK    2  A    between atoms: N_11  and  C_12 
REMARK    3  A    between atoms: C_15  and  C_16 
REMARK    4  A    between atoms: C_16  and  C_17 
REMARK       I    between atoms: C_17  and  N_18 
REMARK    5  A    between atoms: N_18  and  C_19 
ROOT
HETATM    1  C   UNL     1      45.176 -13.237   7.916  1.00  0.00     0.277 C 
HETATM    2  N   UNL     1      44.210 -14.211   7.737  1.00  0.00    -0.322 N 
HETATM    3  O   UNL     1      46.141 -13.027   7.190  1.00  0.00    -0.266 OA
HETATM    4  H   UNL     1      43.513 -14.216   8.478  1.00  0.00     0.169 HD
ENDROOT
BRANCH   2   5
HETATM    5  C   UNL     1      43.975 -15.010   6.607  1.00  0.00     0.035 A 
HETATM    6  C   UNL     1      43.535 -14.517   5.378  1.00  0.00     0.030 A 
HETATM    7  C   UNL     1      43.179 -15.397   4.346  1.00  0.00     0.010 A 
HETATM    8  C   UNL     1      43.260 -16.782   4.530  1.00  0.00    -0.049 A 
HETATM    9  C   UNL     1      43.767 -17.272   5.740  1.00  0.00     0.010 A 
HETATM   10  C   UNL     1      44.123 -16.393   6.766  1.00  0.00     0.030 A 
BRANCH   8  11
HETATM   11  C   UNL     1      42.738 -17.733   3.479  1.00  0.00     0.141 C 
BRANCH  11  12
HETATM   12  C   UNL     1      42.084 -17.136   2.248  1.00  0.00     0.222 C 
HETATM   13  N   UNL     1      40.986 -16.333   2.459  1.00  0.00    -0.357 N 
HETATM   14  H   UNL     1      40.614 -16.265   3.398  1.00  0.00     0.162 HD
HETATM   15  O   UNL     1      42.586 -17.305   1.137  1.00  0.00    -0.273 OA
BRANCH  13  16
HETATM   16  C   UNL     1      40.316 -15.571   1.411  1.00  0.00     0.076 C 
HETATM   17  C   UNL     1      38.898 -15.174   1.818  1.00  0.00     0.032 C 
HETATM   18  C   UNL     1      41.125 -14.362   0.947  1.00  0.00     0.032 C 
ENDBRANCH  13  16
ENDBRANCH  11  12
ENDBRANCH   8  11
ENDBRANCH   2   5
BRANCH   1  19
HETATM   19  C   UNL     1      44.883 -12.404   9.102  1.00  0.00     0.157 A 
HETATM   20  C   UNL     1      43.839 -11.445   9.255  1.00  0.00     0.029 A 
HETATM   21  C   UNL     1      42.811 -10.922   8.445  1.00  0.00     0.023 A 
HETATM   22  C   UNL     1      43.941 -11.008  10.570  1.00  0.00     0.063 A 
HETATM   23  C   UNL     1      41.915  -9.981   8.983  1.00  0.00    -0.061 A 
HETATM   24  C   UNL     1      40.810  -9.413   8.140  1.00  0.00     0.048 C 
HETATM   25  C   UNL     1      42.052  -9.573  10.316  1.00  0.00     0.009 A 
HETATM   26  C   UNL     1      43.068 -10.075  11.136  1.00  0.00     0.032 A 
HETATM   27  N   UNL     1      45.008 -11.682  11.093  1.00  0.00    -0.277 N 
HETATM   28  H   UNL     1      45.374 -11.609  12.036  1.00  0.00     0.189 HD
HETATM   29  N   UNL     1      45.601 -12.539  10.242  1.00  0.00    -0.168 NA
ENDBRANCH   1  19
TORSDOF 5
ENDMDL
MODEL 10
REMARK VINA RESULT:      -7.5      6.548      9.518
REMARK  5 active torsions:
REMARK  status: ('A' for Active; 'I' for Inactive)
REMARK    1  A    between atoms: C_9  and  C_10 
REMARK       I    between atoms: C_10  and  N_11 
REMARK    2  A    between atoms: N_11  and  C_12 
REMARK    3  A    between atoms: C_15  and  C_16 
REMARK    4  A    between atoms: C_16  and  C_17 
REMARK       I    between atoms: C_17  and  N_18 
REMARK    5  A    between atoms: N_18  and  C_19 
ROOT
HETATM    1  C   UNL     1      41.122 -11.022   7.087  1.00  0.00     0.277 C 
HETATM    2  N   UNL     1      41.381 -12.366   6.891  1.00  0.00    -0.322 N 
HETATM    3  O   UNL     1      41.435 -10.104   6.337  1.00  0.00    -0.266 OA
HETATM    4  H   UNL     1      41.048 -12.948   7.658  1.00  0.00     0.169 HD
ENDROOT
BRANCH   2   5
HETATM    5  C   UNL     1      41.835 -13.008   5.728  1.00  0.00     0.035 A 
HETATM    6  C   UNL     1      41.092 -13.115   4.552  1.00  0.00     0.030 A 
HETATM    7  C   UNL     1      41.555 -13.901   3.488  1.00  0.00     0.010 A 
HETATM    8  C   UNL     1      42.770 -14.590   3.586  1.00  0.00    -0.049 A 
HETATM    9  C   UNL     1      43.546 -14.424   4.739  1.00  0.00     0.010 A 
HETATM   10  C   UNL     1      43.083 -13.638   5.798  1.00  0.00     0.030 A 
BRANCH   8  11
HETATM   11  C   UNL     1      43.202 -15.554   2.506  1.00  0.00     0.141 C 
BRANCH  11  12
HETATM   12  C   UNL     1      42.815 -17.012   2.665  1.00  0.00     0.222 C 
HETATM   13  N   UNL     1      43.833 -17.894   2.950  1.00  0.00    -0.357 N 
HETATM   14  H   UNL     1      44.785 -17.549   2.937  1.00  0.00     0.162 HD
HETATM   15  O   UNL     1      41.631 -17.346   2.628  1.00  0.00    -0.273 OA
BRANCH  13  16
HETATM   16  C   UNL     1      43.631 -19.303   3.268  1.00  0.00     0.076 C 
HETATM   17  C   UNL     1      43.630 -20.173   2.011  1.00  0.00     0.032 C 
HETATM   18  C   UNL     1      44.617 -19.824   4.309  1.00  0.00     0.032 C 
ENDBRANCH  13  16
ENDBRANCH  11  12
ENDBRANCH   8  11
ENDBRANCH   2   5
BRANCH   1  19
HETATM   19  C   UNL     1      40.351 -10.799   8.328  1.00  0.00     0.157 A 
HETATM   20  C   UNL     1      40.860 -10.548   9.636  1.00  0.00     0.029 A 
HETATM   21  C   UNL     1      42.135 -10.458  10.231  1.00  0.00     0.023 A 
HETATM   22  C   UNL     1      39.739 -10.324  10.424  1.00  0.00     0.063 A 
HETATM   23  C   UNL     1      42.242 -10.141  11.596  1.00  0.00    -0.061 A 
HETATM   24  C   UNL     1      43.589 -10.036  12.251  1.00  0.00     0.048 C 
HETATM   25  C   UNL     1      41.084  -9.917  12.352  1.00  0.00     0.009 A 
HETATM   26  C   UNL     1      39.809 -10.006  11.783  1.00  0.00     0.032 A 
HETATM   27  N   UNL     1      38.671 -10.474   9.584  1.00  0.00    -0.277 N 
HETATM   28  H   UNL     1      37.690 -10.381   9.821  1.00  0.00     0.189 HD
HETATM   29  N   UNL     1      38.998 -10.755   8.309  1.00  0.00    -0.168 NA
ENDBRANCH   1  19
TORSDOF 5
ENDMDL
