MODEL 1
REMARK VINA RESULT:      -8.3      0.000      0.000
REMARK  5 active torsions:
REMARK  status: ('A' for Active; 'I' for Inactive)
REMARK    1  A    between atoms: O_2  and  C_3 
REMARK    2  A    between atoms: C_4  and  C_5 
REMARK       I    between atoms: C_5  and  N_6 
REMARK    3  A    between atoms: N_6  and  C_7 
REMARK    4  A    between atoms: C_7  and  C_8 
REMARK    5  A    between atoms: C_8  and  C_9 
ROOT
HETATM    1  C   UNL     1      42.857 -16.887   5.663  1.00  0.00     0.256 C 
HETATM    2  N   UNL     1      43.958 -16.092   5.898  1.00  0.00    -0.356 N 
HETATM    3  O   UNL     1      41.914 -16.981   6.439  1.00  0.00    -0.268 OA
HETATM    4  H   UNL     1      44.761 -16.145   5.284  1.00  0.00     0.162 HD
ENDROOT
BRANCH   2   5
HETATM    5  C   UNL     1      44.103 -15.352   7.140  1.00  0.00     0.130 C 
BRANCH   5   6
HETATM    6  C   UNL     1      44.966 -14.100   6.982  1.00  0.00     0.098 C 
BRANCH   6   7
HETATM    7  C   UNL     1      44.666 -13.111   8.052  1.00  0.00     0.106 A 
HETATM    8  N   UNL     1      45.405 -12.855   9.112  1.00  0.00    -0.233 NA
HETATM    9  C   UNL     1      44.729 -11.880   9.804  1.00  0.00     0.085 A 
HETATM   10  C   UNL     1      43.557 -11.525   9.146  1.00  0.00     0.062 A 
HETATM   11  C   UNL     1      45.060 -11.244  11.010  1.00  0.00     0.034 A 
HETATM   12  N   UNL     1      43.540 -12.324   8.032  1.00  0.00    -0.343 N 
HETATM   13  C   UNL     1      42.676 -10.553   9.624  1.00  0.00     0.032 A 
HETATM   14  H   UNL     1      42.824 -12.336   7.320  1.00  0.00     0.167 HD
HETATM   15  C   UNL     1      43.021  -9.929  10.828  1.00  0.00     0.002 A 
HETATM   16  C   UNL     1      44.191 -10.266  11.513  1.00  0.00     0.002 A 
ENDBRANCH   6   7
ENDBRANCH   5   6
ENDBRANCH   2   5
BRANCH   1  17
HETATM   17  C   UNL     1      42.862 -17.629   4.381  1.00  0.00     0.088 A 
HETATM   18  C   UNL     1      43.760 -18.698   4.208  1.00  0.00     0.107 A 
HETATM   19  C   UNL     1      43.813 -19.374   2.980  1.00  0.00     0.068 A 
HETATM   20  C   UNL     1      42.955 -19.015   1.940  1.00  0.00     0.028 A 
HETATM   21 CL   UNL     1      44.919 -20.673   2.710  1.00  0.00    -0.081 Cl
HETATM   22  C   UNL     1      42.055 -17.964   2.113  1.00  0.00     0.027 A 
HETATM   23  C   UNL     1      42.011 -17.265   3.325  1.00  0.00     0.052 A 
HETATM   24 CL   UNL     1      40.900 -15.943   3.421  1.00  0.00    -0.083 Cl
BRANCH  18  25
HETATM   25  O   UNL     1      44.645 -19.060   5.195  1.00  0.00    -0.353 OA
HETATM   26  C   UNL     1      44.096 -20.069   6.043  1.00  0.00     0.210 C 
ENDBRANCH  18  25
ENDBRANCH   1  17
TORSDOF 5
ENDMDL
MODEL 2
REMARK VINA RESULT:      -8.2      1.128      2.474
REMARK  5 active torsions:
REMARK  status: ('A' for Active; 'I' for Inactive)
REMARK    1  A    between atoms: O_2  and  C_3 
REMARK    2  A    between atoms: C_4  and  C_5 
REMARK       I    between atoms: C_5  and  N_6 
REMARK    3  A    between atoms: N_6  and  C_7 
REMARK    4  A    between atoms: C_7  and  C_8 
REMARK    5  A    between atoms: C_8  and  C_9 
ROOT
HETATM    1  C   UNL     1      43.212 -17.167   5.750  1.00  0.00     0.256 C 
HETATM    2  N   UNL     1      43.928 -15.992   5.841  1.00  0.00    -0.356 N 
HETATM    3  O   UNL     1      42.628 -17.677   6.699  1.00  0.00    -0.268 OA
HETATM    4  H   UNL     1      44.490 -15.682   5.058  1.00  0.00     0.162 HD
ENDROOT
BRANCH   2   5
HETATM    5  C   UNL     1      44.095 -15.307   7.111  1.00  0.00     0.130 C 
BRANCH   5   6
HETATM    6  C   UNL     1      44.971 -14.059   6.994  1.00  0.00     0.098 C 
BRANCH   6   7
HETATM    7  C   UNL     1      44.650 -13.083   8.070  1.00  0.00     0.106 A 
HETATM    8  N   UNL     1      45.358 -12.853   9.157  1.00  0.00    -0.233 NA
HETATM    9  C   UNL     1      44.673 -11.881   9.843  1.00  0.00     0.085 A 
HETATM   10  C   UNL     1      43.527 -11.501   9.155  1.00  0.00     0.062 A 
HETATM   11  C   UNL     1      44.973 -11.268  11.069  1.00  0.00     0.034 A 
HETATM   12  N   UNL     1      43.534 -12.282   8.029  1.00  0.00    -0.343 N 
HETATM   13  C   UNL     1      42.642 -10.526   9.621  1.00  0.00     0.032 A 
HETATM   14  H   UNL     1      42.841 -12.274   7.294  1.00  0.00     0.167 HD
HETATM   15  C   UNL     1      42.957  -9.925  10.846  1.00  0.00     0.002 A 
HETATM   16  C   UNL     1      44.102 -10.288  11.561  1.00  0.00     0.002 A 
ENDBRANCH   6   7
ENDBRANCH   5   6
ENDBRANCH   2   5
BRANCH   1  17
HETATM   17  C   UNL     1      43.167 -17.791   4.408  1.00  0.00     0.088 A 
HETATM   18  C   UNL     1      42.264 -17.296   3.449  1.00  0.00     0.107 A 
HETATM   19  C   UNL     1      42.172 -17.912   2.192  1.00  0.00     0.068 A 
HETATM   20  C   UNL     1      42.996 -18.991   1.875  1.00  0.00     0.028 A 
HETATM   21 CL   UNL     1      41.058 -17.359   0.994  1.00  0.00    -0.081 Cl
HETATM   22  C   UNL     1      43.901 -19.476   2.819  1.00  0.00     0.027 A 
HETATM   23  C   UNL     1      43.984 -18.886   4.085  1.00  0.00     0.052 A 
HETATM   24 CL   UNL     1      45.096 -19.595   5.204  1.00  0.00    -0.083 Cl
BRANCH  18  25
HETATM   25  O   UNL     1      41.411 -16.257   3.735  1.00  0.00    -0.353 OA
HETATM   26  C   UNL     1      41.879 -15.029   3.177  1.00  0.00     0.210 C 
ENDBRANCH  18  25
ENDBRANCH   1  17
TORSDOF 5
ENDMDL
MODEL 3
REMARK VINA RESULT:      -7.9      4.643      7.825
REMARK  5 active torsions:
REMARK  status: ('A' for Active; 'I' for Inactive)
REMARK    1  A    between atoms: O_2  and  C_3 
REMARK    2  A    between atoms: C_4  and  C_5 
REMARK       I    between atoms: C_5  and  N_6 
REMARK    3  A    between atoms: N_6  and  C_7 
REMARK    4  A    between atoms: C_7  and  C_8 
REMARK    5  A    between atoms: C_8  and  C_9 
ROOT
HETATM    1  C   UNL     1      42.582 -15.552   4.093  1.00  0.00     0.256 C 
HETATM    2  N   UNL     1      42.325 -16.646   4.893  1.00  0.00    -0.356 N 
HETATM    3  O   UNL     1      43.335 -14.641   4.418  1.00  0.00    -0.268 OA
HETATM    4  H   UNL     1      41.603 -17.306   4.629  1.00  0.00     0.162 HD
ENDROOT
BRANCH   2   5
HETATM    5  C   UNL     1      42.889 -16.755   6.227  1.00  0.00     0.130 C 
BRANCH   5   6
HETATM    6  C   UNL     1      44.304 -17.335   6.220  1.00  0.00     0.098 C 
BRANCH   6   7
HETATM    7  C   UNL     1      44.364 -18.579   5.408  1.00  0.00     0.106 A 
HETATM    8  N   UNL     1      44.241 -18.668   4.100  1.00  0.00    -0.233 NA
HETATM    9  C   UNL     1      44.363 -20.005   3.809  1.00  0.00     0.085 A 
HETATM   10  C   UNL     1      44.575 -20.748   4.965  1.00  0.00     0.062 A 
HETATM   11  C   UNL     1      44.304 -20.663   2.571  1.00  0.00     0.034 A 
HETATM   12  N   UNL     1      44.570 -19.816   5.971  1.00  0.00    -0.343 N 
HETATM   13  C   UNL     1      44.738 -22.135   4.965  1.00  0.00     0.032 A 
HETATM   14  H   UNL     1      44.696 -20.003   6.956  1.00  0.00     0.167 HD
HETATM   15  C   UNL     1      44.676 -22.774   3.721  1.00  0.00     0.002 A 
HETATM   16  C   UNL     1      44.462 -22.054   2.542  1.00  0.00     0.002 A 
ENDBRANCH   6   7
ENDBRANCH   5   6
ENDBRANCH   2   5
BRANCH   1  17
HETATM   17  C   UNL     1      41.899 -15.541   2.779  1.00  0.00     0.088 A 
HETATM   18  C   UNL     1      40.576 -15.068   2.695  1.00  0.00     0.107 A 
HETATM   19  C   UNL     1      39.899 -15.102   1.467  1.00  0.00     0.068 A 
HETATM   20  C   UNL     1      40.541 -15.571   0.321  1.00  0.00     0.028 A 
HETATM   21 CL   UNL     1      38.265 -14.561   1.320  1.00  0.00    -0.081 Cl
HETATM   22  C   UNL     1      41.857 -16.028   0.399  1.00  0.00     0.027 A 
HETATM   23  C   UNL     1      42.534 -16.022   1.623  1.00  0.00     0.052 A 
HETATM   24 CL   UNL     1      44.142 -16.661   1.627  1.00  0.00    -0.083 Cl
BRANCH  18  25
HETATM   25  O   UNL     1      39.897 -14.632   3.808  1.00  0.00    -0.353 OA
HETATM   26  C   UNL     1      39.992 -13.215   3.954  1.00  0.00     0.210 C 
ENDBRANCH  18  25
ENDBRANCH   1  17
TORSDOF 5
ENDMDL
MODEL 4
REMARK VINA RESULT:      -7.9      3.096      4.419
REMARK  5 active torsions:
REMARK  status: ('A' for Active; 'I' for Inactive)
REMARK    1  A    between atoms: O_2  and  C_3 
REMARK    2  A    between atoms: C_4  and  C_5 
REMARK       I    between atoms: C_5  and  N_6 
REMARK    3  A    between atoms: N_6  and  C_7 
REMARK    4  A    between atoms: C_7  and  C_8 
REMARK    5  A    between atoms: C_8  and  C_9 
ROOT
HETATM    1  C   UNL     1      43.333 -17.504   5.739  1.00  0.00     0.256 C 
HETATM    2  N   UNL     1      44.349 -16.842   6.396  1.00  0.00    -0.356 N 
HETATM    3  O   UNL     1      42.147 -17.226   5.877  1.00  0.00    -0.268 OA
HETATM    4  H   UNL     1      45.298 -17.190   6.340  1.00  0.00     0.162 HD
ENDROOT
BRANCH   2   5
HETATM    5  C   UNL     1      44.066 -15.797   7.365  1.00  0.00     0.130 C 
BRANCH   5   6
HETATM    6  C   UNL     1      44.385 -14.400   6.833  1.00  0.00     0.098 C 
BRANCH   6   7
HETATM    7  C   UNL     1      43.438 -14.015   5.753  1.00  0.00     0.106 A 
HETATM    8  N   UNL     1      43.753 -13.624   4.535  1.00  0.00    -0.233 NA
HETATM    9  C   UNL     1      42.557 -13.379   3.906  1.00  0.00     0.085 A 
HETATM   10  C   UNL     1      41.487 -13.637   4.754  1.00  0.00     0.062 A 
HETATM   11  C   UNL     1      42.306 -12.933   2.600  1.00  0.00     0.034 A 
HETATM   12  N   UNL     1      42.074 -14.041   5.926  1.00  0.00    -0.343 N 
HETATM   13  C   UNL     1      40.152 -13.478   4.375  1.00  0.00     0.032 A 
HETATM   14  H   UNL     1      41.592 -14.310   6.772  1.00  0.00     0.167 HD
HETATM   15  C   UNL     1      39.920 -13.031   3.068  1.00  0.00     0.002 A 
HETATM   16  C   UNL     1      40.976 -12.762   2.193  1.00  0.00     0.002 A 
ENDBRANCH   6   7
ENDBRANCH   5   6
ENDBRANCH   2   5
BRANCH   1  17
HETATM   17  C   UNL     1      43.758 -18.584   4.820  1.00  0.00     0.088 A 
HETATM   18  C   UNL     1      44.266 -19.782   5.354  1.00  0.00     0.107 A 
HETATM   19  C   UNL     1      44.723 -20.792   4.495  1.00  0.00     0.068 A 
HETATM   20  C   UNL     1      44.643 -20.630   3.111  1.00  0.00     0.028 A 
HETATM   21 CL   UNL     1      45.383 -22.268   5.103  1.00  0.00    -0.081 Cl
HETATM   22  C   UNL     1      44.128 -19.448   2.579  1.00  0.00     0.027 A 
HETATM   23  C   UNL     1      43.693 -18.423   3.426  1.00  0.00     0.052 A 
HETATM   24 CL   UNL     1      43.123 -16.976   2.670  1.00  0.00    -0.083 Cl
BRANCH  18  25
HETATM   25  O   UNL     1      44.393 -19.967   6.710  1.00  0.00    -0.353 OA
HETATM   26  C   UNL     1      43.399 -20.861   7.210  1.00  0.00     0.210 C 
ENDBRANCH  18  25
ENDBRANCH   1  17
TORSDOF 5
ENDMDL
MODEL 5
REMARK VINA RESULT:      -7.7      5.234      7.751
REMARK  5 active torsions:
REMARK  status: ('A' for Active; 'I' for Inactive)
REMARK    1  A    between atoms: O_2  and  C_3 
REMARK    2  A    between atoms: C_4  and  C_5 
REMARK       I    between atoms: C_5  and  N_6 
REMARK    3  A    between atoms: N_6  and  C_7 
REMARK    4  A    between atoms: C_7  and  C_8 
REMARK    5  A    between atoms: C_8  and  C_9 
ROOT
HETATM    1  C   UNL     1      42.855 -16.270   3.872  1.00  0.00     0.256 C 
HETATM    2  N   UNL     1      41.481 -16.321   3.769  1.00  0.00    -0.356 N 
HETATM    3  O   UNL     1      43.498 -15.228   3.823  1.00  0.00    -0.268 OA
HETATM    4  H   UNL     1      41.013 -17.215   3.694  1.00  0.00     0.162 HD
ENDROOT
BRANCH   2   5
HETATM    5  C   UNL     1      40.698 -15.123   3.522  1.00  0.00     0.130 C 
BRANCH   5   6
HETATM    6  C   UNL     1      39.733 -15.283   2.347  1.00  0.00     0.098 C 
BRANCH   6   7
HETATM    7  C   UNL     1      40.350 -14.799   1.084  1.00  0.00     0.106 A 
HETATM    8  N   UNL     1      41.098 -13.724   0.938  1.00  0.00    -0.233 NA
HETATM    9  C   UNL     1      41.433 -13.687  -0.393  1.00  0.00     0.085 A 
HETATM   10  C   UNL     1      40.887 -14.769  -1.074  1.00  0.00     0.062 A 
HETATM   11  C   UNL     1      42.208 -12.753  -1.097  1.00  0.00     0.034 A 
HETATM   12  N   UNL     1      40.201 -15.462  -0.111  1.00  0.00    -0.343 N 
HETATM   13  C   UNL     1      41.070 -14.985  -2.442  1.00  0.00     0.032 A 
HETATM   14  H   UNL     1      39.674 -16.313  -0.251  1.00  0.00     0.167 HD
HETATM   15  C   UNL     1      41.846 -14.043  -3.128  1.00  0.00     0.002 A 
HETATM   16  C   UNL     1      42.406 -12.944  -2.470  1.00  0.00     0.002 A 
ENDBRANCH   6   7
ENDBRANCH   5   6
ENDBRANCH   2   5
BRANCH   1  17
HETATM   17  C   UNL     1      43.534 -17.571   4.069  1.00  0.00     0.088 A 
HETATM   18  C   UNL     1      43.486 -18.535   3.045  1.00  0.00     0.107 A 
HETATM   19  C   UNL     1      44.078 -19.792   3.240  1.00  0.00     0.068 A 
HETATM   20  C   UNL     1      44.745 -20.080   4.430  1.00  0.00     0.028 A 
HETATM   21 CL   UNL     1      44.019 -21.017   2.024  1.00  0.00    -0.081 Cl
HETATM   22  C   UNL     1      44.806 -19.122   5.442  1.00  0.00     0.027 A 
HETATM   23  C   UNL     1      44.197 -17.874   5.270  1.00  0.00     0.052 A 
HETATM   24 CL   UNL     1      44.279 -16.776   6.604  1.00  0.00    -0.083 Cl
BRANCH  18  25
HETATM   25  O   UNL     1      42.809 -18.302   1.872  1.00  0.00    -0.353 OA
HETATM   26  C   UNL     1      43.648 -17.677   0.901  1.00  0.00     0.210 C 
ENDBRANCH  18  25
ENDBRANCH   1  17
TORSDOF 5
ENDMDL
MODEL 6
REMARK VINA RESULT:      -7.6      4.143      5.379
REMARK  5 active torsions:
REMARK  status: ('A' for Active; 'I' for Inactive)
REMARK    1  A    between atoms: O_2  and  C_3 
REMARK    2  A    between atoms: C_4  and  C_5 
REMARK       I    between atoms: C_5  and  N_6 
REMARK    3  A    between atoms: N_6  and  C_7 
REMARK    4  A    between atoms: C_7  and  C_8 
REMARK    5  A    between atoms: C_8  and  C_9 
ROOT
HETATM    1  C   UNL     1      43.466 -18.024   2.766  1.00  0.00     0.256 C 
HETATM    2  N   UNL     1      42.187 -18.091   2.252  1.00  0.00    -0.356 N 
HETATM    3  O   UNL     1      44.351 -17.327   2.285  1.00  0.00    -0.268 OA
HETATM    4  H   UNL     1      41.533 -18.774   2.614  1.00  0.00     0.162 HD
ENDROOT
BRANCH   2   5
HETATM    5  C   UNL     1      41.822 -17.376   1.042  1.00  0.00     0.130 C 
BRANCH   5   6
HETATM    6  C   UNL     1      40.581 -16.502   1.227  1.00  0.00     0.098 C 
BRANCH   6   7
HETATM    7  C   UNL     1      40.777 -15.531   2.336  1.00  0.00     0.106 A 
HETATM    8  N   UNL     1      41.832 -14.768   2.533  1.00  0.00    -0.233 NA
HETATM    9  C   UNL     1      41.558 -14.048   3.671  1.00  0.00     0.085 A 
HETATM   10  C   UNL     1      40.303 -14.371   4.173  1.00  0.00     0.062 A 
HETATM   11  C   UNL     1      42.340 -13.092   4.336  1.00  0.00     0.034 A 
HETATM   12  N   UNL     1      39.825 -15.319   3.305  1.00  0.00    -0.343 N 
HETATM   13  C   UNL     1      39.765 -13.786   5.322  1.00  0.00     0.032 A 
HETATM   14  H   UNL     1      38.930 -15.784   3.366  1.00  0.00     0.167 HD
HETATM   15  C   UNL     1      40.558 -12.835   5.973  1.00  0.00     0.002 A 
HETATM   16  C   UNL     1      41.825 -12.492   5.492  1.00  0.00     0.002 A 
ENDBRANCH   6   7
ENDBRANCH   5   6
ENDBRANCH   2   5
BRANCH   1  17
HETATM   17  C   UNL     1      43.718 -18.846   3.972  1.00  0.00     0.088 A 
HETATM   18  C   UNL     1      44.391 -20.074   3.840  1.00  0.00     0.107 A 
HETATM   19  C   UNL     1      44.588 -20.887   4.966  1.00  0.00     0.068 A 
HETATM   20  C   UNL     1      44.151 -20.469   6.223  1.00  0.00     0.028 A 
HETATM   21 CL   UNL     1      45.383 -22.416   4.849  1.00  0.00    -0.081 Cl
HETATM   22  C   UNL     1      43.495 -19.246   6.359  1.00  0.00     0.027 A 
HETATM   23  C   UNL     1      43.269 -18.438   5.239  1.00  0.00     0.052 A 
HETATM   24 CL   UNL     1      42.398 -16.967   5.502  1.00  0.00    -0.083 Cl
BRANCH  18  25
HETATM   25  O   UNL     1      44.806 -20.537   2.614  1.00  0.00    -0.353 OA
HETATM   26  C   UNL     1      43.835 -21.404   2.029  1.00  0.00     0.210 C 
ENDBRANCH  18  25
ENDBRANCH   1  17
TORSDOF 5
ENDMDL
MODEL 7
REMARK VINA RESULT:      -7.6      2.017      3.485
REMARK  5 active torsions:
REMARK  status: ('A' for Active; 'I' for Inactive)
REMARK    1  A    between atoms: O_2  and  C_3 
REMARK    2  A    between atoms: C_4  and  C_5 
REMARK       I    between atoms: C_5  and  N_6 
REMARK    3  A    between atoms: N_6  and  C_7 
REMARK    4  A    between atoms: C_7  and  C_8 
REMARK    5  A    between atoms: C_8  and  C_9 
ROOT
HETATM    1  C   UNL     1      42.248 -15.872   5.748  1.00  0.00     0.256 C 
HETATM    2  N   UNL     1      43.412 -15.134   5.797  1.00  0.00    -0.356 N 
HETATM    3  O   UNL     1      41.802 -16.493   6.706  1.00  0.00    -0.268 OA
HETATM    4  H   UNL     1      43.798 -14.743   4.946  1.00  0.00     0.162 HD
ENDROOT
BRANCH   2   5
HETATM    5  C   UNL     1      44.235 -15.102   6.993  1.00  0.00     0.130 C 
BRANCH   5   6
HETATM    6  C   UNL     1      45.170 -13.892   7.030  1.00  0.00     0.098 C 
BRANCH   6   7
HETATM    7  C   UNL     1      44.779 -12.953   8.115  1.00  0.00     0.106 A 
HETATM    8  N   UNL     1      45.471 -12.677   9.201  1.00  0.00    -0.233 NA
HETATM    9  C   UNL     1      44.715 -11.766   9.898  1.00  0.00     0.085 A 
HETATM   10  C   UNL     1      43.540 -11.471   9.217  1.00  0.00     0.062 A 
HETATM   11  C   UNL     1      44.972 -11.141  11.127  1.00  0.00     0.034 A 
HETATM   12  N   UNL     1      43.604 -12.241   8.084  1.00  0.00    -0.343 N 
HETATM   13  C   UNL     1      42.584 -10.572   9.694  1.00  0.00     0.032 A 
HETATM   14  H   UNL     1      42.908 -12.281   7.352  1.00  0.00     0.167 HD
HETATM   15  C   UNL     1      42.856  -9.958  10.922  1.00  0.00     0.002 A 
HETATM   16  C   UNL     1      44.029 -10.236  11.630  1.00  0.00     0.002 A 
ENDBRANCH   6   7
ENDBRANCH   5   6
ENDBRANCH   2   5
BRANCH   1  17
HETATM   17  C   UNL     1      41.535 -15.863   4.450  1.00  0.00     0.088 A 
HETATM   18  C   UNL     1      40.820 -14.714   4.066  1.00  0.00     0.107 A 
HETATM   19  C   UNL     1      40.095 -14.711   2.865  1.00  0.00     0.068 A 
HETATM   20  C   UNL     1      40.107 -15.830   2.032  1.00  0.00     0.028 A 
HETATM   21 CL   UNL     1      39.178 -13.335   2.366  1.00  0.00    -0.081 Cl
HETATM   22  C   UNL     1      40.825 -16.966   2.404  1.00  0.00     0.027 A 
HETATM   23  C   UNL     1      41.531 -16.990   3.612  1.00  0.00     0.052 A 
HETATM   24 CL   UNL     1      42.344 -18.464   4.010  1.00  0.00    -0.083 Cl
BRANCH  18  25
HETATM   25  O   UNL     1      40.755 -13.605   4.875  1.00  0.00    -0.353 OA
HETATM   26  C   UNL     1      39.622 -13.658   5.743  1.00  0.00     0.210 C 
ENDBRANCH  18  25
ENDBRANCH   1  17
TORSDOF 5
ENDMDL
MODEL 8
REMARK VINA RESULT:      -7.5      4.389      8.306
REMARK  5 active torsions:
REMARK  status: ('A' for Active; 'I' for Inactive)
REMARK    1  A    between atoms: O_2  and  C_3 
REMARK    2  A    between atoms: C_4  and  C_5 
REMARK       I    between atoms: C_5  and  N_6 
REMARK    3  A    between atoms: N_6  and  C_7 
REMARK    4  A    between atoms: C_7  and  C_8 
REMARK    5  A    between atoms: C_8  and  C_9 
ROOT
HETATM    1  C   UNL     1      41.792 -16.819   3.173  1.00  0.00     0.256 C 
HETATM    2  N   UNL     1      42.226 -15.520   3.340  1.00  0.00    -0.356 N 
HETATM    3  O   UNL     1      40.747 -17.114   2.606  1.00  0.00    -0.268 OA
HETATM    4  H   UNL     1      43.032 -15.328   3.921  1.00  0.00     0.162 HD
ENDROOT
BRANCH   2   5
HETATM    5  C   UNL     1      41.419 -14.394   2.904  1.00  0.00     0.130 C 
BRANCH   5   6
HETATM    6  C   UNL     1      42.025 -13.666   1.704  1.00  0.00     0.098 C 
BRANCH   6   7
HETATM    7  C   UNL     1      41.303 -14.016   0.452  1.00  0.00     0.106 A 
HETATM    8  N   UNL     1      40.149 -13.524   0.049  1.00  0.00    -0.233 NA
HETATM    9  C   UNL     1      39.885 -14.141  -1.150  1.00  0.00     0.085 A 
HETATM   10  C   UNL     1      40.906 -15.021  -1.492  1.00  0.00     0.062 A 
HETATM   11  C   UNL     1      38.786 -13.997  -2.010  1.00  0.00     0.034 A 
HETATM   12  N   UNL     1      41.797 -14.923  -0.454  1.00  0.00    -0.343 N 
HETATM   13  C   UNL     1      40.901 -15.781  -2.663  1.00  0.00     0.032 A 
HETATM   14  H   UNL     1      42.667 -15.430  -0.367  1.00  0.00     0.167 HD
HETATM   15  C   UNL     1      39.797 -15.625  -3.509  1.00  0.00     0.002 A 
HETATM   16  C   UNL     1      38.755 -14.750  -3.191  1.00  0.00     0.002 A 
ENDBRANCH   6   7
ENDBRANCH   5   6
ENDBRANCH   2   5
BRANCH   1  17
HETATM   17  C   UNL     1      42.686 -17.869   3.712  1.00  0.00     0.088 A 
HETATM   18  C   UNL     1      42.671 -18.145   5.092  1.00  0.00     0.107 A 
HETATM   19  C   UNL     1      43.550 -19.099   5.624  1.00  0.00     0.068 A 
HETATM   20  C   UNL     1      44.417 -19.802   4.787  1.00  0.00     0.028 A 
HETATM   21 CL   UNL     1      43.590 -19.450   7.314  1.00  0.00    -0.081 Cl
HETATM   22  C   UNL     1      44.425 -19.541   3.417  1.00  0.00     0.027 A 
HETATM   23  C   UNL     1      43.570 -18.573   2.878  1.00  0.00     0.052 A 
HETATM   24 CL   UNL     1      43.696 -18.282   1.178  1.00  0.00    -0.083 Cl
BRANCH  18  25
HETATM   25  O   UNL     1      41.857 -17.449   5.954  1.00  0.00    -0.353 OA
HETATM   26  C   UNL     1      42.583 -16.441   6.657  1.00  0.00     0.210 C 
ENDBRANCH  18  25
ENDBRANCH   1  17
TORSDOF 5
ENDMDL
MODEL 9
REMARK VINA RESULT:      -7.4      6.536      9.044
REMARK  5 active torsions:
REMARK  status: ('A' for Active; 'I' for Inactive)
REMARK    1  A    between atoms: O_2  and  C_3 
REMARK    2  A    between atoms: C_4  and  C_5 
REMARK       I    between atoms: C_5  and  N_6 
REMARK    3  A    between atoms: N_6  and  C_7 
REMARK    4  A    between atoms: C_7  and  C_8 
REMARK    5  A    between atoms: C_8  and  C_9 
ROOT
HETATM    1  C   UNL     1      40.509 -14.448  -0.039  1.00  0.00     0.256 C 
HETATM    2  N   UNL     1      41.267 -15.390   0.625  1.00  0.00    -0.356 N 
HETATM    3  O   UNL     1      39.334 -14.222   0.221  1.00  0.00    -0.268 OA
HETATM    4  H   UNL     1      42.194 -15.621   0.290  1.00  0.00     0.162 HD
ENDROOT
BRANCH   2   5
HETATM    5  C   UNL     1      40.685 -16.240   1.650  1.00  0.00     0.130 C 
BRANCH   5   6
HETATM    6  C   UNL     1      41.508 -16.254   2.939  1.00  0.00     0.098 C 
BRANCH   6   7
HETATM    7  C   UNL     1      42.312 -17.501   3.041  1.00  0.00     0.106 A 
HETATM    8  N   UNL     1      43.067 -17.866   4.057  1.00  0.00    -0.233 NA
HETATM    9  C   UNL     1      43.607 -19.076   3.697  1.00  0.00     0.085 A 
HETATM   10  C   UNL     1      43.163 -19.464   2.438  1.00  0.00     0.062 A 
HETATM   11  C   UNL     1      44.489 -19.909   4.402  1.00  0.00     0.034 A 
HETATM   12  N   UNL     1      42.340 -18.443   2.041  1.00  0.00    -0.343 N 
HETATM   13  C   UNL     1      43.551 -20.657   1.824  1.00  0.00     0.032 A 
HETATM   14  H   UNL     1      41.840 -18.388   1.165  1.00  0.00     0.167 HD
HETATM   15  C   UNL     1      44.431 -21.476   2.541  1.00  0.00     0.002 A 
HETATM   16  C   UNL     1      44.895 -21.111   3.808  1.00  0.00     0.002 A 
ENDBRANCH   6   7
ENDBRANCH   5   6
ENDBRANCH   2   5
BRANCH   1  17
HETATM   17  C   UNL     1      41.212 -13.689  -1.098  1.00  0.00     0.088 A 
HETATM   18  C   UNL     1      42.055 -12.622  -0.736  1.00  0.00     0.107 A 
HETATM   19  C   UNL     1      42.684 -11.860  -1.732  1.00  0.00     0.068 A 
HETATM   20  C   UNL     1      42.506 -12.175  -3.079  1.00  0.00     0.028 A 
HETATM   21 CL   UNL     1      43.704 -10.522  -1.338  1.00  0.00    -0.081 Cl
HETATM   22  C   UNL     1      41.681 -13.240  -3.440  1.00  0.00     0.027 A 
HETATM   23  C   UNL     1      41.028 -13.992  -2.457  1.00  0.00     0.052 A 
HETATM   24 CL   UNL     1      39.983 -15.256  -3.008  1.00  0.00    -0.083 Cl
BRANCH  18  25
HETATM   25  O   UNL     1      42.229 -12.258   0.578  1.00  0.00    -0.353 OA
HETATM   26  C   UNL     1      41.304 -11.240   0.963  1.00  0.00     0.210 C 
ENDBRANCH  18  25
ENDBRANCH   1  17
TORSDOF 5
ENDMDL
MODEL 10
REMARK VINA RESULT:      -7.4      4.683      8.130
REMARK  5 active torsions:
REMARK  status: ('A' for Active; 'I' for Inactive)
REMARK    1  A    between atoms: O_2  and  C_3 
REMARK    2  A    between atoms: C_4  and  C_5 
REMARK       I    between atoms: C_5  and  N_6 
REMARK    3  A    between atoms: N_6  and  C_7 
REMARK    4  A    between atoms: C_7  and  C_8 
REMARK    5  A    between atoms: C_8  and  C_9 
ROOT
HETATM    1  C   UNL     1      43.176 -17.639   2.684  1.00  0.00     0.256 C 
HETATM    2  N   UNL     1      41.862 -17.682   2.265  1.00  0.00    -0.356 N 
HETATM    3  O   UNL     1      44.068 -17.090   2.050  1.00  0.00    -0.268 OA
HETATM    4  H   UNL     1      41.191 -18.252   2.765  1.00  0.00     0.162 HD
ENDROOT
BRANCH   2   5
HETATM    5  C   UNL     1      41.460 -17.127   0.985  1.00  0.00     0.130 C 
BRANCH   5   6
HETATM    6  C   UNL     1      40.708 -15.803   1.128  1.00  0.00     0.098 C 
BRANCH   6   7
HETATM    7  C   UNL     1      41.157 -14.824   0.102  1.00  0.00     0.106 A 
HETATM    8  N   UNL     1      41.090 -14.972  -1.205  1.00  0.00    -0.233 NA
HETATM    9  C   UNL     1      41.620 -13.820  -1.732  1.00  0.00     0.085 A 
HETATM   10  C   UNL     1      42.009 -12.944  -0.725  1.00  0.00     0.062 A 
HETATM   11  C   UNL     1      41.800 -13.448  -3.073  1.00  0.00     0.034 A 
HETATM   12  N   UNL     1      41.704 -13.608   0.435  1.00  0.00    -0.343 N 
HETATM   13  C   UNL     1      42.577 -11.693  -0.975  1.00  0.00     0.032 A 
HETATM   14  H   UNL     1      41.856 -13.266   1.374  1.00  0.00     0.167 HD
HETATM   15  C   UNL     1      42.749 -11.338  -2.318  1.00  0.00     0.002 A 
HETATM   16  C   UNL     1      42.370 -12.199  -3.352  1.00  0.00     0.002 A 
ENDBRANCH   6   7
ENDBRANCH   5   6
ENDBRANCH   2   5
BRANCH   1  17
HETATM   17  C   UNL     1      43.458 -18.291   3.984  1.00  0.00     0.088 A 
HETATM   18  C   UNL     1      43.062 -17.653   5.174  1.00  0.00     0.107 A 
HETATM   19  C   UNL     1      43.372 -18.233   6.413  1.00  0.00     0.068 A 
HETATM   20  C   UNL     1      44.039 -19.456   6.472  1.00  0.00     0.028 A 
HETATM   21 CL   UNL     1      42.933 -17.473   7.901  1.00  0.00    -0.081 Cl
HETATM   22  C   UNL     1      44.421 -20.097   5.293  1.00  0.00     0.027 A 
HETATM   23  C   UNL     1      44.141 -19.516   4.052  1.00  0.00     0.052 A 
HETATM   24 CL   UNL     1      44.705 -20.360   2.651  1.00  0.00    -0.083 Cl
BRANCH  18  25
HETATM   25  O   UNL     1      42.434 -16.430   5.159  1.00  0.00    -0.353 OA
HETATM   26  C   UNL     1      43.372 -15.361   5.285  1.00  0.00     0.210 C 
ENDBRANCH  18  25
ENDBRANCH   1  17
TORSDOF 5
ENDMDL
