MODEL 1
REMARK VINA RESULT:      -8.0      0.000      0.000
REMARK  6 active torsions:
REMARK  status: ('A' for Active; 'I' for Inactive)
REMARK    1  A    between atoms: O_2  and  C_3 
REMARK    2  A    between atoms: C_3  and  C_4 
REMARK    3  A    between atoms: C_4  and  N_5 
REMARK       I    between atoms: N_5  and  C_6 
REMARK    4  A    between atoms: C_6  and  C_7 
REMARK    5  A    between atoms: C_12  and  C_13 
REMARK    6  A    between atoms: C_20  and  C_21 
ROOT
HETATM    1  C   UNL     1      41.013 -15.262   0.312  1.00  0.00     0.165 A 
HETATM    2  N   UNL     1      41.745 -16.369   0.600  1.00  0.00    -0.163 NA
HETATM    3  N   UNL     1      41.600 -16.517   1.929  1.00  0.00    -0.238 N 
HETATM    4  C   UNL     1      40.770 -15.596   2.504  1.00  0.00     0.141 A 
HETATM    5  N   UNL     1      40.482 -15.632   3.828  1.00  0.00    -0.365 N 
HETATM    6  C   UNL     1      41.190 -16.514   4.748  1.00  0.00     0.118 C 
HETATM    7  C   UNL     1      41.590 -17.813   4.024  1.00  0.00     0.066 C 
HETATM    8  C   UNL     1      42.247 -17.599   2.646  1.00  0.00     0.221 C 
HETATM    9  C   UNL     1      40.386 -14.768   1.482  1.00  0.00     0.092 A 
HETATM   10 BR   UNL     1      39.263 -13.275   1.629  1.00  0.00    -0.044 Br
HETATM   11  H   UNL     1      39.986 -14.855   4.264  1.00  0.00     0.162 HD
ENDROOT
BRANCH   1  12
HETATM   12  C   UNL     1      40.962 -14.731  -1.061  1.00  0.00     0.273 C 
HETATM   13  N   UNL     1      39.907 -15.224  -1.799  1.00  0.00    -0.353 N 
HETATM   14  H   UNL     1      39.394 -15.990  -1.370  1.00  0.00     0.162 HD
HETATM   15  O   UNL     1      41.787 -13.948  -1.526  1.00  0.00    -0.266 OA
BRANCH  13  16
HETATM   16  C   UNL     1      39.791 -15.001  -3.225  1.00  0.00     0.149 C 
BRANCH  16  17
HETATM   17  C   UNL     1      39.152 -16.188  -3.950  1.00  0.00     0.186 C 
BRANCH  17  18
HETATM   18  O   UNL     1      38.038 -15.723  -4.719  1.00  0.00    -0.394 OA
HETATM   19  C   UNL     1      37.165 -14.920  -3.936  1.00  0.00     0.201 C 
ENDBRANCH  17  18
ENDBRANCH  16  17
ENDBRANCH  13  16
ENDBRANCH   1  12
BRANCH   8  20
HETATM   20  C   UNL     1      43.742 -17.373   2.709  1.00  0.00     0.409 C 
HETATM   21  F   UNL     1      44.323 -17.862   3.819  1.00  0.00    -0.169 F 
HETATM   22  F   UNL     1      44.348 -17.962   1.645  1.00  0.00    -0.169 F 
HETATM   23  F   UNL     1      44.056 -16.058   2.635  1.00  0.00    -0.169 F 
ENDBRANCH   8  20
BRANCH   6  24
HETATM   24  C   UNL     1      42.316 -15.821   5.496  1.00  0.00    -0.035 A 
HETATM   25  C   UNL     1      42.965 -16.506   6.540  1.00  0.00     0.009 A 
HETATM   26  C   UNL     1      43.998 -15.905   7.263  1.00  0.00     0.001 A 
HETATM   27  C   UNL     1      44.400 -14.608   6.961  1.00  0.00     0.000 A 
HETATM   28  C   UNL     1      43.765 -13.910   5.938  1.00  0.00     0.001 A 
HETATM   29  C   UNL     1      42.729 -14.508   5.216  1.00  0.00     0.009 A 
ENDBRANCH   6  24
TORSDOF 6
ENDMDL
MODEL 2
REMARK VINA RESULT:      -7.6      1.567      2.681
REMARK  6 active torsions:
REMARK  status: ('A' for Active; 'I' for Inactive)
REMARK    1  A    between atoms: O_2  and  C_3 
REMARK    2  A    between atoms: C_3  and  C_4 
REMARK    3  A    between atoms: C_4  and  N_5 
REMARK       I    between atoms: N_5  and  C_6 
REMARK    4  A    between atoms: C_6  and  C_7 
REMARK    5  A    between atoms: C_12  and  C_13 
REMARK    6  A    between atoms: C_20  and  C_21 
ROOT
HETATM    1  C   UNL     1      40.980 -15.098   0.180  1.00  0.00     0.165 A 
HETATM    2  N   UNL     1      41.761 -16.184   0.417  1.00  0.00    -0.163 NA
HETATM    3  N   UNL     1      41.617 -16.405   1.736  1.00  0.00    -0.238 N 
HETATM    4  C   UNL     1      40.742 -15.553   2.352  1.00  0.00     0.141 A 
HETATM    5  N   UNL     1      40.451 -15.669   3.670  1.00  0.00    -0.365 N 
HETATM    6  C   UNL     1      41.194 -16.563   4.550  1.00  0.00     0.118 C 
HETATM    7  C   UNL     1      41.656 -17.804   3.764  1.00  0.00     0.066 C 
HETATM    8  C   UNL     1      42.309 -17.491   2.403  1.00  0.00     0.221 C 
HETATM    9  C   UNL     1      40.325 -14.693   1.370  1.00  0.00     0.092 A 
HETATM   10 BR   UNL     1      39.134 -13.262   1.584  1.00  0.00    -0.044 Br
HETATM   11  H   UNL     1      39.917 -14.938   4.141  1.00  0.00     0.162 HD
ENDROOT
BRANCH   1  12
HETATM   12  C   UNL     1      40.910 -14.502  -1.164  1.00  0.00     0.273 C 
HETATM   13  N   UNL     1      42.119 -14.008  -1.607  1.00  0.00    -0.353 N 
HETATM   14  H   UNL     1      42.859 -13.978  -0.910  1.00  0.00     0.162 HD
HETATM   15  O   UNL     1      39.879 -14.419  -1.827  1.00  0.00    -0.266 OA
BRANCH  13  16
HETATM   16  C   UNL     1      42.232 -13.197  -2.801  1.00  0.00     0.149 C 
BRANCH  16  17
HETATM   17  C   UNL     1      42.509 -11.726  -2.481  1.00  0.00     0.186 C 
BRANCH  17  18
HETATM   18  O   UNL     1      43.246 -11.643  -1.256  1.00  0.00    -0.394 OA
HETATM   19  C   UNL     1      43.307 -10.307  -0.776  1.00  0.00     0.201 C 
ENDBRANCH  17  18
ENDBRANCH  16  17
ENDBRANCH  13  16
ENDBRANCH   1  12
BRANCH   8  20
HETATM   20  C   UNL     1      43.792 -17.200   2.487  1.00  0.00     0.409 C 
HETATM   21  F   UNL     1      44.490 -17.603   1.410  1.00  0.00    -0.169 F 
HETATM   22  F   UNL     1      43.999 -15.865   2.624  1.00  0.00    -0.169 F 
HETATM   23  F   UNL     1      44.357 -17.778   3.574  1.00  0.00    -0.169 F 
ENDBRANCH   8  20
BRANCH   6  24
HETATM   24  C   UNL     1      42.284 -15.857   5.339  1.00  0.00    -0.035 A 
HETATM   25  C   UNL     1      43.038 -16.595   6.270  1.00  0.00     0.009 A 
HETATM   26  C   UNL     1      44.042 -15.987   7.027  1.00  0.00     0.001 A 
HETATM   27  C   UNL     1      44.310 -14.631   6.871  1.00  0.00     0.000 A 
HETATM   28  C   UNL     1      43.570 -13.881   5.962  1.00  0.00     0.001 A 
HETATM   29  C   UNL     1      42.562 -14.487   5.207  1.00  0.00     0.009 A 
ENDBRANCH   6  24
TORSDOF 6
ENDMDL
MODEL 3
REMARK VINA RESULT:      -7.1      2.569      3.003
REMARK  6 active torsions:
REMARK  status: ('A' for Active; 'I' for Inactive)
REMARK    1  A    between atoms: O_2  and  C_3 
REMARK    2  A    between atoms: C_3  and  C_4 
REMARK    3  A    between atoms: C_4  and  N_5 
REMARK       I    between atoms: N_5  and  C_6 
REMARK    4  A    between atoms: C_6  and  C_7 
REMARK    5  A    between atoms: C_12  and  C_13 
REMARK    6  A    between atoms: C_20  and  C_21 
ROOT
HETATM    1  C   UNL     1      41.713 -13.971   1.282  1.00  0.00     0.165 A 
HETATM    2  N   UNL     1      42.022 -15.213   0.827  1.00  0.00    -0.163 NA
HETATM    3  N   UNL     1      41.851 -16.003   1.901  1.00  0.00    -0.238 N 
HETATM    4  C   UNL     1      41.396 -15.346   3.010  1.00  0.00     0.141 A 
HETATM    5  N   UNL     1      41.130 -16.005   4.164  1.00  0.00    -0.365 N 
HETATM    6  C   UNL     1      41.502 -17.402   4.359  1.00  0.00     0.118 C 
HETATM    7  C   UNL     1      41.421 -18.156   3.020  1.00  0.00     0.066 C 
HETATM    8  C   UNL     1      42.094 -17.432   1.837  1.00  0.00     0.221 C 
HETATM    9  C   UNL     1      41.308 -14.030   2.639  1.00  0.00     0.092 A 
HETATM   10 BR   UNL     1      40.770 -12.605   3.730  1.00  0.00    -0.044 Br
HETATM   11  H   UNL     1      40.937 -15.482   5.019  1.00  0.00     0.162 HD
ENDROOT
BRANCH   1  12
HETATM   12  C   UNL     1      41.831 -12.797   0.401  1.00  0.00     0.273 C 
HETATM   13  N   UNL     1      40.980 -12.838  -0.683  1.00  0.00    -0.353 N 
HETATM   14  H   UNL     1      40.495 -13.721  -0.824  1.00  0.00     0.162 HD
HETATM   15  O   UNL     1      42.625 -11.877   0.586  1.00  0.00    -0.266 OA
BRANCH  13  16
HETATM   16  C   UNL     1      41.079 -11.898  -1.779  1.00  0.00     0.149 C 
BRANCH  16  17
HETATM   17  C   UNL     1      42.062 -12.362  -2.857  1.00  0.00     0.186 C 
BRANCH  17  18
HETATM   18  O   UNL     1      42.620 -11.215  -3.508  1.00  0.00    -0.394 OA
HETATM   19  C   UNL     1      42.904 -10.177  -2.579  1.00  0.00     0.201 C 
ENDBRANCH  17  18
ENDBRANCH  16  17
ENDBRANCH  13  16
ENDBRANCH   1  12
BRANCH   8  20
HETATM   20  C   UNL     1      43.576 -17.711   1.712  1.00  0.00     0.409 C 
HETATM   21  F   UNL     1      44.355 -16.842   2.380  1.00  0.00    -0.169 F 
HETATM   22  F   UNL     1      43.859 -18.952   2.187  1.00  0.00    -0.169 F 
HETATM   23  F   UNL     1      43.982 -17.706   0.420  1.00  0.00    -0.169 F 
ENDBRANCH   8  20
BRANCH   6  24
HETATM   24  C   UNL     1      42.807 -17.573   5.118  1.00  0.00    -0.035 A 
HETATM   25  C   UNL     1      43.368 -18.859   5.225  1.00  0.00     0.009 A 
HETATM   26  C   UNL     1      44.561 -19.068   5.923  1.00  0.00     0.001 A 
HETATM   27  C   UNL     1      45.213 -17.998   6.528  1.00  0.00     0.000 A 
HETATM   28  C   UNL     1      44.669 -16.721   6.441  1.00  0.00     0.001 A 
HETATM   29  C   UNL     1      43.474 -16.511   5.747  1.00  0.00     0.009 A 
ENDBRANCH   6  24
TORSDOF 6
ENDMDL
MODEL 4
REMARK VINA RESULT:      -6.9      2.698      4.195
REMARK  6 active torsions:
REMARK  status: ('A' for Active; 'I' for Inactive)
REMARK    1  A    between atoms: O_2  and  C_3 
REMARK    2  A    between atoms: C_3  and  C_4 
REMARK    3  A    between atoms: C_4  and  N_5 
REMARK       I    between atoms: N_5  and  C_6 
REMARK    4  A    between atoms: C_6  and  C_7 
REMARK    5  A    between atoms: C_12  and  C_13 
REMARK    6  A    between atoms: C_20  and  C_21 
ROOT
HETATM    1  C   UNL     1      40.222 -14.511   2.554  1.00  0.00     0.165 A 
HETATM    2  N   UNL     1      40.324 -14.989   3.821  1.00  0.00    -0.163 NA
HETATM    3  N   UNL     1      41.530 -15.584   3.847  1.00  0.00    -0.238 N 
HETATM    4  C   UNL     1      42.234 -15.467   2.681  1.00  0.00     0.141 A 
HETATM    5  N   UNL     1      43.485 -15.973   2.556  1.00  0.00    -0.365 N 
HETATM    6  C   UNL     1      44.072 -16.840   3.570  1.00  0.00     0.118 C 
HETATM    7  C   UNL     1      43.551 -16.442   4.963  1.00  0.00     0.066 C 
HETATM    8  C   UNL     1      42.025 -16.241   5.041  1.00  0.00     0.221 C 
HETATM    9  C   UNL     1      41.406 -14.787   1.826  1.00  0.00     0.092 A 
HETATM   10 BR   UNL     1      41.782 -14.334   0.047  1.00  0.00    -0.044 Br
HETATM   11  H   UNL     1      43.932 -16.009   1.639  1.00  0.00     0.162 HD
ENDROOT
BRANCH   1  12
HETATM   12  C   UNL     1      38.997 -13.827   2.105  1.00  0.00     0.273 C 
HETATM   13  N   UNL     1      38.287 -14.540   1.162  1.00  0.00    -0.353 N 
HETATM   14  H   UNL     1      38.760 -15.359   0.788  1.00  0.00     0.162 HD
HETATM   15  O   UNL     1      38.645 -12.718   2.501  1.00  0.00    -0.266 OA
BRANCH  13  16
HETATM   16  C   UNL     1      37.175 -13.965   0.435  1.00  0.00     0.149 C 
BRANCH  16  17
HETATM   17  C   UNL     1      37.628 -13.194  -0.807  1.00  0.00     0.186 C 
BRANCH  17  18
HETATM   18  O   UNL     1      37.969 -14.127  -1.839  1.00  0.00    -0.394 OA
HETATM   19  C   UNL     1      38.924 -13.581  -2.739  1.00  0.00     0.201 C 
ENDBRANCH  17  18
ENDBRANCH  16  17
ENDBRANCH  13  16
ENDBRANCH   1  12
BRANCH   8  20
HETATM   20  C   UNL     1      41.253 -17.516   5.302  1.00  0.00     0.409 C 
HETATM   21  F   UNL     1      40.744 -18.084   4.194  1.00  0.00    -0.169 F 
HETATM   22  F   UNL     1      42.058 -18.437   5.893  1.00  0.00    -0.169 F 
HETATM   23  F   UNL     1      40.225 -17.315   6.161  1.00  0.00    -0.169 F 
ENDBRANCH   8  20
BRANCH   6  24
HETATM   24  C   UNL     1      43.955 -18.317   3.236  1.00  0.00    -0.035 A 
HETATM   25  C   UNL     1      44.582 -19.258   4.074  1.00  0.00     0.009 A 
HETATM   26  C   UNL     1      44.511 -20.626   3.801  1.00  0.00     0.001 A 
HETATM   27  C   UNL     1      43.815 -21.080   2.685  1.00  0.00     0.000 A 
HETATM   28  C   UNL     1      43.195 -20.166   1.839  1.00  0.00     0.001 A 
HETATM   29  C   UNL     1      43.269 -18.797   2.109  1.00  0.00     0.009 A 
ENDBRANCH   6  24
TORSDOF 6
ENDMDL
MODEL 5
REMARK VINA RESULT:      -6.8      3.239      4.984
REMARK  6 active torsions:
REMARK  status: ('A' for Active; 'I' for Inactive)
REMARK    1  A    between atoms: O_2  and  C_3 
REMARK    2  A    between atoms: C_3  and  C_4 
REMARK    3  A    between atoms: C_4  and  N_5 
REMARK       I    between atoms: N_5  and  C_6 
REMARK    4  A    between atoms: C_6  and  C_7 
REMARK    5  A    between atoms: C_12  and  C_13 
REMARK    6  A    between atoms: C_20  and  C_21 
ROOT
HETATM    1  C   UNL     1      39.886 -14.687   2.085  1.00  0.00     0.165 A 
HETATM    2  N   UNL     1      40.048 -15.008   3.395  1.00  0.00    -0.163 NA
HETATM    3  N   UNL     1      41.293 -15.513   3.453  1.00  0.00    -0.238 N 
HETATM    4  C   UNL     1      41.963 -15.485   2.261  1.00  0.00     0.141 A 
HETATM    5  N   UNL     1      43.243 -15.917   2.159  1.00  0.00    -0.365 N 
HETATM    6  C   UNL     1      43.911 -16.620   3.248  1.00  0.00     0.118 C 
HETATM    7  C   UNL     1      43.393 -16.099   4.601  1.00  0.00     0.066 C 
HETATM    8  C   UNL     1      41.858 -15.993   4.699  1.00  0.00     0.221 C 
HETATM    9  C   UNL     1      41.071 -14.966   1.359  1.00  0.00     0.092 A 
HETATM   10 BR   UNL     1      41.377 -14.698  -0.470  1.00  0.00    -0.044 Br
HETATM   11  H   UNL     1      43.672 -16.030   1.240  1.00  0.00     0.162 HD
ENDROOT
BRANCH   1  12
HETATM   12  C   UNL     1      38.608 -14.144   1.596  1.00  0.00     0.273 C 
HETATM   13  N   UNL     1      38.599 -12.768   1.501  1.00  0.00    -0.353 N 
HETATM   14  H   UNL     1      39.401 -12.297   1.912  1.00  0.00     0.162 HD
HETATM   15  O   UNL     1      37.628 -14.833   1.324  1.00  0.00    -0.266 OA
BRANCH  13  16
HETATM   16  C   UNL     1      37.386 -12.020   1.247  1.00  0.00     0.149 C 
BRANCH  16  17
HETATM   17  C   UNL     1      37.490 -10.567   1.717  1.00  0.00     0.186 C 
BRANCH  17  18
HETATM   18  O   UNL     1      38.562 -10.455   2.659  1.00  0.00    -0.394 OA
HETATM   19  C   UNL     1      38.082 -10.142   3.960  1.00  0.00     0.201 C 
ENDBRANCH  17  18
ENDBRANCH  16  17
ENDBRANCH  13  16
ENDBRANCH   1  12
BRANCH   8  20
HETATM   20  C   UNL     1      41.182 -17.278   5.127  1.00  0.00     0.409 C 
HETATM   21  F   UNL     1      40.733 -18.026   4.104  1.00  0.00    -0.169 F 
HETATM   22  F   UNL     1      42.048 -18.047   5.838  1.00  0.00    -0.169 F 
HETATM   23  F   UNL     1      40.131 -17.044   5.948  1.00  0.00    -0.169 F 
ENDBRANCH   8  20
BRANCH   6  24
HETATM   24  C   UNL     1      43.890 -18.130   3.088  1.00  0.00    -0.035 A 
HETATM   25  C   UNL     1      44.483 -18.929   4.083  1.00  0.00     0.009 A 
HETATM   26  C   UNL     1      44.499 -20.322   3.974  1.00  0.00     0.001 A 
HETATM   27  C   UNL     1      43.924 -20.943   2.870  1.00  0.00     0.000 A 
HETATM   28  C   UNL     1      43.339 -20.170   1.871  1.00  0.00     0.001 A 
HETATM   29  C   UNL     1      43.327 -18.777   1.976  1.00  0.00     0.009 A 
ENDBRANCH   6  24
TORSDOF 6
ENDMDL
MODEL 6
REMARK VINA RESULT:      -6.7      4.588      6.933
REMARK  6 active torsions:
REMARK  status: ('A' for Active; 'I' for Inactive)
REMARK    1  A    between atoms: O_2  and  C_3 
REMARK    2  A    between atoms: C_3  and  C_4 
REMARK    3  A    between atoms: C_4  and  N_5 
REMARK       I    between atoms: N_5  and  C_6 
REMARK    4  A    between atoms: C_6  and  C_7 
REMARK    5  A    between atoms: C_12  and  C_13 
REMARK    6  A    between atoms: C_20  and  C_21 
ROOT
HETATM    1  C   UNL     1      43.196 -17.014   5.117  1.00  0.00     0.165 A 
HETATM    2  N   UNL     1      42.574 -17.111   3.913  1.00  0.00    -0.163 NA
HETATM    3  N   UNL     1      42.469 -15.836   3.499  1.00  0.00    -0.238 N 
HETATM    4  C   UNL     1      43.039 -14.926   4.346  1.00  0.00     0.141 A 
HETATM    5  N   UNL     1      43.059 -13.603   4.054  1.00  0.00    -0.365 N 
HETATM    6  C   UNL     1      42.304 -13.048   2.936  1.00  0.00     0.118 C 
HETATM    7  C   UNL     1      42.233 -14.075   1.792  1.00  0.00     0.066 C 
HETATM    8  C   UNL     1      41.842 -15.499   2.236  1.00  0.00     0.221 C 
HETATM    9  C   UNL     1      43.506 -15.661   5.404  1.00  0.00     0.092 A 
HETATM   10 BR   UNL     1      44.369 -14.989   6.925  1.00  0.00    -0.044 Br
HETATM   11  H   UNL     1      43.350 -12.928   4.761  1.00  0.00     0.162 HD
ENDROOT
BRANCH   1  12
HETATM   12  C   UNL     1      43.449 -18.215   5.931  1.00  0.00     0.273 C 
HETATM   13  N   UNL     1      44.135 -19.201   5.254  1.00  0.00    -0.353 N 
HETATM   14  H   UNL     1      44.247 -19.046   4.255  1.00  0.00     0.162 HD
HETATM   15  O   UNL     1      43.068 -18.351   7.091  1.00  0.00    -0.266 OA
BRANCH  13  16
HETATM   16  C   UNL     1      44.302 -20.534   5.792  1.00  0.00     0.149 C 
BRANCH  16  17
HETATM   17  C   UNL     1      44.930 -21.496   4.779  1.00  0.00     0.186 C 
BRANCH  17  18
HETATM   18  O   UNL     1      44.898 -20.894   3.480  1.00  0.00    -0.394 OA
HETATM   19  C   UNL     1      44.356 -21.779   2.510  1.00  0.00     0.201 C 
ENDBRANCH  17  18
ENDBRANCH  16  17
ENDBRANCH  13  16
ENDBRANCH   1  12
BRANCH   8  20
HETATM   20  C   UNL     1      40.348 -15.728   2.309  1.00  0.00     0.409 C 
HETATM   21  F   UNL     1      39.978 -17.000   2.075  1.00  0.00    -0.169 F 
HETATM   22  F   UNL     1      39.884 -15.396   3.542  1.00  0.00    -0.169 F 
HETATM   23  F   UNL     1      39.675 -14.944   1.435  1.00  0.00    -0.169 F 
ENDBRANCH   8  20
BRANCH   6  24
HETATM   24  C   UNL     1      40.970 -12.452   3.351  1.00  0.00    -0.035 A 
HETATM   25  C   UNL     1      40.130 -11.907   2.363  1.00  0.00     0.009 A 
HETATM   26  C   UNL     1      38.899 -11.338   2.698  1.00  0.00     0.001 A 
HETATM   27  C   UNL     1      38.486 -11.299   4.026  1.00  0.00     0.000 A 
HETATM   28  C   UNL     1      39.306 -11.823   5.019  1.00  0.00     0.001 A 
HETATM   29  C   UNL     1      40.540 -12.390   4.686  1.00  0.00     0.009 A 
ENDBRANCH   6  24
TORSDOF 6
ENDMDL
MODEL 7
REMARK VINA RESULT:      -6.6      4.219      6.309
REMARK  6 active torsions:
REMARK  status: ('A' for Active; 'I' for Inactive)
REMARK    1  A    between atoms: O_2  and  C_3 
REMARK    2  A    between atoms: C_3  and  C_4 
REMARK    3  A    between atoms: C_4  and  N_5 
REMARK       I    between atoms: N_5  and  C_6 
REMARK    4  A    between atoms: C_6  and  C_7 
REMARK    5  A    between atoms: C_12  and  C_13 
REMARK    6  A    between atoms: C_20  and  C_21 
ROOT
HETATM    1  C   UNL     1      42.848 -17.405   3.598  1.00  0.00     0.165 A 
HETATM    2  N   UNL     1      43.010 -16.693   4.743  1.00  0.00    -0.163 NA
HETATM    3  N   UNL     1      41.966 -15.844   4.748  1.00  0.00    -0.238 N 
HETATM    4  C   UNL     1      41.109 -16.009   3.695  1.00  0.00     0.141 A 
HETATM    5  N   UNL     1      39.984 -15.263   3.576  1.00  0.00    -0.365 N 
HETATM    6  C   UNL     1      39.724 -14.115   4.435  1.00  0.00     0.118 C 
HETATM    7  C   UNL     1      40.325 -14.360   5.831  1.00  0.00     0.066 C 
HETATM    8  C   UNL     1      41.774 -14.885   5.818  1.00  0.00     0.221 C 
HETATM    9  C   UNL     1      41.662 -17.004   2.932  1.00  0.00     0.092 A 
HETATM   10 BR   UNL     1      40.977 -17.677   1.324  1.00  0.00    -0.044 Br
HETATM   11  H   UNL     1      39.441 -15.294   2.712  1.00  0.00     0.162 HD
ENDROOT
BRANCH   1  12
HETATM   12  C   UNL     1      43.837 -18.419   3.198  1.00  0.00     0.273 C 
HETATM   13  N   UNL     1      44.046 -19.388   4.156  1.00  0.00    -0.353 N 
HETATM   14  H   UNL     1      43.618 -19.206   5.061  1.00  0.00     0.162 HD
HETATM   15  O   UNL     1      44.445 -18.402   2.130  1.00  0.00    -0.266 OA
BRANCH  13  16
HETATM   16  C   UNL     1      45.122 -20.352   4.058  1.00  0.00     0.149 C 
BRANCH  16  17
HETATM   17  C   UNL     1      44.615 -21.757   3.723  1.00  0.00     0.186 C 
BRANCH  17  18
HETATM   18  O   UNL     1      43.658 -21.670   2.661  1.00  0.00    -0.394 OA
HETATM   19  C   UNL     1      44.236 -22.017   1.411  1.00  0.00     0.201 C 
ENDBRANCH  17  18
ENDBRANCH  16  17
ENDBRANCH  13  16
ENDBRANCH   1  12
BRANCH   8  20
HETATM   20  C   UNL     1      42.820 -13.794   5.745  1.00  0.00     0.409 C 
HETATM   21  F   UNL     1      43.218 -13.501   4.494  1.00  0.00    -0.169 F 
HETATM   22  F   UNL     1      42.338 -12.647   6.291  1.00  0.00    -0.169 F 
HETATM   23  F   UNL     1      43.928 -14.109   6.457  1.00  0.00    -0.169 F 
ENDBRANCH   8  20
BRANCH   6  24
HETATM   24  C   UNL     1      40.100 -12.790   3.795  1.00  0.00    -0.035 A 
HETATM   25  C   UNL     1      39.830 -11.596   4.489  1.00  0.00     0.009 A 
HETATM   26  C   UNL     1      40.148 -10.353   3.936  1.00  0.00     0.001 A 
HETATM   27  C   UNL     1      40.738 -10.279   2.678  1.00  0.00     0.000 A 
HETATM   28  C   UNL     1      41.004 -11.447   1.971  1.00  0.00     0.001 A 
HETATM   29  C   UNL     1      40.683 -12.691   2.521  1.00  0.00     0.009 A 
ENDBRANCH   6  24
TORSDOF 6
ENDMDL
MODEL 8
REMARK VINA RESULT:      -6.5      4.160      7.082
REMARK  6 active torsions:
REMARK  status: ('A' for Active; 'I' for Inactive)
REMARK    1  A    between atoms: O_2  and  C_3 
REMARK    2  A    between atoms: C_3  and  C_4 
REMARK    3  A    between atoms: C_4  and  N_5 
REMARK       I    between atoms: N_5  and  C_6 
REMARK    4  A    between atoms: C_6  and  C_7 
REMARK    5  A    between atoms: C_12  and  C_13 
REMARK    6  A    between atoms: C_20  and  C_21 
ROOT
HETATM    1  C   UNL     1      42.366 -16.771   3.623  1.00  0.00     0.165 A 
HETATM    2  N   UNL     1      41.310 -16.040   4.066  1.00  0.00    -0.163 NA
HETATM    3  N   UNL     1      40.738 -15.581   2.939  1.00  0.00    -0.238 N 
HETATM    4  C   UNL     1      41.335 -16.021   1.791  1.00  0.00     0.141 A 
HETATM    5  N   UNL     1      40.854 -15.686   0.569  1.00  0.00    -0.365 N 
HETATM    6  C   UNL     1      39.810 -14.683   0.399  1.00  0.00     0.118 C 
HETATM    7  C   UNL     1      38.856 -14.712   1.607  1.00  0.00     0.066 C 
HETATM    8  C   UNL     1      39.562 -14.733   2.977  1.00  0.00     0.221 C 
HETATM    9  C   UNL     1      42.397 -16.783   2.206  1.00  0.00     0.092 A 
HETATM   10 BR   UNL     1      43.637 -17.649   1.101  1.00  0.00    -0.044 Br
HETATM   11  H   UNL     1      41.397 -15.897  -0.269  1.00  0.00     0.162 HD
ENDROOT
BRANCH   1  12
HETATM   12  C   UNL     1      43.292 -17.406   4.574  1.00  0.00     0.273 C 
HETATM   13  N   UNL     1      43.443 -18.762   4.370  1.00  0.00    -0.353 N 
HETATM   14  H   UNL     1      42.797 -19.176   3.702  1.00  0.00     0.162 HD
HETATM   15  O   UNL     1      43.861 -16.807   5.484  1.00  0.00    -0.266 OA
BRANCH  13  16
HETATM   16  C   UNL     1      44.135 -19.613   5.313  1.00  0.00     0.149 C 
BRANCH  16  17
HETATM   17  C   UNL     1      44.863 -20.772   4.626  1.00  0.00     0.186 C 
BRANCH  17  18
HETATM   18  O   UNL     1      44.841 -20.564   3.210  1.00  0.00    -0.394 OA
HETATM   19  C   UNL     1      44.411 -21.730   2.519  1.00  0.00     0.201 C 
ENDBRANCH  17  18
ENDBRANCH  16  17
ENDBRANCH  13  16
ENDBRANCH   1  12
BRANCH   8  20
HETATM   20  C   UNL     1      39.916 -13.360   3.505  1.00  0.00     0.409 C 
HETATM   21  F   UNL     1      41.152 -12.948   3.169  1.00  0.00    -0.169 F 
HETATM   22  F   UNL     1      39.041 -12.436   3.027  1.00  0.00    -0.169 F 
HETATM   23  F   UNL     1      39.823 -13.299   4.854  1.00  0.00    -0.169 F 
ENDBRANCH   8  20
BRANCH   6  24
HETATM   24  C   UNL     1      40.351 -13.311   0.038  1.00  0.00    -0.035 A 
HETATM   25  C   UNL     1      41.741 -13.139  -0.095  1.00  0.00     0.009 A 
HETATM   26  C   UNL     1      42.285 -11.892  -0.415  1.00  0.00     0.001 A 
HETATM   27  C   UNL     1      41.452 -10.794  -0.605  1.00  0.00     0.000 A 
HETATM   28  C   UNL     1      40.075 -10.941  -0.470  1.00  0.00     0.001 A 
HETATM   29  C   UNL     1      39.529 -12.186  -0.146  1.00  0.00     0.009 A 
ENDBRANCH   6  24
TORSDOF 6
ENDMDL
MODEL 9
REMARK VINA RESULT:      -6.5      3.227      4.025
REMARK  6 active torsions:
REMARK  status: ('A' for Active; 'I' for Inactive)
REMARK    1  A    between atoms: O_2  and  C_3 
REMARK    2  A    between atoms: C_3  and  C_4 
REMARK    3  A    between atoms: C_4  and  N_5 
REMARK       I    between atoms: N_5  and  C_6 
REMARK    4  A    between atoms: C_6  and  C_7 
REMARK    5  A    between atoms: C_12  and  C_13 
REMARK    6  A    between atoms: C_20  and  C_21 
ROOT
HETATM    1  C   UNL     1      40.702 -13.286   3.143  1.00  0.00     0.165 A 
HETATM    2  N   UNL     1      41.130 -14.250   2.287  1.00  0.00    -0.163 NA
HETATM    3  N   UNL     1      41.167 -15.362   3.044  1.00  0.00    -0.238 N 
HETATM    4  C   UNL     1      40.734 -15.177   4.328  1.00  0.00     0.141 A 
HETATM    5  N   UNL     1      40.667 -16.205   5.207  1.00  0.00    -0.365 N 
HETATM    6  C   UNL     1      41.239 -17.514   4.911  1.00  0.00     0.118 C 
HETATM    7  C   UNL     1      41.134 -17.799   3.401  1.00  0.00     0.066 C 
HETATM    8  C   UNL     1      41.591 -16.636   2.498  1.00  0.00     0.221 C 
HETATM    9  C   UNL     1      40.437 -13.842   4.420  1.00  0.00     0.092 A 
HETATM   10 BR   UNL     1      39.819 -12.947   5.945  1.00  0.00    -0.044 Br
HETATM   11  H   UNL     1      40.488 -16.022   6.195  1.00  0.00     0.162 HD
ENDROOT
BRANCH   1  12
HETATM   12  C   UNL     1      40.580 -11.888   2.698  1.00  0.00     0.273 C 
HETATM   13  N   UNL     1      40.938 -11.699   1.381  1.00  0.00    -0.353 N 
HETATM   14  H   UNL     1      41.377 -12.498   0.929  1.00  0.00     0.162 HD
HETATM   15  O   UNL     1      40.222 -10.964   3.426  1.00  0.00    -0.266 OA
BRANCH  13  16
HETATM   16  C   UNL     1      41.094 -10.380   0.804  1.00  0.00     0.149 C 
BRANCH  16  17
HETATM   17  C   UNL     1      42.380 -10.253  -0.018  1.00  0.00     0.186 C 
BRANCH  17  18
HETATM   18  O   UNL     1      42.897 -11.561  -0.285  1.00  0.00    -0.394 OA
HETATM   19  C   UNL     1      42.886 -11.851  -1.676  1.00  0.00     0.201 C 
ENDBRANCH  17  18
ENDBRANCH  16  17
ENDBRANCH  13  16
ENDBRANCH   1  12
BRANCH   8  20
HETATM   20  C   UNL     1      43.079 -16.625   2.222  1.00  0.00     0.409 C 
HETATM   21  F   UNL     1      43.399 -16.265   0.966  1.00  0.00    -0.169 F 
HETATM   22  F   UNL     1      43.704 -15.757   3.060  1.00  0.00    -0.169 F 
HETATM   23  F   UNL     1      43.643 -17.835   2.451  1.00  0.00    -0.169 F 
ENDBRANCH   8  20
BRANCH   6  24
HETATM   24  C   UNL     1      42.620 -17.714   5.510  1.00  0.00    -0.035 A 
HETATM   25  C   UNL     1      43.229 -16.644   6.192  1.00  0.00     0.009 A 
HETATM   26  C   UNL     1      44.503 -16.778   6.750  1.00  0.00     0.001 A 
HETATM   27  C   UNL     1      45.193 -17.980   6.635  1.00  0.00     0.000 A 
HETATM   28  C   UNL     1      44.612 -19.047   5.957  1.00  0.00     0.001 A 
HETATM   29  C   UNL     1      43.340 -18.914   5.395  1.00  0.00     0.009 A 
ENDBRANCH   6  24
TORSDOF 6
ENDMDL
MODEL 10
REMARK VINA RESULT:      -6.4      3.719      4.908
REMARK  6 active torsions:
REMARK  status: ('A' for Active; 'I' for Inactive)
REMARK    1  A    between atoms: O_2  and  C_3 
REMARK    2  A    between atoms: C_3  and  C_4 
REMARK    3  A    between atoms: C_4  and  N_5 
REMARK       I    between atoms: N_5  and  C_6 
REMARK    4  A    between atoms: C_6  and  C_7 
REMARK    5  A    between atoms: C_12  and  C_13 
REMARK    6  A    between atoms: C_20  and  C_21 
ROOT
HETATM    1  C   UNL     1      40.367 -13.360   3.363  1.00  0.00     0.165 A 
HETATM    2  N   UNL     1      40.805 -14.276   2.461  1.00  0.00    -0.163 NA
HETATM    3  N   UNL     1      40.950 -15.400   3.185  1.00  0.00    -0.238 N 
HETATM    4  C   UNL     1      40.576 -15.272   4.494  1.00  0.00     0.141 A 
HETATM    5  N   UNL     1      40.619 -16.323   5.349  1.00  0.00    -0.365 N 
HETATM    6  C   UNL     1      41.251 -17.586   4.988  1.00  0.00     0.118 C 
HETATM    7  C   UNL     1      41.082 -17.843   3.480  1.00  0.00     0.066 C 
HETATM    8  C   UNL     1      41.419 -16.634   2.585  1.00  0.00     0.221 C 
HETATM    9  C   UNL     1      40.206 -13.960   4.637  1.00  0.00     0.092 A 
HETATM   10 BR   UNL     1      39.619 -13.140   6.216  1.00  0.00    -0.044 Br
HETATM   11  H   UNL     1      40.483 -16.173   6.349  1.00  0.00     0.162 HD
ENDROOT
BRANCH   1  12
HETATM   12  C   UNL     1      40.137 -11.962   2.963  1.00  0.00     0.273 C 
HETATM   13  N   UNL     1      38.820 -11.570   3.075  1.00  0.00    -0.353 N 
HETATM   14  H   UNL     1      38.158 -12.317   3.269  1.00  0.00     0.162 HD
HETATM   15  O   UNL     1      41.017 -11.215   2.541  1.00  0.00    -0.266 OA
BRANCH  13  16
HETATM   16  C   UNL     1      38.339 -10.314   2.539  1.00  0.00     0.149 C 
BRANCH  16  17
HETATM   17  C   UNL     1      38.213  -9.232   3.615  1.00  0.00     0.186 C 
BRANCH  17  18
HETATM   18  O   UNL     1      38.148  -9.857   4.901  1.00  0.00    -0.394 OA
HETATM   19  C   UNL     1      39.004  -9.214   5.836  1.00  0.00     0.201 C 
ENDBRANCH  17  18
ENDBRANCH  16  17
ENDBRANCH  13  16
ENDBRANCH   1  12
BRANCH   8  20
HETATM   20  C   UNL     1      42.886 -16.525   2.230  1.00  0.00     0.409 C 
HETATM   21  F   UNL     1      43.542 -17.699   2.252  1.00  0.00    -0.169 F 
HETATM   22  F   UNL     1      43.028 -16.009   0.981  1.00  0.00    -0.169 F 
HETATM   23  F   UNL     1      43.543 -15.680   3.059  1.00  0.00    -0.169 F 
ENDBRANCH   8  20
BRANCH   6  24
HETATM   24  C   UNL     1      42.672 -17.716   5.508  1.00  0.00    -0.035 A 
HETATM   25  C   UNL     1      43.219 -16.664   6.266  1.00  0.00     0.009 A 
HETATM   26  C   UNL     1      44.526 -16.733   6.756  1.00  0.00     0.001 A 
HETATM   27  C   UNL     1      45.311 -17.851   6.496  1.00  0.00     0.000 A 
HETATM   28  C   UNL     1      44.792 -18.898   5.741  1.00  0.00     0.001 A 
HETATM   29  C   UNL     1      43.487 -18.829   5.247  1.00  0.00     0.009 A 
ENDBRANCH   6  24
TORSDOF 6
ENDMDL
