MODEL 1
REMARK VINA RESULT:      -7.8      0.000      0.000
REMARK  7 active torsions:
REMARK  status: ('A' for Active; 'I' for Inactive)
REMARK    1  A    between atoms: C_2  and  C_3 
REMARK    2  A    between atoms: C_3  and  N_4 
REMARK    3  A    between atoms: C_7  and  C_8 
REMARK       I    between atoms: C_8  and  N_9 
REMARK    4  A    between atoms: N_9  and  C_10 
REMARK    5  A    between atoms: C_11  and  O_12 
REMARK    6  A    between atoms: C_16  and  C_17 
REMARK       I    between atoms: C_17  and  N_18 
REMARK    7  A    between atoms: C_23  and  C_24 
ROOT
HETATM    1  C   UNL     1      43.273 -17.900   7.200  1.00  0.00     0.259 C 
HETATM    2  N   UNL     1      43.571 -18.991   6.421  1.00  0.00    -0.320 N 
HETATM    3  O   UNL     1      43.507 -17.992   8.407  1.00  0.00    -0.267 OA
HETATM    4  H   UNL     1      43.639 -19.842   6.973  1.00  0.00     0.169 HD
ENDROOT
BRANCH   2   5
HETATM    5  C   UNL     1      43.789 -19.177   5.044  1.00  0.00     0.069 A 
HETATM    6  C   UNL     1      44.387 -20.399   4.665  1.00  0.00     0.095 A 
HETATM    7  C   UNL     1      44.647 -20.664   3.320  1.00  0.00     0.040 A 
HETATM    8  C   UNL     1      44.331 -19.708   2.354  1.00  0.00     0.020 A 
HETATM    9  C   UNL     1      43.780 -18.476   2.728  1.00  0.00     0.034 A 
HETATM   10  C   UNL     1      43.502 -18.210   4.076  1.00  0.00     0.049 A 
BRANCH   6  11
HETATM   11  O   UNL     1      44.681 -21.263   5.693  1.00  0.00    -0.354 OA
HETATM   12  C   UNL     1      45.157 -22.550   5.310  1.00  0.00     0.210 C 
ENDBRANCH   6  11
BRANCH   9  13
HETATM   13  C   UNL     1      43.524 -17.483   1.653  1.00  0.00     0.251 C 
HETATM   14  N   UNL     1      42.205 -17.312   1.282  1.00  0.00    -0.361 N 
HETATM   15  C   UNL     1      41.840 -16.253   0.373  1.00  0.00     0.149 C 
HETATM   16  H   UNL     1      41.478 -17.706   1.862  1.00  0.00     0.162 HD
HETATM   17  O   UNL     1      44.451 -16.826   1.190  1.00  0.00    -0.268 OA
ENDBRANCH   9  13
ENDBRANCH   2   5
BRANCH   1  18
HETATM   18  C   UNL     1      42.567 -16.755   6.634  1.00  0.00     0.076 A 
HETATM   19  C   UNL     1      41.183 -16.628   6.380  1.00  0.00     0.158 A 
HETATM   20  N   UNL     1      40.838 -15.424   5.936  1.00  0.00    -0.183 NA
HETATM   21  N   UNL     1      41.997 -14.730   5.936  1.00  0.00    -0.268 N 
HETATM   22  C   UNL     1      43.056 -15.463   6.422  1.00  0.00     0.052 A 
BRANCH  21  23
HETATM   23  C   UNL     1      41.969 -13.394   5.351  1.00  0.00     0.106 C 
HETATM   24  C   UNL     1      40.804 -12.581   5.919  1.00  0.00     0.034 C 
BRANCH  23  25
HETATM   25  C   UNL     1      41.929 -13.415   3.807  1.00  0.00     0.022 C 
HETATM   26  C   UNL     1      43.238 -13.900   3.196  1.00  0.00     0.007 C 
ENDBRANCH  23  25
ENDBRANCH  21  23
BRANCH  22  27
HETATM   27  C   UNL     1      44.489 -15.051   6.768  1.00  0.00     0.038 A 
HETATM   28  C   UNL     1      45.218 -13.803   6.350  1.00  0.00     0.011 A 
HETATM   29  C   UNL     1      44.620 -13.878   7.717  1.00  0.00     0.011 A 
ENDBRANCH  22  27
ENDBRANCH   1  18
TORSDOF 7
ENDMDL
MODEL 2
REMARK VINA RESULT:      -7.4      1.830      4.416
REMARK  7 active torsions:
REMARK  status: ('A' for Active; 'I' for Inactive)
REMARK    1  A    between atoms: C_2  and  C_3 
REMARK    2  A    between atoms: C_3  and  N_4 
REMARK    3  A    between atoms: C_7  and  C_8 
REMARK       I    between atoms: C_8  and  N_9 
REMARK    4  A    between atoms: N_9  and  C_10 
REMARK    5  A    between atoms: C_11  and  O_12 
REMARK    6  A    between atoms: C_16  and  C_17 
REMARK       I    between atoms: C_17  and  N_18 
REMARK    7  A    between atoms: C_23  and  C_24 
ROOT
HETATM    1  C   UNL     1      41.055 -16.729   5.908  1.00  0.00     0.259 C 
HETATM    2  N   UNL     1      41.073 -17.275   4.648  1.00  0.00    -0.320 N 
HETATM    3  O   UNL     1      39.978 -16.734   6.506  1.00  0.00    -0.267 OA
HETATM    4  H   UNL     1      40.142 -17.315   4.241  1.00  0.00     0.169 HD
ENDROOT
BRANCH   2   5
HETATM    5  C   UNL     1      42.090 -17.771   3.812  1.00  0.00     0.069 A 
HETATM    6  C   UNL     1      42.297 -17.077   2.599  1.00  0.00     0.095 A 
HETATM    7  C   UNL     1      43.279 -17.506   1.707  1.00  0.00     0.040 A 
HETATM    8  C   UNL     1      44.044 -18.633   2.010  1.00  0.00     0.020 A 
HETATM    9  C   UNL     1      43.813 -19.351   3.190  1.00  0.00     0.034 A 
HETATM   10  C   UNL     1      42.838 -18.916   4.099  1.00  0.00     0.049 A 
BRANCH   6  11
HETATM   11  O   UNL     1      41.477 -15.995   2.384  1.00  0.00    -0.354 OA
HETATM   12  C   UNL     1      41.631 -15.335   1.131  1.00  0.00     0.210 C 
ENDBRANCH   6  11
BRANCH   9  13
HETATM   13  C   UNL     1      44.624 -20.575   3.420  1.00  0.00     0.251 C 
HETATM   14  N   UNL     1      44.697 -21.023   4.724  1.00  0.00    -0.361 N 
HETATM   15  C   UNL     1      45.314 -22.292   5.021  1.00  0.00     0.149 C 
HETATM   16  H   UNL     1      44.067 -20.633   5.411  1.00  0.00     0.162 HD
HETATM   17  O   UNL     1      45.132 -21.162   2.470  1.00  0.00    -0.268 OA
ENDBRANCH   9  13
ENDBRANCH   2   5
BRANCH   1  18
HETATM   18  C   UNL     1      42.229 -16.040   6.434  1.00  0.00     0.076 A 
HETATM   19  C   UNL     1      43.272 -16.579   7.221  1.00  0.00     0.158 A 
HETATM   20  N   UNL     1      44.244 -15.709   7.472  1.00  0.00    -0.183 NA
HETATM   21  N   UNL     1      43.866 -14.594   6.810  1.00  0.00    -0.268 N 
HETATM   22  C   UNL     1      42.697 -14.765   6.105  1.00  0.00     0.052 A 
BRANCH  21  23
HETATM   23  C   UNL     1      44.672 -13.396   7.017  1.00  0.00     0.106 C 
HETATM   24  C   UNL     1      46.102 -13.615   6.521  1.00  0.00     0.034 C 
BRANCH  23  25
HETATM   25  C   UNL     1      44.664 -12.912   8.484  1.00  0.00     0.022 C 
HETATM   26  C   UNL     1      45.879 -12.056   8.823  1.00  0.00     0.007 C 
ENDBRANCH  23  25
ENDBRANCH  21  23
BRANCH  22  27
HETATM   27  C   UNL     1      41.994 -13.860   5.090  1.00  0.00     0.038 A 
HETATM   28  C   UNL     1      42.146 -12.374   4.916  1.00  0.00     0.011 A 
HETATM   29  C   UNL     1      42.876 -13.296   3.996  1.00  0.00     0.011 A 
ENDBRANCH  22  27
ENDBRANCH   1  18
TORSDOF 7
ENDMDL
MODEL 3
REMARK VINA RESULT:      -7.3      2.733      4.934
REMARK  7 active torsions:
REMARK  status: ('A' for Active; 'I' for Inactive)
REMARK    1  A    between atoms: C_2  and  C_3 
REMARK    2  A    between atoms: C_3  and  N_4 
REMARK    3  A    between atoms: C_7  and  C_8 
REMARK       I    between atoms: C_8  and  N_9 
REMARK    4  A    between atoms: N_9  and  C_10 
REMARK    5  A    between atoms: C_11  and  O_12 
REMARK    6  A    between atoms: C_16  and  C_17 
REMARK       I    between atoms: C_17  and  N_18 
REMARK    7  A    between atoms: C_23  and  C_24 
ROOT
HETATM    1  C   UNL     1      41.028 -14.519   5.356  1.00  0.00     0.259 C 
HETATM    2  N   UNL     1      41.282 -15.826   5.690  1.00  0.00    -0.320 N 
HETATM    3  O   UNL     1      40.285 -13.883   6.106  1.00  0.00    -0.267 OA
HETATM    4  H   UNL     1      40.577 -16.198   6.320  1.00  0.00     0.169 HD
ENDROOT
BRANCH   2   5
HETATM    5  C   UNL     1      42.288 -16.745   5.341  1.00  0.00     0.069 A 
HETATM    6  C   UNL     1      43.442 -16.749   6.156  1.00  0.00     0.095 A 
HETATM    7  C   UNL     1      44.493 -17.622   5.877  1.00  0.00     0.040 A 
HETATM    8  C   UNL     1      44.406 -18.480   4.781  1.00  0.00     0.020 A 
HETATM    9  C   UNL     1      43.285 -18.450   3.943  1.00  0.00     0.034 A 
HETATM   10  C   UNL     1      42.218 -17.585   4.226  1.00  0.00     0.049 A 
BRANCH   6  11
HETATM   11  O   UNL     1      43.440 -15.851   7.197  1.00  0.00    -0.354 OA
HETATM   12  C   UNL     1      44.388 -14.792   7.110  1.00  0.00     0.210 C 
ENDBRANCH   6  11
BRANCH   9  13
HETATM   13  C   UNL     1      43.286 -19.348   2.759  1.00  0.00     0.251 C 
HETATM   14  N   UNL     1      44.071 -20.480   2.853  1.00  0.00    -0.361 N 
HETATM   15  C   UNL     1      44.006 -21.495   1.830  1.00  0.00     0.149 C 
HETATM   16  H   UNL     1      44.445 -20.744   3.754  1.00  0.00     0.162 HD
HETATM   17  O   UNL     1      42.569 -19.097   1.796  1.00  0.00    -0.268 OA
ENDBRANCH   9  13
ENDBRANCH   2   5
BRANCH   1  18
HETATM   18  C   UNL     1      41.497 -13.972   4.087  1.00  0.00     0.076 A 
HETATM   19  C   UNL     1      42.809 -13.571   3.746  1.00  0.00     0.158 A 
HETATM   20  N   UNL     1      42.930 -13.192   2.478  1.00  0.00    -0.183 NA
HETATM   21  N   UNL     1      41.697 -13.384   1.959  1.00  0.00    -0.268 N 
HETATM   22  C   UNL     1      40.817 -13.926   2.868  1.00  0.00     0.052 A 
BRANCH  21  23
HETATM   23  C   UNL     1      41.472 -12.913   0.597  1.00  0.00     0.106 C 
HETATM   24  C   UNL     1      41.803 -14.011  -0.415  1.00  0.00     0.034 C 
BRANCH  23  25
HETATM   25  C   UNL     1      42.242 -11.614   0.276  1.00  0.00     0.022 C 
HETATM   26  C   UNL     1      42.819 -11.611  -1.136  1.00  0.00     0.007 C 
ENDBRANCH  23  25
ENDBRANCH  21  23
BRANCH  22  27
HETATM   27  C   UNL     1      39.396 -14.469   2.688  1.00  0.00     0.038 A 
HETATM   28  C   UNL     1      38.609 -14.594   1.413  1.00  0.00     0.011 A 
HETATM   29  C   UNL     1      39.290 -15.799   1.973  1.00  0.00     0.011 A 
ENDBRANCH  22  27
ENDBRANCH   1  18
TORSDOF 7
ENDMDL
MODEL 4
REMARK VINA RESULT:      -7.3      1.692      2.206
REMARK  7 active torsions:
REMARK  status: ('A' for Active; 'I' for Inactive)
REMARK    1  A    between atoms: C_2  and  C_3 
REMARK    2  A    between atoms: C_3  and  N_4 
REMARK    3  A    between atoms: C_7  and  C_8 
REMARK       I    between atoms: C_8  and  N_9 
REMARK    4  A    between atoms: N_9  and  C_10 
REMARK    5  A    between atoms: C_11  and  O_12 
REMARK    6  A    between atoms: C_16  and  C_17 
REMARK       I    between atoms: C_17  and  N_18 
REMARK    7  A    between atoms: C_23  and  C_24 
ROOT
HETATM    1  C   UNL     1      41.989 -17.207   6.103  1.00  0.00     0.259 C 
HETATM    2  N   UNL     1      42.132 -18.044   5.024  1.00  0.00    -0.320 N 
HETATM    3  O   UNL     1      42.089 -17.713   7.223  1.00  0.00    -0.267 OA
HETATM    4  H   UNL     1      41.978 -19.016   5.277  1.00  0.00     0.169 HD
ENDROOT
BRANCH   2   5
HETATM    5  C   UNL     1      42.432 -17.842   3.665  1.00  0.00     0.069 A 
HETATM    6  C   UNL     1      43.611 -18.457   3.186  1.00  0.00     0.095 A 
HETATM    7  C   UNL     1      43.989 -18.302   1.853  1.00  0.00     0.040 A 
HETATM    8  C   UNL     1      43.207 -17.524   0.998  1.00  0.00     0.020 A 
HETATM    9  C   UNL     1      42.062 -16.875   1.478  1.00  0.00     0.034 A 
HETATM   10  C   UNL     1      41.668 -17.039   2.813  1.00  0.00     0.049 A 
BRANCH   6  11
HETATM   11  O   UNL     1      44.323 -19.183   4.112  1.00  0.00    -0.354 OA
HETATM   12  C   UNL     1      44.778 -20.462   3.685  1.00  0.00     0.210 C 
ENDBRANCH   6  11
BRANCH   9  13
HETATM   13  C   UNL     1      41.311 -16.014   0.528  1.00  0.00     0.251 C 
HETATM   14  N   UNL     1      41.732 -16.045  -0.787  1.00  0.00    -0.361 N 
HETATM   15  C   UNL     1      40.963 -15.380  -1.810  1.00  0.00     0.149 C 
HETATM   16  H   UNL     1      42.378 -16.766  -1.078  1.00  0.00     0.162 HD
HETATM   17  O   UNL     1      40.339 -15.375   0.915  1.00  0.00    -0.268 OA
ENDBRANCH   9  13
ENDBRANCH   2   5
BRANCH   1  18
HETATM   18  C   UNL     1      41.580 -15.819   5.916  1.00  0.00     0.076 A 
HETATM   19  C   UNL     1      40.277 -15.278   6.004  1.00  0.00     0.158 A 
HETATM   20  N   UNL     1      40.245 -13.957   5.863  1.00  0.00    -0.183 NA
HETATM   21  N   UNL     1      41.543 -13.611   5.723  1.00  0.00    -0.268 N 
HETATM   22  C   UNL     1      42.395 -14.688   5.825  1.00  0.00     0.052 A 
BRANCH  21  23
HETATM   23  C   UNL     1      41.825 -12.217   5.397  1.00  0.00     0.106 C 
HETATM   24  C   UNL     1      41.369 -11.296   6.531  1.00  0.00     0.034 C 
BRANCH  23  25
HETATM   25  C   UNL     1      41.215 -11.779   4.049  1.00  0.00     0.022 C 
HETATM   26  C   UNL     1      41.751 -12.590   2.874  1.00  0.00     0.007 C 
ENDBRANCH  23  25
ENDBRANCH  21  23
BRANCH  22  27
HETATM   27  C   UNL     1      43.922 -14.756   5.907  1.00  0.00     0.038 A 
HETATM   28  C   UNL     1      44.862 -13.742   6.497  1.00  0.00     0.011 A 
HETATM   29  C   UNL     1      44.494 -14.948   7.296  1.00  0.00     0.011 A 
ENDBRANCH  22  27
ENDBRANCH   1  18
TORSDOF 7
ENDMDL
MODEL 5
REMARK VINA RESULT:      -7.3      3.014      6.426
REMARK  7 active torsions:
REMARK  status: ('A' for Active; 'I' for Inactive)
REMARK    1  A    between atoms: C_2  and  C_3 
REMARK    2  A    between atoms: C_3  and  N_4 
REMARK    3  A    between atoms: C_7  and  C_8 
REMARK       I    between atoms: C_8  and  N_9 
REMARK    4  A    between atoms: N_9  and  C_10 
REMARK    5  A    between atoms: C_11  and  O_12 
REMARK    6  A    between atoms: C_16  and  C_17 
REMARK       I    between atoms: C_17  and  N_18 
REMARK    7  A    between atoms: C_23  and  C_24 
ROOT
HETATM    1  C   UNL     1      43.411 -14.272   3.252  1.00  0.00     0.259 C 
HETATM    2  N   UNL     1      42.586 -13.453   2.522  1.00  0.00    -0.320 N 
HETATM    3  O   UNL     1      44.117 -13.738   4.109  1.00  0.00    -0.267 OA
HETATM    4  H   UNL     1      42.895 -12.485   2.551  1.00  0.00     0.169 HD
ENDROOT
BRANCH   2   5
HETATM    5  C   UNL     1      41.431 -13.667   1.749  1.00  0.00     0.069 A 
HETATM    6  C   UNL     1      40.199 -13.622   2.439  1.00  0.00     0.095 A 
HETATM    7  C   UNL     1      39.004 -13.832   1.752  1.00  0.00     0.040 A 
HETATM    8  C   UNL     1      39.032 -14.104   0.384  1.00  0.00     0.020 A 
HETATM    9  C   UNL     1      40.252 -14.195  -0.297  1.00  0.00     0.034 A 
HETATM   10  C   UNL     1      41.456 -13.969   0.385  1.00  0.00     0.049 A 
BRANCH   6  11
HETATM   11  O   UNL     1      40.280 -13.370   3.788  1.00  0.00    -0.354 OA
HETATM   12  C   UNL     1      39.960 -14.460   4.647  1.00  0.00     0.210 C 
ENDBRANCH   6  11
BRANCH   9  13
HETATM   13  C   UNL     1      40.210 -14.547  -1.740  1.00  0.00     0.251 C 
HETATM   14  N   UNL     1      38.977 -14.912  -2.243  1.00  0.00    -0.361 N 
HETATM   15  C   UNL     1      38.801 -15.105  -3.662  1.00  0.00     0.149 C 
HETATM   16  H   UNL     1      38.151 -14.746  -1.685  1.00  0.00     0.162 HD
HETATM   17  O   UNL     1      41.221 -14.445  -2.427  1.00  0.00    -0.268 OA
ENDBRANCH   9  13
ENDBRANCH   2   5
BRANCH   1  18
HETATM   18  C   UNL     1      43.546 -15.684   2.908  1.00  0.00     0.076 A 
HETATM   19  C   UNL     1      44.112 -16.242   1.739  1.00  0.00     0.158 A 
HETATM   20  N   UNL     1      44.163 -17.570   1.762  1.00  0.00    -0.183 NA
HETATM   21  N   UNL     1      43.666 -17.896   2.975  1.00  0.00    -0.268 N 
HETATM   22  C   UNL     1      43.351 -16.793   3.735  1.00  0.00     0.052 A 
BRANCH  21  23
HETATM   23  C   UNL     1      43.454 -19.315   3.244  1.00  0.00     0.106 C 
HETATM   24  C   UNL     1      44.654 -19.908   3.983  1.00  0.00     0.034 C 
BRANCH  23  25
HETATM   25  C   UNL     1      43.132 -20.126   1.970  1.00  0.00     0.022 C 
HETATM   26  C   UNL     1      43.883 -21.452   1.916  1.00  0.00     0.007 C 
ENDBRANCH  23  25
ENDBRANCH  21  23
BRANCH  22  27
HETATM   27  C   UNL     1      42.936 -16.670   5.203  1.00  0.00     0.038 A 
HETATM   28  C   UNL     1      42.841 -17.764   6.232  1.00  0.00     0.011 A 
HETATM   29  C   UNL     1      44.043 -16.877   6.216  1.00  0.00     0.011 A 
ENDBRANCH  22  27
ENDBRANCH   1  18
TORSDOF 7
ENDMDL
MODEL 6
REMARK VINA RESULT:      -7.3      2.979      6.377
REMARK  7 active torsions:
REMARK  status: ('A' for Active; 'I' for Inactive)
REMARK    1  A    between atoms: C_2  and  C_3 
REMARK    2  A    between atoms: C_3  and  N_4 
REMARK    3  A    between atoms: C_7  and  C_8 
REMARK       I    between atoms: C_8  and  N_9 
REMARK    4  A    between atoms: N_9  and  C_10 
REMARK    5  A    between atoms: C_11  and  O_12 
REMARK    6  A    between atoms: C_16  and  C_17 
REMARK       I    between atoms: C_17  and  N_18 
REMARK    7  A    between atoms: C_23  and  C_24 
ROOT
HETATM    1  C   UNL     1      40.608 -16.620   6.005  1.00  0.00     0.259 C 
HETATM    2  N   UNL     1      40.640 -15.306   6.401  1.00  0.00    -0.320 N 
HETATM    3  O   UNL     1      40.123 -17.433   6.794  1.00  0.00    -0.267 OA
HETATM    4  H   UNL     1      40.563 -15.215   7.411  1.00  0.00     0.169 HD
ENDROOT
BRANCH   2   5
HETATM    5  C   UNL     1      40.764 -14.082   5.719  1.00  0.00     0.069 A 
HETATM    6  C   UNL     1      42.074 -13.571   5.584  1.00  0.00     0.095 A 
HETATM    7  C   UNL     1      42.288 -12.358   4.929  1.00  0.00     0.040 A 
HETATM    8  C   UNL     1      41.201 -11.645   4.423  1.00  0.00     0.020 A 
HETATM    9  C   UNL     1      39.896 -12.124   4.594  1.00  0.00     0.034 A 
HETATM   10  C   UNL     1      39.675 -13.350   5.238  1.00  0.00     0.049 A 
BRANCH   6  11
HETATM   11  O   UNL     1      43.073 -14.337   6.136  1.00  0.00    -0.354 OA
HETATM   12  C   UNL     1      44.090 -13.627   6.836  1.00  0.00     0.210 C 
ENDBRANCH   6  11
BRANCH   9  13
HETATM   13  C   UNL     1      38.782 -11.283   4.083  1.00  0.00     0.251 C 
HETATM   14  N   UNL     1      38.567 -11.318   2.719  1.00  0.00    -0.361 N 
HETATM   15  C   UNL     1      37.408 -10.674   2.152  1.00  0.00     0.149 C 
HETATM   16  H   UNL     1      39.027 -12.031   2.169  1.00  0.00     0.162 HD
HETATM   17  O   UNL     1      38.077 -10.657   4.866  1.00  0.00    -0.268 OA
ENDBRANCH   9  13
ENDBRANCH   2   5
BRANCH   1  18
HETATM   18  C   UNL     1      41.265 -17.038   4.770  1.00  0.00     0.076 A 
HETATM   19  C   UNL     1      40.974 -16.627   3.450  1.00  0.00     0.158 A 
HETATM   20  N   UNL     1      41.811 -17.128   2.547  1.00  0.00    -0.183 NA
HETATM   21  N   UNL     1      42.693 -17.843   3.278  1.00  0.00    -0.268 N 
HETATM   22  C   UNL     1      42.454 -17.759   4.631  1.00  0.00     0.052 A 
BRANCH  21  23
HETATM   23  C   UNL     1      43.665 -18.646   2.543  1.00  0.00     0.106 C 
HETATM   24  C   UNL     1      44.259 -17.844   1.384  1.00  0.00     0.034 C 
BRANCH  23  25
HETATM   25  C   UNL     1      43.085 -19.988   2.048  1.00  0.00     0.022 C 
HETATM   26  C   UNL     1      44.078 -21.137   2.179  1.00  0.00     0.007 C 
ENDBRANCH  23  25
ENDBRANCH  21  23
BRANCH  22  27
HETATM   27  C   UNL     1      43.275 -18.245   5.828  1.00  0.00     0.038 A 
HETATM   28  C   UNL     1      44.626 -18.906   5.816  1.00  0.00     0.011 A 
HETATM   29  C   UNL     1      44.528 -17.449   6.128  1.00  0.00     0.011 A 
ENDBRANCH  22  27
ENDBRANCH   1  18
TORSDOF 7
ENDMDL
MODEL 7
REMARK VINA RESULT:      -7.1      4.028      7.524
REMARK  7 active torsions:
REMARK  status: ('A' for Active; 'I' for Inactive)
REMARK    1  A    between atoms: C_2  and  C_3 
REMARK    2  A    between atoms: C_3  and  N_4 
REMARK    3  A    between atoms: C_7  and  C_8 
REMARK       I    between atoms: C_8  and  N_9 
REMARK    4  A    between atoms: N_9  and  C_10 
REMARK    5  A    between atoms: C_11  and  O_12 
REMARK    6  A    between atoms: C_16  and  C_17 
REMARK       I    between atoms: C_17  and  N_18 
REMARK    7  A    between atoms: C_23  and  C_24 
ROOT
HETATM    1  C   UNL     1      40.930 -12.434   2.309  1.00  0.00     0.259 C 
HETATM    2  N   UNL     1      40.902 -11.922   1.036  1.00  0.00    -0.320 N 
HETATM    3  O   UNL     1      40.263 -11.848   3.164  1.00  0.00    -0.267 OA
HETATM    4  H   UNL     1      40.604 -10.950   1.026  1.00  0.00     0.169 HD
ENDROOT
BRANCH   2   5
HETATM    5  C   UNL     1      41.202 -12.446  -0.235  1.00  0.00     0.069 A 
HETATM    6  C   UNL     1      42.404 -11.999  -0.827  1.00  0.00     0.095 A 
HETATM    7  C   UNL     1      42.775 -12.461  -2.090  1.00  0.00     0.040 A 
HETATM    8  C   UNL     1      41.945 -13.352  -2.771  1.00  0.00     0.020 A 
HETATM    9  C   UNL     1      40.731 -13.763  -2.209  1.00  0.00     0.034 A 
HETATM   10  C   UNL     1      40.359 -13.315  -0.933  1.00  0.00     0.049 A 
BRANCH   6  11
HETATM   11  O   UNL     1      43.138 -11.105  -0.085  1.00  0.00    -0.354 OA
HETATM   12  C   UNL     1      43.445  -9.869  -0.722  1.00  0.00     0.210 C 
ENDBRANCH   6  11
BRANCH   9  13
HETATM   13  C   UNL     1      39.869 -14.666  -3.016  1.00  0.00     0.251 C 
HETATM   14  N   UNL     1      38.523 -14.658  -2.710  1.00  0.00    -0.361 N 
HETATM   15  C   UNL     1      37.586 -15.367  -3.547  1.00  0.00     0.149 C 
HETATM   16  H   UNL     1      38.161 -13.931  -2.109  1.00  0.00     0.162 HD
HETATM   17  O   UNL     1      40.354 -15.317  -3.935  1.00  0.00    -0.268 OA
ENDBRANCH   9  13
ENDBRANCH   2   5
BRANCH   1  18
HETATM   18  C   UNL     1      41.837 -13.525   2.650  1.00  0.00     0.076 A 
HETATM   19  C   UNL     1      43.206 -13.442   2.990  1.00  0.00     0.158 A 
HETATM   20  N   UNL     1      43.735 -14.612   3.331  1.00  0.00    -0.183 NA
HETATM   21  N   UNL     1      42.698 -15.475   3.258  1.00  0.00    -0.268 N 
HETATM   22  C   UNL     1      41.514 -14.856   2.927  1.00  0.00     0.052 A 
BRANCH  21  23
HETATM   23  C   UNL     1      43.001 -16.891   3.437  1.00  0.00     0.106 C 
HETATM   24  C   UNL     1      43.528 -17.155   4.849  1.00  0.00     0.034 C 
BRANCH  23  25
HETATM   25  C   UNL     1      43.976 -17.436   2.372  1.00  0.00     0.022 C 
HETATM   26  C   UNL     1      43.356 -17.479   0.980  1.00  0.00     0.007 C 
ENDBRANCH  23  25
ENDBRANCH  21  23
BRANCH  22  27
HETATM   27  C   UNL     1      40.078 -15.384   2.902  1.00  0.00     0.038 A 
HETATM   28  C   UNL     1      39.037 -15.181   1.836  1.00  0.00     0.011 A 
HETATM   29  C   UNL     1      39.797 -16.466   1.881  1.00  0.00     0.011 A 
ENDBRANCH  22  27
ENDBRANCH   1  18
TORSDOF 7
ENDMDL
MODEL 8
REMARK VINA RESULT:      -7.0      2.399      4.278
REMARK  7 active torsions:
REMARK  status: ('A' for Active; 'I' for Inactive)
REMARK    1  A    between atoms: C_2  and  C_3 
REMARK    2  A    between atoms: C_3  and  N_4 
REMARK    3  A    between atoms: C_7  and  C_8 
REMARK       I    between atoms: C_8  and  N_9 
REMARK    4  A    between atoms: N_9  and  C_10 
REMARK    5  A    between atoms: C_11  and  O_12 
REMARK    6  A    between atoms: C_16  and  C_17 
REMARK       I    between atoms: C_17  and  N_18 
REMARK    7  A    between atoms: C_23  and  C_24 
ROOT
HETATM    1  C   UNL     1      40.576 -15.431   4.946  1.00  0.00     0.259 C 
HETATM    2  N   UNL     1      41.160 -16.523   5.538  1.00  0.00    -0.320 N 
HETATM    3  O   UNL     1      39.875 -14.713   5.661  1.00  0.00    -0.267 OA
HETATM    4  H   UNL     1      40.685 -16.786   6.397  1.00  0.00     0.169 HD
ENDROOT
BRANCH   2   5
HETATM    5  C   UNL     1      42.252 -17.347   5.207  1.00  0.00     0.069 A 
HETATM    6  C   UNL     1      43.339 -17.338   6.109  1.00  0.00     0.095 A 
HETATM    7  C   UNL     1      44.466 -18.119   5.854  1.00  0.00     0.040 A 
HETATM    8  C   UNL     1      44.521 -18.895   4.697  1.00  0.00     0.020 A 
HETATM    9  C   UNL     1      43.466 -18.874   3.776  1.00  0.00     0.034 A 
HETATM   10  C   UNL     1      42.324 -18.103   4.034  1.00  0.00     0.049 A 
BRANCH   6  11
HETATM   11  O   UNL     1      43.195 -16.523   7.207  1.00  0.00    -0.354 OA
HETATM   12  C   UNL     1      43.428 -17.133   8.472  1.00  0.00     0.210 C 
ENDBRANCH   6  11
BRANCH   9  13
HETATM   13  C   UNL     1      43.619 -19.679   2.536  1.00  0.00     0.251 C 
HETATM   14  N   UNL     1      44.160 -20.940   2.690  1.00  0.00    -0.361 N 
HETATM   15  C   UNL     1      44.190 -21.857   1.577  1.00  0.00     0.149 C 
HETATM   16  H   UNL     1      44.247 -21.325   3.620  1.00  0.00     0.162 HD
HETATM   17  O   UNL     1      43.217 -19.238   1.465  1.00  0.00    -0.268 OA
ENDBRANCH   9  13
ENDBRANCH   2   5
BRANCH   1  18
HETATM   18  C   UNL     1      40.665 -15.234   3.502  1.00  0.00     0.076 A 
HETATM   19  C   UNL     1      39.769 -15.687   2.508  1.00  0.00     0.158 A 
HETATM   20  N   UNL     1      40.086 -15.271   1.286  1.00  0.00    -0.183 NA
HETATM   21  N   UNL     1      41.178 -14.499   1.475  1.00  0.00    -0.268 N 
HETATM   22  C   UNL     1      41.522 -14.381   2.802  1.00  0.00     0.052 A 
BRANCH  21  23
HETATM   23  C   UNL     1      41.857 -14.009   0.280  1.00  0.00     0.106 C 
HETATM   24  C   UNL     1      41.765 -12.484   0.196  1.00  0.00     0.034 C 
BRANCH  23  25
HETATM   25  C   UNL     1      41.340 -14.667  -1.017  1.00  0.00     0.022 C 
HETATM   26  C   UNL     1      41.294 -13.692  -2.189  1.00  0.00     0.007 C 
ENDBRANCH  23  25
ENDBRANCH  21  23
BRANCH  22  27
HETATM   27  C   UNL     1      42.553 -13.488   3.497  1.00  0.00     0.038 A 
HETATM   28  C   UNL     1      43.230 -13.714   4.821  1.00  0.00     0.011 A 
HETATM   29  C   UNL     1      43.961 -14.043   3.561  1.00  0.00     0.011 A 
ENDBRANCH  22  27
ENDBRANCH   1  18
TORSDOF 7
ENDMDL
MODEL 9
REMARK VINA RESULT:      -6.9      3.853      7.154
REMARK  7 active torsions:
REMARK  status: ('A' for Active; 'I' for Inactive)
REMARK    1  A    between atoms: C_2  and  C_3 
REMARK    2  A    between atoms: C_3  and  N_4 
REMARK    3  A    between atoms: C_7  and  C_8 
REMARK       I    between atoms: C_8  and  N_9 
REMARK    4  A    between atoms: N_9  and  C_10 
REMARK    5  A    between atoms: C_11  and  O_12 
REMARK    6  A    between atoms: C_16  and  C_17 
REMARK       I    between atoms: C_17  and  N_18 
REMARK    7  A    between atoms: C_23  and  C_24 
ROOT
HETATM    1  C   UNL     1      40.283 -13.256   2.320  1.00  0.00     0.259 C 
HETATM    2  N   UNL     1      40.744 -12.539   1.244  1.00  0.00    -0.320 N 
HETATM    3  O   UNL     1      39.789 -12.615   3.250  1.00  0.00    -0.267 OA
HETATM    4  H   UNL     1      40.919 -11.567   1.485  1.00  0.00     0.169 HD
ENDROOT
BRANCH   2   5
HETATM    5  C   UNL     1      41.030 -12.862  -0.095  1.00  0.00     0.069 A 
HETATM    6  C   UNL     1      42.168 -12.245  -0.659  1.00  0.00     0.095 A 
HETATM    7  C   UNL     1      42.520 -12.502  -1.984  1.00  0.00     0.040 A 
HETATM    8  C   UNL     1      41.733 -13.358  -2.754  1.00  0.00     0.020 A 
HETATM    9  C   UNL     1      40.578 -13.938  -2.215  1.00  0.00     0.034 A 
HETATM   10  C   UNL     1      40.227 -13.696  -0.879  1.00  0.00     0.049 A 
BRANCH   6  11
HETATM   11  O   UNL     1      42.863 -11.401   0.175  1.00  0.00    -0.354 OA
HETATM   12  C   UNL     1      42.989 -10.052  -0.265  1.00  0.00     0.210 C 
ENDBRANCH   6  11
BRANCH   9  13
HETATM   13  C   UNL     1      39.754 -14.791  -3.111  1.00  0.00     0.251 C 
HETATM   14  N   UNL     1      38.399 -14.820  -2.849  1.00  0.00    -0.361 N 
HETATM   15  C   UNL     1      37.498 -15.479  -3.763  1.00  0.00     0.149 C 
HETATM   16  H   UNL     1      38.008 -14.141  -2.211  1.00  0.00     0.162 HD
HETATM   17  O   UNL     1      40.276 -15.371  -4.057  1.00  0.00    -0.268 OA
ENDBRANCH   9  13
ENDBRANCH   2   5
BRANCH   1  18
HETATM   18  C   UNL     1      40.518 -14.693   2.410  1.00  0.00     0.076 A 
HETATM   19  C   UNL     1      39.687 -15.739   1.949  1.00  0.00     0.158 A 
HETATM   20  N   UNL     1      40.223 -16.945   2.106  1.00  0.00    -0.183 NA
HETATM   21  N   UNL     1      41.440 -16.696   2.636  1.00  0.00    -0.268 N 
HETATM   22  C   UNL     1      41.698 -15.350   2.767  1.00  0.00     0.052 A 
BRANCH  21  23
HETATM   23  C   UNL     1      42.224 -17.850   3.064  1.00  0.00     0.106 C 
HETATM   24  C   UNL     1      42.140 -18.025   4.581  1.00  0.00     0.034 C 
BRANCH  23  25
HETATM   25  C   UNL     1      43.694 -17.785   2.595  1.00  0.00     0.022 C 
HETATM   26  C   UNL     1      43.821 -17.749   1.076  1.00  0.00     0.007 C 
ENDBRANCH  23  25
ENDBRANCH  21  23
BRANCH  22  27
HETATM   27  C   UNL     1      42.981 -14.606   3.144  1.00  0.00     0.038 A 
HETATM   28  C   UNL     1      43.117 -13.360   3.975  1.00  0.00     0.011 A 
HETATM   29  C   UNL     1      43.381 -14.689   4.603  1.00  0.00     0.011 A 
ENDBRANCH  22  27
ENDBRANCH   1  18
TORSDOF 7
ENDMDL
MODEL 10
REMARK VINA RESULT:      -6.9      2.343      5.711
REMARK  7 active torsions:
REMARK  status: ('A' for Active; 'I' for Inactive)
REMARK    1  A    between atoms: C_2  and  C_3 
REMARK    2  A    between atoms: C_3  and  N_4 
REMARK    3  A    between atoms: C_7  and  C_8 
REMARK       I    between atoms: C_8  and  N_9 
REMARK    4  A    between atoms: N_9  and  C_10 
REMARK    5  A    between atoms: C_11  and  O_12 
REMARK    6  A    between atoms: C_16  and  C_17 
REMARK       I    between atoms: C_17  and  N_18 
REMARK    7  A    between atoms: C_23  and  C_24 
ROOT
HETATM    1  C   UNL     1      41.022 -16.684   5.622  1.00  0.00     0.259 C 
HETATM    2  N   UNL     1      41.052 -15.370   5.226  1.00  0.00    -0.320 N 
HETATM    3  O   UNL     1      40.323 -16.961   6.598  1.00  0.00    -0.267 OA
HETATM    4  H   UNL     1      40.761 -14.745   5.973  1.00  0.00     0.169 HD
ENDROOT
BRANCH   2   5
HETATM    5  C   UNL     1      41.403 -14.717   4.030  1.00  0.00     0.069 A 
HETATM    6  C   UNL     1      42.353 -13.679   4.140  1.00  0.00     0.095 A 
HETATM    7  C   UNL     1      42.752 -12.972   3.006  1.00  0.00     0.040 A 
HETATM    8  C   UNL     1      42.196 -13.285   1.765  1.00  0.00     0.020 A 
HETATM    9  C   UNL     1      41.219 -14.283   1.657  1.00  0.00     0.034 A 
HETATM   10  C   UNL     1      40.825 -15.007   2.791  1.00  0.00     0.049 A 
BRANCH   6  11
HETATM   11  O   UNL     1      42.824 -13.433   5.408  1.00  0.00    -0.354 OA
HETATM   12  C   UNL     1      44.111 -13.965   5.710  1.00  0.00     0.210 C 
ENDBRANCH   6  11
BRANCH   9  13
HETATM   13  C   UNL     1      40.626 -14.522   0.316  1.00  0.00     0.251 C 
HETATM   14  N   UNL     1      41.478 -15.022  -0.648  1.00  0.00    -0.361 N 
HETATM   15  C   UNL     1      40.959 -15.446  -1.926  1.00  0.00     0.149 C 
HETATM   16  H   UNL     1      42.383 -15.374  -0.367  1.00  0.00     0.162 HD
HETATM   17  O   UNL     1      39.428 -14.333   0.132  1.00  0.00    -0.268 OA
ENDBRANCH   9  13
ENDBRANCH   2   5
BRANCH   1  18
HETATM   18  C   UNL     1      41.906 -17.666   5.001  1.00  0.00     0.076 A 
HETATM   19  C   UNL     1      41.796 -18.242   3.715  1.00  0.00     0.158 A 
HETATM   20  N   UNL     1      42.810 -19.045   3.410  1.00  0.00    -0.183 NA
HETATM   21  N   UNL     1      43.623 -18.968   4.485  1.00  0.00    -0.268 N 
HETATM   22  C   UNL     1      43.162 -18.091   5.440  1.00  0.00     0.052 A 
BRANCH  21  23
HETATM   23  C   UNL     1      44.771 -19.869   4.512  1.00  0.00     0.106 C 
HETATM   24  C   UNL     1      45.102 -20.362   3.103  1.00  0.00     0.034 C 
BRANCH  23  25
HETATM   25  C   UNL     1      44.582 -21.054   5.484  1.00  0.00     0.022 C 
HETATM   26  C   UNL     1      44.834 -22.402   4.816  1.00  0.00     0.007 C 
ENDBRANCH  23  25
ENDBRANCH  21  23
BRANCH  22  27
HETATM   27  C   UNL     1      43.820 -17.557   6.715  1.00  0.00     0.038 A 
HETATM   28  C   UNL     1      43.170 -17.274   8.041  1.00  0.00     0.011 A 
HETATM   29  C   UNL     1      43.931 -18.545   7.857  1.00  0.00     0.011 A 
ENDBRANCH  22  27
ENDBRANCH   1  18
TORSDOF 7
ENDMDL
