MODEL 1
REMARK VINA RESULT:      -8.7      0.000      0.000
REMARK  5 active torsions:
REMARK  status: ('A' for Active; 'I' for Inactive)
REMARK    1  A    between atoms: C_2  and  O_3 
REMARK    2  A    between atoms: O_3  and  C_4 
REMARK    3  A    between atoms: C_7  and  C_8 
REMARK       I    between atoms: N_11  and  C_12 
REMARK    4  A    between atoms: C_12  and  C_13 
REMARK    5  A    between atoms: C_15  and  C_16 
ROOT
HETATM    1  C   UNL     1      40.519 -14.851   1.463  1.00  0.00    -0.049 C 
HETATM    2  C   UNL     1      39.502 -14.796   2.578  1.00  0.00     0.059 C 
HETATM    3  C   UNL     1      40.154 -14.657   3.951  1.00  0.00     0.131 C 
HETATM    4  N   UNL     1      41.267 -15.586   4.124  1.00  0.00    -0.344 N 
HETATM    5  C   UNL     1      41.501 -16.028   5.432  1.00  0.00     0.254 C 
HETATM    6  O   UNL     1      40.748 -15.784   6.373  1.00  0.00    -0.267 OA
HETATM    7  C   UNL     1      42.324 -15.510   3.118  1.00  0.00     0.154 C 
HETATM    8  C   UNL     1      41.793 -15.182   1.749  1.00  0.00     0.001 C 
ENDROOT
BRANCH   5   9
HETATM    9  C   UNL     1      42.719 -16.809   5.739  1.00  0.00     0.033 A 
HETATM   10  C   UNL     1      42.927 -18.005   5.042  1.00  0.00     0.032 A 
HETATM   11  C   UNL     1      44.094 -18.752   5.246  1.00  0.00     0.014 A 
HETATM   12  C   UNL     1      45.048 -18.276   6.159  1.00  0.00     0.015 A 
HETATM   13  C   UNL     1      44.851 -17.070   6.839  1.00  0.00     0.002 A 
HETATM   14  C   UNL     1      43.692 -16.325   6.618  1.00  0.00     0.017 A 
BRANCH  11  15
HETATM   15  C   UNL     1      44.329 -19.988   4.505  1.00  0.00     0.181 A 
HETATM   16  N   UNL     1      44.745 -21.134   5.066  1.00  0.00    -0.152 NA
HETATM   17  N   UNL     1      44.778 -21.968   4.019  1.00  0.00    -0.263 N 
HETATM   18  H   UNL     1      45.051 -22.933   4.163  1.00  0.00     0.190 HD
HETATM   19  C   UNL     1      44.409 -21.339   2.867  1.00  0.00     0.118 A 
HETATM   20  C   UNL     1      44.360 -22.015   1.556  1.00  0.00     0.093 C 
HETATM   21  N   UNL     1      44.128 -20.084   3.143  1.00  0.00    -0.212 NA
ENDBRANCH  11  15
ENDBRANCH   5   9
BRANCH   1  22
HETATM   22  C   UNL     1      40.056 -14.541   0.084  1.00  0.00    -0.030 A 
HETATM   23  C   UNL     1      40.798 -14.955  -1.034  1.00  0.00     0.014 A 
HETATM   24  C   UNL     1      40.349 -14.718  -2.342  1.00  0.00     0.037 A 
HETATM   25  C   UNL     1      39.144 -14.057  -2.561  1.00  0.00     0.068 A 
HETATM   26  C   UNL     1      38.404 -13.626  -1.462  1.00  0.00     0.037 A 
HETATM   27  C   UNL     1      38.848 -13.872  -0.156  1.00  0.00     0.014 A 
BRANCH  25  28
HETATM   28  O   UNL     1      38.592 -13.770  -3.778  1.00  0.00    -0.352 OA
BRANCH  28  29
HETATM   29  C   UNL     1      37.241 -13.314  -3.781  1.00  0.00     0.171 C 
HETATM   30  C   UNL     1      36.397 -14.350  -4.503  1.00  0.00     0.034 C 
ENDBRANCH  28  29
ENDBRANCH  25  28
ENDBRANCH   1  22
TORSDOF 5
ENDMDL
MODEL 2
REMARK VINA RESULT:      -8.6      7.186     11.135
REMARK  5 active torsions:
REMARK  status: ('A' for Active; 'I' for Inactive)
REMARK    1  A    between atoms: C_2  and  O_3 
REMARK    2  A    between atoms: O_3  and  C_4 
REMARK    3  A    between atoms: C_7  and  C_8 
REMARK       I    between atoms: N_11  and  C_12 
REMARK    4  A    between atoms: C_12  and  C_13 
REMARK    5  A    between atoms: C_15  and  C_16 
ROOT
HETATM    1  C   UNL     1      43.670 -10.441  10.905  1.00  0.00    -0.049 C 
HETATM    2  C   UNL     1      45.158 -10.661  10.770  1.00  0.00     0.059 C 
HETATM    3  C   UNL     1      45.563 -11.022   9.343  1.00  0.00     0.131 C 
HETATM    4  N   UNL     1      44.694 -12.047   8.771  1.00  0.00    -0.344 N 
HETATM    5  C   UNL     1      45.287 -12.901   7.832  1.00  0.00     0.254 C 
HETATM    6  O   UNL     1      46.492 -12.907   7.591  1.00  0.00    -0.267 OA
HETATM    7  C   UNL     1      43.265 -11.741   8.765  1.00  0.00     0.154 C 
HETATM    8  C   UNL     1      42.841 -10.951   9.973  1.00  0.00     0.001 C 
ENDROOT
BRANCH   5   9
HETATM    9  C   UNL     1      44.447 -13.836   7.054  1.00  0.00     0.033 A 
HETATM   10  C   UNL     1      44.519 -15.200   7.364  1.00  0.00     0.032 A 
HETATM   11  C   UNL     1      43.699 -16.123   6.703  1.00  0.00     0.014 A 
HETATM   12  C   UNL     1      42.805 -15.654   5.729  1.00  0.00     0.015 A 
HETATM   13  C   UNL     1      42.715 -14.289   5.436  1.00  0.00     0.002 A 
HETATM   14  C   UNL     1      43.526 -13.375   6.109  1.00  0.00     0.017 A 
BRANCH  11  15
HETATM   15  C   UNL     1      43.753 -17.544   7.038  1.00  0.00     0.181 A 
HETATM   16  N   UNL     1      43.657 -18.025   8.287  1.00  0.00    -0.152 NA
HETATM   17  N   UNL     1      43.723 -19.347   8.087  1.00  0.00    -0.263 N 
HETATM   18  H   UNL     1      43.658 -19.973   8.882  1.00  0.00     0.190 HD
HETATM   19  C   UNL     1      43.870 -19.647   6.765  1.00  0.00     0.118 A 
HETATM   20  C   UNL     1      43.975 -21.028   6.254  1.00  0.00     0.093 C 
HETATM   21  N   UNL     1      43.901 -18.525   6.079  1.00  0.00    -0.212 NA
ENDBRANCH  11  15
ENDBRANCH   5   9
BRANCH   1  22
HETATM   22  C   UNL     1      43.185  -9.671  12.082  1.00  0.00    -0.030 A 
HETATM   23  C   UNL     1      42.658  -8.378  11.927  1.00  0.00     0.014 A 
HETATM   24  C   UNL     1      42.147  -7.659  13.018  1.00  0.00     0.037 A 
HETATM   25  C   UNL     1      42.156  -8.218  14.293  1.00  0.00     0.068 A 
HETATM   26  C   UNL     1      42.690  -9.494  14.465  1.00  0.00     0.037 A 
HETATM   27  C   UNL     1      43.190 -10.215  13.373  1.00  0.00     0.014 A 
BRANCH  25  28
HETATM   28  O   UNL     1      41.685  -7.630  15.433  1.00  0.00    -0.352 OA
BRANCH  28  29
HETATM   29  C   UNL     1      40.730  -8.369  16.192  1.00  0.00     0.171 C 
HETATM   30  C   UNL     1      39.461  -7.539  16.286  1.00  0.00     0.034 C 
ENDBRANCH  28  29
ENDBRANCH  25  28
ENDBRANCH   1  22
TORSDOF 5
ENDMDL
MODEL 3
REMARK VINA RESULT:      -8.4      3.995     10.073
REMARK  5 active torsions:
REMARK  status: ('A' for Active; 'I' for Inactive)
REMARK    1  A    between atoms: C_2  and  O_3 
REMARK    2  A    between atoms: O_3  and  C_4 
REMARK    3  A    between atoms: C_7  and  C_8 
REMARK       I    between atoms: N_11  and  C_12 
REMARK    4  A    between atoms: C_12  and  C_13 
REMARK    5  A    between atoms: C_15  and  C_16 
ROOT
HETATM    1  C   UNL     1      41.805 -17.113   2.144  1.00  0.00    -0.049 C 
HETATM    2  C   UNL     1      41.088 -16.139   3.049  1.00  0.00     0.059 C 
HETATM    3  C   UNL     1      39.861 -15.524   2.382  1.00  0.00     0.131 C 
HETATM    4  N   UNL     1      40.146 -15.068   1.024  1.00  0.00    -0.344 N 
HETATM    5  C   UNL     1      39.403 -13.970   0.576  1.00  0.00     0.254 C 
HETATM    6  O   UNL     1      38.656 -13.318   1.302  1.00  0.00    -0.267 OA
HETATM    7  C   UNL     1      40.690 -16.075   0.115  1.00  0.00     0.154 C 
HETATM    8  C   UNL     1      41.599 -17.050   0.814  1.00  0.00     0.001 C 
ENDROOT
BRANCH   5   9
HETATM    9  C   UNL     1      39.476 -13.561  -0.844  1.00  0.00     0.033 A 
HETATM   10  C   UNL     1      38.351 -13.774  -1.649  1.00  0.00     0.032 A 
HETATM   11  C   UNL     1      38.342 -13.349  -2.984  1.00  0.00     0.014 A 
HETATM   12  C   UNL     1      39.480 -12.704  -3.493  1.00  0.00     0.015 A 
HETATM   13  C   UNL     1      40.595 -12.470  -2.683  1.00  0.00     0.002 A 
HETATM   14  C   UNL     1      40.590 -12.885  -1.351  1.00  0.00     0.017 A 
BRANCH  11  15
HETATM   15  C   UNL     1      37.163 -13.547  -3.823  1.00  0.00     0.181 A 
HETATM   16  N   UNL     1      36.776 -14.738  -4.305  1.00  0.00    -0.152 NA
HETATM   17  N   UNL     1      35.655 -14.426  -4.966  1.00  0.00    -0.263 N 
HETATM   18  H   UNL     1      35.131 -15.159  -5.429  1.00  0.00     0.190 HD
HETATM   19  C   UNL     1      35.388 -13.090  -4.896  1.00  0.00     0.118 A 
HETATM   20  C   UNL     1      34.217 -12.463  -5.540  1.00  0.00     0.093 C 
HETATM   21  N   UNL     1      36.330 -12.509  -4.187  1.00  0.00    -0.212 NA
ENDBRANCH  11  15
ENDBRANCH   5   9
BRANCH   1  22
HETATM   22  C   UNL     1      42.722 -18.101   2.772  1.00  0.00    -0.030 A 
HETATM   23  C   UNL     1      43.446 -19.012   1.987  1.00  0.00     0.014 A 
HETATM   24  C   UNL     1      44.355 -19.914   2.559  1.00  0.00     0.037 A 
HETATM   25  C   UNL     1      44.558 -19.926   3.936  1.00  0.00     0.068 A 
HETATM   26  C   UNL     1      43.835 -19.039   4.731  1.00  0.00     0.037 A 
HETATM   27  C   UNL     1      42.936 -18.131   4.157  1.00  0.00     0.014 A 
BRANCH  25  28
HETATM   28  O   UNL     1      45.415 -20.746   4.616  1.00  0.00    -0.352 OA
BRANCH  28  29
HETATM   29  C   UNL     1      44.836 -21.852   5.305  1.00  0.00     0.171 C 
HETATM   30  C   UNL     1      44.644 -22.980   4.306  1.00  0.00     0.034 C 
ENDBRANCH  28  29
ENDBRANCH  25  28
ENDBRANCH   1  22
TORSDOF 5
ENDMDL
MODEL 4
REMARK VINA RESULT:      -8.3      5.427      9.799
REMARK  5 active torsions:
REMARK  status: ('A' for Active; 'I' for Inactive)
REMARK    1  A    between atoms: C_2  and  O_3 
REMARK    2  A    between atoms: O_3  and  C_4 
REMARK    3  A    between atoms: C_7  and  C_8 
REMARK       I    between atoms: N_11  and  C_12 
REMARK    4  A    between atoms: C_12  and  C_13 
REMARK    5  A    between atoms: C_15  and  C_16 
ROOT
HETATM    1  C   UNL     1      42.422 -15.635   5.395  1.00  0.00    -0.049 C 
HETATM    2  C   UNL     1      40.920 -15.748   5.285  1.00  0.00     0.059 C 
HETATM    3  C   UNL     1      40.256 -14.402   5.014  1.00  0.00     0.131 C 
HETATM    4  N   UNL     1      40.771 -13.351   5.887  1.00  0.00    -0.344 N 
HETATM    5  C   UNL     1      39.873 -12.327   6.213  1.00  0.00     0.254 C 
HETATM    6  O   UNL     1      38.680 -12.356   5.920  1.00  0.00    -0.267 OA
HETATM    7  C   UNL     1      42.218 -13.149   5.856  1.00  0.00     0.154 C 
HETATM    8  C   UNL     1      42.975 -14.434   5.658  1.00  0.00     0.001 C 
ENDROOT
BRANCH   5   9
HETATM    9  C   UNL     1      40.356 -11.124   6.924  1.00  0.00     0.033 A 
HETATM   10  C   UNL     1      40.616 -11.229   8.296  1.00  0.00     0.032 A 
HETATM   11  C   UNL     1      41.135 -10.139   9.006  1.00  0.00     0.014 A 
HETATM   12  C   UNL     1      41.389  -8.944   8.316  1.00  0.00     0.015 A 
HETATM   13  C   UNL     1      41.152  -8.846   6.941  1.00  0.00     0.002 A 
HETATM   14  C   UNL     1      40.648  -9.941   6.239  1.00  0.00     0.017 A 
BRANCH  11  15
HETATM   15  C   UNL     1      41.430 -10.250  10.432  1.00  0.00     0.181 A 
HETATM   16  N   UNL     1      40.754 -11.041  11.281  1.00  0.00    -0.152 NA
HETATM   17  N   UNL     1      41.399 -10.834  12.436  1.00  0.00    -0.263 N 
HETATM   18  H   UNL     1      41.099 -11.331  13.266  1.00  0.00     0.190 HD
HETATM   19  C   UNL     1      42.415  -9.938  12.288  1.00  0.00     0.118 A 
HETATM   20  C   UNL     1      43.292  -9.516  13.399  1.00  0.00     0.093 C 
HETATM   21  N   UNL     1      42.453  -9.545  11.033  1.00  0.00    -0.212 NA
ENDBRANCH  11  15
ENDBRANCH   5   9
BRANCH   1  22
HETATM   22  C   UNL     1      43.228 -16.872   5.214  1.00  0.00    -0.030 A 
HETATM   23  C   UNL     1      44.242 -17.210   6.126  1.00  0.00     0.014 A 
HETATM   24  C   UNL     1      44.975 -18.400   6.000  1.00  0.00     0.037 A 
HETATM   25  C   UNL     1      44.712 -19.278   4.953  1.00  0.00     0.068 A 
HETATM   26  C   UNL     1      43.720 -18.949   4.031  1.00  0.00     0.037 A 
HETATM   27  C   UNL     1      42.981 -17.766   4.164  1.00  0.00     0.014 A 
BRANCH  25  28
HETATM   28  O   UNL     1      45.345 -20.467   4.721  1.00  0.00    -0.352 OA
BRANCH  28  29
HETATM   29  C   UNL     1      44.738 -21.637   5.266  1.00  0.00     0.171 C 
HETATM   30  C   UNL     1      44.631 -22.670   4.157  1.00  0.00     0.034 C 
ENDBRANCH  28  29
ENDBRANCH  25  28
ENDBRANCH   1  22
TORSDOF 5
ENDMDL
MODEL 5
REMARK VINA RESULT:      -8.2      4.188      9.884
REMARK  5 active torsions:
REMARK  status: ('A' for Active; 'I' for Inactive)
REMARK    1  A    between atoms: C_2  and  O_3 
REMARK    2  A    between atoms: O_3  and  C_4 
REMARK    3  A    between atoms: C_7  and  C_8 
REMARK       I    between atoms: N_11  and  C_12 
REMARK    4  A    between atoms: C_12  and  C_13 
REMARK    5  A    between atoms: C_15  and  C_16 
ROOT
HETATM    1  C   UNL     1      42.123 -17.271   1.961  1.00  0.00    -0.049 C 
HETATM    2  C   UNL     1      41.120 -16.515   2.800  1.00  0.00     0.059 C 
HETATM    3  C   UNL     1      39.960 -15.974   1.969  1.00  0.00     0.131 C 
HETATM    4  N   UNL     1      40.421 -15.317   0.749  1.00  0.00    -0.344 N 
HETATM    5  C   UNL     1      39.622 -14.269   0.276  1.00  0.00     0.254 C 
HETATM    6  O   UNL     1      38.668 -13.811   0.902  1.00  0.00    -0.267 OA
HETATM    7  C   UNL     1      41.261 -16.125  -0.132  1.00  0.00     0.154 C 
HETATM    8  C   UNL     1      42.158 -17.064   0.630  1.00  0.00     0.001 C 
ENDROOT
BRANCH   5   9
HETATM    9  C   UNL     1      39.895 -13.676  -1.051  1.00  0.00     0.033 A 
HETATM   10  C   UNL     1      40.693 -12.527  -1.107  1.00  0.00     0.032 A 
HETATM   11  C   UNL     1      41.036 -11.960  -2.342  1.00  0.00     0.014 A 
HETATM   12  C   UNL     1      40.566 -12.568  -3.516  1.00  0.00     0.015 A 
HETATM   13  C   UNL     1      39.787 -13.729  -3.461  1.00  0.00     0.002 A 
HETATM   14  C   UNL     1      39.463 -14.294  -2.228  1.00  0.00     0.017 A 
BRANCH  11  15
HETATM   15  C   UNL     1      41.888 -10.776  -2.408  1.00  0.00     0.181 A 
HETATM   16  N   UNL     1      41.969  -9.968  -3.477  1.00  0.00    -0.152 NA
HETATM   17  N   UNL     1      42.827  -9.029  -3.058  1.00  0.00    -0.263 N 
HETATM   18  H   UNL     1      43.065  -8.264  -3.678  1.00  0.00     0.190 HD
HETATM   19  C   UNL     1      43.257  -9.275  -1.788  1.00  0.00     0.118 A 
HETATM   20  C   UNL     1      44.213  -8.406  -1.074  1.00  0.00     0.093 C 
HETATM   21  N   UNL     1      42.686 -10.378  -1.355  1.00  0.00    -0.212 NA
ENDBRANCH  11  15
ENDBRANCH   5   9
BRANCH   1  22
HETATM   22  C   UNL     1      43.042 -18.212   2.655  1.00  0.00    -0.030 A 
HETATM   23  C   UNL     1      43.550 -17.913   3.930  1.00  0.00     0.014 A 
HETATM   24  C   UNL     1      44.374 -18.813   4.621  1.00  0.00     0.037 A 
HETATM   25  C   UNL     1      44.712 -20.036   4.048  1.00  0.00     0.068 A 
HETATM   26  C   UNL     1      44.229 -20.340   2.777  1.00  0.00     0.037 A 
HETATM   27  C   UNL     1      43.397 -19.445   2.093  1.00  0.00     0.014 A 
BRANCH  25  28
HETATM   28  O   UNL     1      45.498 -21.000   4.614  1.00  0.00    -0.352 OA
BRANCH  28  29
HETATM   29  C   UNL     1      44.826 -22.094   5.237  1.00  0.00     0.171 C 
HETATM   30  C   UNL     1      44.019 -21.548   6.402  1.00  0.00     0.034 C 
ENDBRANCH  28  29
ENDBRANCH  25  28
ENDBRANCH   1  22
TORSDOF 5
ENDMDL
MODEL 6
REMARK VINA RESULT:      -8.2      4.684      7.186
REMARK  5 active torsions:
REMARK  status: ('A' for Active; 'I' for Inactive)
REMARK    1  A    between atoms: C_2  and  O_3 
REMARK    2  A    between atoms: O_3  and  C_4 
REMARK    3  A    between atoms: C_7  and  C_8 
REMARK       I    between atoms: N_11  and  C_12 
REMARK    4  A    between atoms: C_12  and  C_13 
REMARK    5  A    between atoms: C_15  and  C_16 
ROOT
HETATM    1  C   UNL     1      42.615 -14.493   2.993  1.00  0.00    -0.049 C 
HETATM    2  C   UNL     1      42.933 -15.819   3.643  1.00  0.00     0.059 C 
HETATM    3  C   UNL     1      42.911 -15.738   5.166  1.00  0.00     0.131 C 
HETATM    4  N   UNL     1      43.638 -14.574   5.663  1.00  0.00    -0.344 N 
HETATM    5  C   UNL     1      44.243 -14.716   6.918  1.00  0.00     0.254 C 
HETATM    6  O   UNL     1      44.300 -15.785   7.523  1.00  0.00    -0.267 OA
HETATM    7  C   UNL     1      43.204 -13.280   5.142  1.00  0.00     0.154 C 
HETATM    8  C   UNL     1      42.753 -13.359   3.708  1.00  0.00     0.001 C 
ENDROOT
BRANCH   5   9
HETATM    9  C   UNL     1      44.830 -13.538   7.591  1.00  0.00     0.033 A 
HETATM   10  C   UNL     1      44.072 -12.898   8.580  1.00  0.00     0.032 A 
HETATM   11  C   UNL     1      44.604 -11.817   9.294  1.00  0.00     0.014 A 
HETATM   12  C   UNL     1      45.909 -11.392   9.000  1.00  0.00     0.015 A 
HETATM   13  C   UNL     1      46.675 -12.045   8.030  1.00  0.00     0.002 A 
HETATM   14  C   UNL     1      46.143 -13.130   7.333  1.00  0.00     0.017 A 
BRANCH  11  15
HETATM   15  C   UNL     1      43.828 -11.161  10.342  1.00  0.00     0.181 A 
HETATM   16  N   UNL     1      42.494 -11.017  10.311  1.00  0.00    -0.152 NA
HETATM   17  N   UNL     1      42.247 -10.404  11.475  1.00  0.00    -0.263 N 
HETATM   18  H   UNL     1      41.291 -10.181  11.725  1.00  0.00     0.190 HD
HETATM   19  C   UNL     1      43.395 -10.173  12.172  1.00  0.00     0.118 A 
HETATM   20  C   UNL     1      43.424  -9.505  13.489  1.00  0.00     0.093 C 
HETATM   21  N   UNL     1      44.412 -10.633  11.476  1.00  0.00    -0.212 NA
ENDBRANCH  11  15
ENDBRANCH   5   9
BRANCH   1  22
HETATM   22  C   UNL     1      42.168 -14.503   1.575  1.00  0.00    -0.030 A 
HETATM   23  C   UNL     1      41.795 -15.702   0.946  1.00  0.00     0.014 A 
HETATM   24  C   UNL     1      41.320 -15.722  -0.374  1.00  0.00     0.037 A 
HETATM   25  C   UNL     1      41.210 -14.538  -1.097  1.00  0.00     0.068 A 
HETATM   26  C   UNL     1      41.592 -13.342  -0.493  1.00  0.00     0.037 A 
HETATM   27  C   UNL     1      42.056 -13.322   0.829  1.00  0.00     0.014 A 
BRANCH  25  28
HETATM   28  O   UNL     1      40.759 -14.418  -2.382  1.00  0.00    -0.352 OA
BRANCH  28  29
HETATM   29  C   UNL     1      39.408 -14.805  -2.628  1.00  0.00     0.171 C 
HETATM   30  C   UNL     1      39.397 -15.727  -3.836  1.00  0.00     0.034 C 
ENDBRANCH  28  29
ENDBRANCH  25  28
ENDBRANCH   1  22
TORSDOF 5
ENDMDL
MODEL 7
REMARK VINA RESULT:      -8.0      3.634      9.442
REMARK  5 active torsions:
REMARK  status: ('A' for Active; 'I' for Inactive)
REMARK    1  A    between atoms: C_2  and  O_3 
REMARK    2  A    between atoms: O_3  and  C_4 
REMARK    3  A    between atoms: C_7  and  C_8 
REMARK       I    between atoms: N_11  and  C_12 
REMARK    4  A    between atoms: C_12  and  C_13 
REMARK    5  A    between atoms: C_15  and  C_16 
ROOT
HETATM    1  C   UNL     1      41.991 -16.968   3.110  1.00  0.00    -0.049 C 
HETATM    2  C   UNL     1      41.742 -15.791   4.022  1.00  0.00     0.059 C 
HETATM    3  C   UNL     1      40.434 -15.075   3.700  1.00  0.00     0.131 C 
HETATM    4  N   UNL     1      40.278 -14.838   2.267  1.00  0.00    -0.344 N 
HETATM    5  C   UNL     1      39.549 -13.698   1.908  1.00  0.00     0.254 C 
HETATM    6  O   UNL     1      39.174 -12.853   2.718  1.00  0.00    -0.267 OA
HETATM    7  C   UNL     1      40.362 -16.021   1.413  1.00  0.00     0.154 C 
HETATM    8  C   UNL     1      41.345 -17.036   1.929  1.00  0.00     0.001 C 
ENDROOT
BRANCH   5   9
HETATM    9  C   UNL     1      39.169 -13.481   0.495  1.00  0.00     0.033 A 
HETATM   10  C   UNL     1      40.167 -13.076  -0.400  1.00  0.00     0.032 A 
HETATM   11  C   UNL     1      39.878 -12.918  -1.761  1.00  0.00     0.014 A 
HETATM   12  C   UNL     1      38.572 -13.176  -2.207  1.00  0.00     0.015 A 
HETATM   13  C   UNL     1      37.581 -13.603  -1.318  1.00  0.00     0.002 A 
HETATM   14  C   UNL     1      37.882 -13.772   0.034  1.00  0.00     0.017 A 
BRANCH  11  15
HETATM   15  C   UNL     1      40.919 -12.517  -2.704  1.00  0.00     0.181 A 
HETATM   16  N   UNL     1      42.027 -13.234  -2.948  1.00  0.00    -0.152 NA
HETATM   17  N   UNL     1      42.640 -12.499  -3.884  1.00  0.00    -0.263 N 
HETATM   18  H   UNL     1      43.518 -12.822  -4.272  1.00  0.00     0.190 HD
HETATM   19  C   UNL     1      41.931 -11.372  -4.178  1.00  0.00     0.118 A 
HETATM   20  C   UNL     1      42.374 -10.373  -5.172  1.00  0.00     0.093 C 
HETATM   21  N   UNL     1      40.843 -11.353  -3.441  1.00  0.00    -0.212 NA
ENDBRANCH  11  15
ENDBRANCH   5   9
BRANCH   1  22
HETATM   22  C   UNL     1      42.957 -18.005   3.561  1.00  0.00    -0.030 A 
HETATM   23  C   UNL     1      43.152 -18.262   4.928  1.00  0.00     0.014 A 
HETATM   24  C   UNL     1      44.018 -19.273   5.370  1.00  0.00     0.037 A 
HETATM   25  C   UNL     1      44.715 -20.050   4.449  1.00  0.00     0.068 A 
HETATM   26  C   UNL     1      44.546 -19.797   3.089  1.00  0.00     0.037 A 
HETATM   27  C   UNL     1      43.671 -18.795   2.649  1.00  0.00     0.014 A 
BRANCH  25  28
HETATM   28  O   UNL     1      45.581 -21.065   4.744  1.00  0.00    -0.352 OA
BRANCH  28  29
HETATM   29  C   UNL     1      45.009 -22.281   5.223  1.00  0.00     0.171 C 
HETATM   30  C   UNL     1      44.585 -23.106   4.020  1.00  0.00     0.034 C 
ENDBRANCH  28  29
ENDBRANCH  25  28
ENDBRANCH   1  22
TORSDOF 5
ENDMDL
MODEL 8
REMARK VINA RESULT:      -7.7      4.134      9.119
REMARK  5 active torsions:
REMARK  status: ('A' for Active; 'I' for Inactive)
REMARK    1  A    between atoms: C_2  and  O_3 
REMARK    2  A    between atoms: O_3  and  C_4 
REMARK    3  A    between atoms: C_7  and  C_8 
REMARK       I    between atoms: N_11  and  C_12 
REMARK    4  A    between atoms: C_12  and  C_13 
REMARK    5  A    between atoms: C_15  and  C_16 
ROOT
HETATM    1  C   UNL     1      41.888 -16.227   2.503  1.00  0.00    -0.049 C 
HETATM    2  C   UNL     1      40.506 -16.421   1.925  1.00  0.00     0.059 C 
HETATM    3  C   UNL     1      39.914 -15.120   1.390  1.00  0.00     0.131 C 
HETATM    4  N   UNL     1      40.082 -14.015   2.330  1.00  0.00    -0.344 N 
HETATM    5  C   UNL     1      39.089 -13.028   2.302  1.00  0.00     0.254 C 
HETATM    6  O   UNL     1      38.056 -13.128   1.643  1.00  0.00    -0.267 OA
HETATM    7  C   UNL     1      41.453 -13.740   2.752  1.00  0.00     0.154 C 
HETATM    8  C   UNL     1      42.281 -14.991   2.870  1.00  0.00     0.001 C 
ENDROOT
BRANCH   5   9
HETATM    9  C   UNL     1      39.271 -11.778   3.070  1.00  0.00     0.033 A 
HETATM   10  C   UNL     1      39.214 -11.849   4.467  1.00  0.00     0.032 A 
HETATM   11  C   UNL     1      39.443 -10.708   5.246  1.00  0.00     0.014 A 
HETATM   12  C   UNL     1      39.733  -9.497   4.599  1.00  0.00     0.015 A 
HETATM   13  C   UNL     1      39.813  -9.430   3.204  1.00  0.00     0.002 A 
HETATM   14  C   UNL     1      39.598 -10.575   2.437  1.00  0.00     0.017 A 
BRANCH  11  15
HETATM   15  C   UNL     1      39.407 -10.780   6.704  1.00  0.00     0.181 A 
HETATM   16  N   UNL     1      39.887 -11.811   7.417  1.00  0.00    -0.152 NA
HETATM   17  N   UNL     1      39.666 -11.412   8.676  1.00  0.00    -0.263 N 
HETATM   18  H   UNL     1      39.953 -12.010   9.443  1.00  0.00     0.190 HD
HETATM   19  C   UNL     1      39.061 -10.191   8.715  1.00  0.00     0.118 A 
HETATM   20  C   UNL     1      38.694  -9.509   9.972  1.00  0.00     0.093 C 
HETATM   21  N   UNL     1      38.877  -9.771   7.483  1.00  0.00    -0.212 NA
ENDBRANCH  11  15
ENDBRANCH   5   9
BRANCH   1  22
HETATM   22  C   UNL     1      42.755 -17.426   2.650  1.00  0.00    -0.030 A 
HETATM   23  C   UNL     1      43.322 -17.757   3.892  1.00  0.00     0.014 A 
HETATM   24  C   UNL     1      44.097 -18.913   4.060  1.00  0.00     0.037 A 
HETATM   25  C   UNL     1      44.328 -19.766   2.984  1.00  0.00     0.068 A 
HETATM   26  C   UNL     1      43.786 -19.442   1.741  1.00  0.00     0.037 A 
HETATM   27  C   UNL     1      43.002 -18.293   1.577  1.00  0.00     0.014 A 
BRANCH  25  28
HETATM   28  O   UNL     1      45.057 -20.921   3.014  1.00  0.00    -0.352 OA
BRANCH  28  29
HETATM   29  C   UNL     1      44.363 -22.111   3.387  1.00  0.00     0.171 C 
HETATM   30  C   UNL     1      44.830 -22.512   4.775  1.00  0.00     0.034 C 
ENDBRANCH  28  29
ENDBRANCH  25  28
ENDBRANCH   1  22
TORSDOF 5
ENDMDL
MODEL 9
REMARK VINA RESULT:      -7.6      3.953      9.944
REMARK  5 active torsions:
REMARK  status: ('A' for Active; 'I' for Inactive)
REMARK    1  A    between atoms: C_2  and  O_3 
REMARK    2  A    between atoms: O_3  and  C_4 
REMARK    3  A    between atoms: C_7  and  C_8 
REMARK       I    between atoms: N_11  and  C_12 
REMARK    4  A    between atoms: C_12  and  C_13 
REMARK    5  A    between atoms: C_15  and  C_16 
ROOT
HETATM    1  C   UNL     1      42.800 -15.744   2.445  1.00  0.00    -0.049 C 
HETATM    2  C   UNL     1      43.053 -14.370   3.019  1.00  0.00     0.059 C 
HETATM    3  C   UNL     1      42.149 -13.308   2.399  1.00  0.00     0.131 C 
HETATM    4  N   UNL     1      42.101 -13.411   0.944  1.00  0.00    -0.344 N 
HETATM    5  C   UNL     1      41.898 -12.213   0.248  1.00  0.00     0.254 C 
HETATM    6  O   UNL     1      41.902 -11.109   0.789  1.00  0.00    -0.267 OA
HETATM    7  C   UNL     1      41.694 -14.710   0.410  1.00  0.00     0.154 C 
HETATM    8  C   UNL     1      42.180 -15.857   1.253  1.00  0.00     0.001 C 
ENDROOT
BRANCH   5   9
HETATM    9  C   UNL     1      41.638 -12.241  -1.207  1.00  0.00     0.033 A 
HETATM   10  C   UNL     1      40.309 -12.350  -1.636  1.00  0.00     0.032 A 
HETATM   11  C   UNL     1      39.999 -12.317  -3.002  1.00  0.00     0.014 A 
HETATM   12  C   UNL     1      41.044 -12.169  -3.927  1.00  0.00     0.015 A 
HETATM   13  C   UNL     1      42.369 -12.036  -3.498  1.00  0.00     0.002 A 
HETATM   14  C   UNL     1      42.667 -12.056  -2.135  1.00  0.00     0.017 A 
BRANCH  11  15
HETATM   15  C   UNL     1      38.614 -12.407  -3.455  1.00  0.00     0.181 A 
HETATM   16  N   UNL     1      37.816 -11.346  -3.649  1.00  0.00    -0.152 NA
HETATM   17  N   UNL     1      36.686 -11.916  -4.086  1.00  0.00    -0.263 N 
HETATM   18  H   UNL     1      35.897 -11.330  -4.330  1.00  0.00     0.190 HD
HETATM   19  C   UNL     1      36.799 -13.274  -4.138  1.00  0.00     0.118 A 
HETATM   20  C   UNL     1      35.704 -14.162  -4.578  1.00  0.00     0.093 C 
HETATM   21  N   UNL     1      38.004 -13.613  -3.736  1.00  0.00    -0.212 NA
ENDBRANCH  11  15
ENDBRANCH   5   9
BRANCH   1  22
HETATM   22  C   UNL     1      43.260 -16.921   3.229  1.00  0.00    -0.030 A 
HETATM   23  C   UNL     1      43.477 -16.823   4.613  1.00  0.00     0.014 A 
HETATM   24  C   UNL     1      43.859 -17.936   5.377  1.00  0.00     0.037 A 
HETATM   25  C   UNL     1      44.038 -19.175   4.769  1.00  0.00     0.068 A 
HETATM   26  C   UNL     1      43.843 -19.285   3.393  1.00  0.00     0.037 A 
HETATM   27  C   UNL     1      43.450 -18.175   2.634  1.00  0.00     0.014 A 
BRANCH  25  28
HETATM   28  O   UNL     1      44.401 -20.335   5.395  1.00  0.00    -0.352 OA
BRANCH  28  29
HETATM   29  C   UNL     1      45.268 -21.211   4.676  1.00  0.00     0.171 C 
HETATM   30  C   UNL     1      44.729 -22.624   4.818  1.00  0.00     0.034 C 
ENDBRANCH  28  29
ENDBRANCH  25  28
ENDBRANCH   1  22
TORSDOF 5
ENDMDL
MODEL 10
REMARK VINA RESULT:      -7.6      4.414      8.015
REMARK  5 active torsions:
REMARK  status: ('A' for Active; 'I' for Inactive)
REMARK    1  A    between atoms: C_2  and  O_3 
REMARK    2  A    between atoms: O_3  and  C_4 
REMARK    3  A    between atoms: C_7  and  C_8 
REMARK       I    between atoms: N_11  and  C_12 
REMARK    4  A    between atoms: C_12  and  C_13 
REMARK    5  A    between atoms: C_15  and  C_16 
ROOT
HETATM    1  C   UNL     1      40.945 -12.027   5.987  1.00  0.00    -0.049 C 
HETATM    2  C   UNL     1      41.665 -11.236   4.920  1.00  0.00     0.059 C 
HETATM    3  C   UNL     1      41.423 -11.797   3.521  1.00  0.00     0.131 C 
HETATM    4  N   UNL     1      41.580 -13.248   3.479  1.00  0.00    -0.344 N 
HETATM    5  C   UNL     1      42.031 -13.783   2.266  1.00  0.00     0.254 C 
HETATM    6  O   UNL     1      42.418 -13.092   1.326  1.00  0.00    -0.267 OA
HETATM    7  C   UNL     1      40.750 -14.006   4.413  1.00  0.00     0.154 C 
HETATM    8  C   UNL     1      40.547 -13.285   5.718  1.00  0.00     0.001 C 
ENDROOT
BRANCH   5   9
HETATM    9  C   UNL     1      42.032 -15.247   2.061  1.00  0.00     0.033 A 
HETATM   10  C   UNL     1      42.816 -16.031   2.916  1.00  0.00     0.032 A 
HETATM   11  C   UNL     1      42.805 -17.428   2.809  1.00  0.00     0.014 A 
HETATM   12  C   UNL     1      41.992 -18.022   1.831  1.00  0.00     0.015 A 
HETATM   13  C   UNL     1      41.190 -17.241   0.993  1.00  0.00     0.002 A 
HETATM   14  C   UNL     1      41.197 -15.851   1.116  1.00  0.00     0.017 A 
BRANCH  11  15
HETATM   15  C   UNL     1      43.603 -18.252   3.712  1.00  0.00     0.181 A 
HETATM   16  N   UNL     1      44.155 -17.802   4.850  1.00  0.00    -0.152 NA
HETATM   17  N   UNL     1      44.741 -18.904   5.336  1.00  0.00    -0.263 N 
HETATM   18  H   UNL     1      45.233 -18.854   6.220  1.00  0.00     0.190 HD
HETATM   19  C   UNL     1      44.559 -19.973   4.510  1.00  0.00     0.118 A 
HETATM   20  C   UNL     1      45.101 -21.317   4.793  1.00  0.00     0.093 C 
HETATM   21  N   UNL     1      43.851 -19.588   3.471  1.00  0.00    -0.212 NA
ENDBRANCH  11  15
ENDBRANCH   5   9
BRANCH   1  22
HETATM   22  C   UNL     1      40.717 -11.372   7.302  1.00  0.00    -0.030 A 
HETATM   23  C   UNL     1      39.474 -11.469   7.949  1.00  0.00     0.014 A 
HETATM   24  C   UNL     1      39.258 -10.904   9.214  1.00  0.00     0.037 A 
HETATM   25  C   UNL     1      40.284 -10.222   9.861  1.00  0.00     0.068 A 
HETATM   26  C   UNL     1      41.519 -10.102   9.226  1.00  0.00     0.037 A 
HETATM   27  C   UNL     1      41.736 -10.677   7.967  1.00  0.00     0.014 A 
BRANCH  25  28
HETATM   28  O   UNL     1      40.208  -9.632  11.092  1.00  0.00    -0.352 OA
BRANCH  28  29
HETATM   29  C   UNL     1      39.605 -10.396  12.136  1.00  0.00     0.171 C 
HETATM   30  C   UNL     1      40.639 -11.380  12.655  1.00  0.00     0.034 C 
ENDBRANCH  28  29
ENDBRANCH  25  28
ENDBRANCH   1  22
TORSDOF 5
ENDMDL
