MODEL 1
REMARK VINA RESULT:      -8.8      0.000      0.000
REMARK  7 active torsions:
REMARK  status: ('A' for Active; 'I' for Inactive)
REMARK    1  A    between atoms: C_2  and  C_3 
REMARK    2  A    between atoms: C_3  and  C_4 
REMARK    3  A    between atoms: C_5  and  O_6 
REMARK    4  A    between atoms: O_6  and  C_7 
REMARK    5  A    between atoms: C_7  and  C_8 
REMARK       I    between atoms: C_8  and  N_9 
REMARK    6  A    between atoms: N_9  and  C_10 
REMARK    7  A    between atoms: C_17  and  C_18 
REMARK       I    between atoms: C_18  and  N_19 
ROOT
HETATM    1  C   UNL     1      44.077 -18.540   7.561  1.00  0.00     0.246 C 
HETATM    2  N   UNL     1      43.687 -17.232   7.458  1.00  0.00    -0.325 N 
HETATM    3  O   UNL     1      44.757 -18.850   8.544  1.00  0.00    -0.271 OA
HETATM    4  H   UNL     1      44.208 -16.640   8.097  1.00  0.00     0.169 HD
ENDROOT
BRANCH   2   5
HETATM    5  C   UNL     1      42.691 -16.609   6.693  1.00  0.00     0.035 A 
HETATM    6  C   UNL     1      42.968 -15.649   5.711  1.00  0.00     0.046 A 
HETATM    7  C   UNL     1      41.908 -15.106   4.954  1.00  0.00     0.030 A 
HETATM    8  C   UNL     1      40.613 -15.544   5.199  1.00  0.00     0.063 A 
HETATM    9  C   UNL     1      41.785 -14.162   3.893  1.00  0.00     0.156 A 
HETATM   10  N   UNL     1      39.824 -14.841   4.332  1.00  0.00    -0.277 N 
HETATM   11  C   UNL     1      40.306 -16.518   6.151  1.00  0.00     0.034 A 
HETATM   12  H   UNL     1      38.816 -14.898   4.235  1.00  0.00     0.189 HD
HETATM   13  N   UNL     1      40.495 -14.006   3.521  1.00  0.00    -0.168 NA
HETATM   14  C   UNL     1      41.376 -17.055   6.877  1.00  0.00     0.032 A 
BRANCH   9  15
HETATM   15  C   UNL     1      42.871 -13.424   3.232  1.00  0.00     0.270 C 
HETATM   16  N   UNL     1      42.445 -12.519   2.299  1.00  0.00    -0.365 N 
HETATM   17  H   UNL     1      41.451 -12.426   2.130  1.00  0.00     0.159 HD
HETATM   18  H   UNL     1      43.119 -11.976   1.782  1.00  0.00     0.159 HD
HETATM   19  O   UNL     1      44.063 -13.588   3.470  1.00  0.00    -0.266 OA
ENDBRANCH   9  15
ENDBRANCH   2   5
BRANCH   1  20
HETATM   20  C   UNL     1      43.794 -19.534   6.425  1.00  0.00     0.278 C 
BRANCH  20  21
HETATM   21  O   UNL     1      44.476 -19.224   5.210  1.00  0.00    -0.342 OA
BRANCH  21  22
HETATM   22  C   UNL     1      44.411 -20.125   4.180  1.00  0.00     0.076 A 
HETATM   23  C   UNL     1      43.882 -19.652   2.955  1.00  0.00    -0.021 A 
HETATM   24  C   UNL     1      43.750 -20.571   1.899  1.00  0.00     0.010 A 
HETATM   25  C   UNL     1      44.122 -21.908   2.051  1.00  0.00     0.001 A 
HETATM   26  C   UNL     1      44.628 -22.358   3.263  1.00  0.00     0.003 A 
HETATM   27  C   UNL     1      44.765 -21.470   4.329  1.00  0.00     0.037 A 
BRANCH  23  28
HETATM   28  C   UNL     1      43.487 -18.180   2.804  1.00  0.00     0.017 C 
HETATM   29  C   UNL     1      44.186 -17.547   1.592  1.00  0.00     0.015 C 
BRANCH  28  30
HETATM   30  C   UNL     1      41.969 -17.867   2.815  1.00  0.00     0.004 C 
HETATM   31  C   UNL     1      41.425 -17.118   1.602  1.00  0.00     0.006 C 
ENDBRANCH  28  30
ENDBRANCH  23  28
ENDBRANCH  21  22
ENDBRANCH  20  21
ENDBRANCH   1  20
TORSDOF 7
ENDMDL
MODEL 2
REMARK VINA RESULT:      -8.0      1.903      2.679
REMARK  7 active torsions:
REMARK  status: ('A' for Active; 'I' for Inactive)
REMARK    1  A    between atoms: C_2  and  C_3 
REMARK    2  A    between atoms: C_3  and  C_4 
REMARK    3  A    between atoms: C_5  and  O_6 
REMARK    4  A    between atoms: O_6  and  C_7 
REMARK    5  A    between atoms: C_7  and  C_8 
REMARK       I    between atoms: C_8  and  N_9 
REMARK    6  A    between atoms: N_9  and  C_10 
REMARK    7  A    between atoms: C_17  and  C_18 
REMARK       I    between atoms: C_18  and  N_19 
ROOT
HETATM    1  C   UNL     1      43.073 -16.760   7.248  1.00  0.00     0.246 C 
HETATM    2  N   UNL     1      43.212 -15.428   6.965  1.00  0.00    -0.325 N 
HETATM    3  O   UNL     1      43.158 -17.096   8.434  1.00  0.00    -0.271 OA
HETATM    4  H   UNL     1      43.596 -14.921   7.755  1.00  0.00     0.169 HD
ENDROOT
BRANCH   2   5
HETATM    5  C   UNL     1      42.872 -14.670   5.835  1.00  0.00     0.035 A 
HETATM    6  C   UNL     1      41.675 -13.952   5.727  1.00  0.00     0.046 A 
HETATM    7  C   UNL     1      41.434 -13.178   4.572  1.00  0.00     0.030 A 
HETATM    8  C   UNL     1      42.398 -13.142   3.572  1.00  0.00     0.063 A 
HETATM    9  C   UNL     1      40.390 -12.321   4.112  1.00  0.00     0.156 A 
HETATM   10  N   UNL     1      41.880 -12.331   2.601  1.00  0.00    -0.277 N 
HETATM   11  C   UNL     1      43.612 -13.825   3.661  1.00  0.00     0.034 A 
HETATM   12  H   UNL     1      42.308 -12.082   1.716  1.00  0.00     0.189 HD
HETATM   13  N   UNL     1      40.677 -11.809   2.894  1.00  0.00    -0.168 NA
HETATM   14  C   UNL     1      43.836 -14.573   4.824  1.00  0.00     0.032 A 
BRANCH   9  15
HETATM   15  C   UNL     1      39.144 -11.984   4.814  1.00  0.00     0.270 C 
HETATM   16  N   UNL     1      38.223 -11.336   4.039  1.00  0.00    -0.365 N 
HETATM   17  H   UNL     1      38.455 -11.136   3.073  1.00  0.00     0.159 HD
HETATM   18  H   UNL     1      37.343 -11.050   4.438  1.00  0.00     0.159 HD
HETATM   19  O   UNL     1      38.924 -12.242   5.993  1.00  0.00    -0.266 OA
ENDBRANCH   9  15
ENDBRANCH   2   5
BRANCH   1  20
HETATM   20  C   UNL     1      42.960 -17.795   6.118  1.00  0.00     0.278 C 
BRANCH  20  21
HETATM   21  O   UNL     1      44.146 -17.919   5.335  1.00  0.00    -0.342 OA
BRANCH  21  22
HETATM   22  C   UNL     1      44.302 -19.041   4.565  1.00  0.00     0.076 A 
HETATM   23  C   UNL     1      43.937 -18.932   3.201  1.00  0.00    -0.021 A 
HETATM   24  C   UNL     1      44.032 -20.085   2.403  1.00  0.00     0.010 A 
HETATM   25  C   UNL     1      44.467 -21.302   2.933  1.00  0.00     0.001 A 
HETATM   26  C   UNL     1      44.810 -21.393   4.276  1.00  0.00     0.003 A 
HETATM   27  C   UNL     1      44.720 -20.268   5.093  1.00  0.00     0.037 A 
BRANCH  23  28
HETATM   28  C   UNL     1      43.470 -17.588   2.635  1.00  0.00     0.017 C 
HETATM   29  C   UNL     1      44.103 -17.324   1.261  1.00  0.00     0.015 C 
BRANCH  28  30
HETATM   30  C   UNL     1      41.940 -17.340   2.616  1.00  0.00     0.004 C 
HETATM   31  C   UNL     1      41.445 -16.244   1.675  1.00  0.00     0.006 C 
ENDBRANCH  28  30
ENDBRANCH  23  28
ENDBRANCH  21  22
ENDBRANCH  20  21
ENDBRANCH   1  20
TORSDOF 7
ENDMDL
MODEL 3
REMARK VINA RESULT:      -7.9      2.752      5.102
REMARK  7 active torsions:
REMARK  status: ('A' for Active; 'I' for Inactive)
REMARK    1  A    between atoms: C_2  and  C_3 
REMARK    2  A    between atoms: C_3  and  C_4 
REMARK    3  A    between atoms: C_5  and  O_6 
REMARK    4  A    between atoms: O_6  and  C_7 
REMARK    5  A    between atoms: C_7  and  C_8 
REMARK       I    between atoms: C_8  and  N_9 
REMARK    6  A    between atoms: N_9  and  C_10 
REMARK    7  A    between atoms: C_17  and  C_18 
REMARK       I    between atoms: C_18  and  N_19 
ROOT
HETATM    1  C   UNL     1      41.301 -15.366   0.852  1.00  0.00     0.246 C 
HETATM    2  N   UNL     1      41.883 -14.232   1.352  1.00  0.00    -0.325 N 
HETATM    3  O   UNL     1      41.508 -15.627  -0.338  1.00  0.00    -0.271 OA
HETATM    4  H   UNL     1      42.224 -13.633   0.608  1.00  0.00     0.169 HD
ENDROOT
BRANCH   2   5
HETATM    5  C   UNL     1      42.126 -13.806   2.666  1.00  0.00     0.035 A 
HETATM    6  C   UNL     1      41.212 -13.045   3.405  1.00  0.00     0.046 A 
HETATM    7  C   UNL     1      41.518 -12.698   4.738  1.00  0.00     0.030 A 
HETATM    8  C   UNL     1      42.719 -13.128   5.287  1.00  0.00     0.063 A 
HETATM    9  C   UNL     1      40.867 -11.982   5.786  1.00  0.00     0.156 A 
HETATM   10  N   UNL     1      42.731 -12.636   6.562  1.00  0.00    -0.277 N 
HETATM   11  C   UNL     1      43.639 -13.910   4.587  1.00  0.00     0.034 A 
HETATM   12  H   UNL     1      43.461 -12.747   7.257  1.00  0.00     0.189 HD
HETATM   13  N   UNL     1      41.627 -11.949   6.904  1.00  0.00    -0.168 NA
HETATM   14  C   UNL     1      43.306 -14.256   3.271  1.00  0.00     0.032 A 
BRANCH   9  15
HETATM   15  C   UNL     1      39.543 -11.346   5.737  1.00  0.00     0.270 C 
HETATM   16  N   UNL     1      39.552 -10.011   6.032  1.00  0.00    -0.365 N 
HETATM   17  H   UNL     1      40.436  -9.569   6.259  1.00  0.00     0.159 HD
HETATM   18  H   UNL     1      38.689  -9.492   6.038  1.00  0.00     0.159 HD
HETATM   19  O   UNL     1      38.503 -11.937   5.467  1.00  0.00    -0.266 OA
ENDBRANCH   9  15
ENDBRANCH   2   5
BRANCH   1  20
HETATM   20  C   UNL     1      40.323 -16.188   1.704  1.00  0.00     0.278 C 
BRANCH  20  21
HETATM   21  O   UNL     1      40.887 -17.392   2.223  1.00  0.00    -0.342 OA
BRANCH  21  22
HETATM   22  C   UNL     1      41.529 -17.340   3.432  1.00  0.00     0.076 A 
HETATM   23  C   UNL     1      42.799 -17.962   3.504  1.00  0.00    -0.021 A 
HETATM   24  C   UNL     1      43.453 -17.974   4.749  1.00  0.00     0.010 A 
HETATM   25  C   UNL     1      42.872 -17.398   5.880  1.00  0.00     0.001 A 
HETATM   26  C   UNL     1      41.620 -16.803   5.793  1.00  0.00     0.003 A 
HETATM   27  C   UNL     1      40.945 -16.781   4.574  1.00  0.00     0.037 A 
BRANCH  23  28
HETATM   28  C   UNL     1      43.425 -18.582   2.252  1.00  0.00     0.017 C 
HETATM   29  C   UNL     1      44.195 -17.527   1.445  1.00  0.00     0.015 C 
BRANCH  28  30
HETATM   30  C   UNL     1      44.268 -19.866   2.463  1.00  0.00     0.004 C 
HETATM   31  C   UNL     1      43.704 -21.150   1.861  1.00  0.00     0.006 C 
ENDBRANCH  28  30
ENDBRANCH  23  28
ENDBRANCH  21  22
ENDBRANCH  20  21
ENDBRANCH   1  20
TORSDOF 7
ENDMDL
MODEL 4
REMARK VINA RESULT:      -7.6      3.378      5.105
REMARK  7 active torsions:
REMARK  status: ('A' for Active; 'I' for Inactive)
REMARK    1  A    between atoms: C_2  and  C_3 
REMARK    2  A    between atoms: C_3  and  C_4 
REMARK    3  A    between atoms: C_5  and  O_6 
REMARK    4  A    between atoms: O_6  and  C_7 
REMARK    5  A    between atoms: C_7  and  C_8 
REMARK       I    between atoms: C_8  and  N_9 
REMARK    6  A    between atoms: N_9  and  C_10 
REMARK    7  A    between atoms: C_17  and  C_18 
REMARK       I    between atoms: C_18  and  N_19 
ROOT
HETATM    1  C   UNL     1      42.020 -15.454   3.674  1.00  0.00     0.246 C 
HETATM    2  N   UNL     1      41.641 -14.392   2.898  1.00  0.00    -0.325 N 
HETATM    3  O   UNL     1      42.576 -15.198   4.747  1.00  0.00    -0.271 OA
HETATM    4  H   UNL     1      42.078 -13.532   3.211  1.00  0.00     0.169 HD
ENDROOT
BRANCH   2   5
HETATM    5  C   UNL     1      40.744 -14.290   1.825  1.00  0.00     0.035 A 
HETATM    6  C   UNL     1      41.144 -14.354   0.485  1.00  0.00     0.046 A 
HETATM    7  C   UNL     1      40.169 -14.288  -0.533  1.00  0.00     0.030 A 
HETATM    8  C   UNL     1      38.831 -14.168  -0.177  1.00  0.00     0.063 A 
HETATM    9  C   UNL     1      40.169 -14.339  -1.959  1.00  0.00     0.156 A 
HETATM   10  N   UNL     1      38.145 -14.120  -1.359  1.00  0.00    -0.277 N 
HETATM   11  C   UNL     1      38.397 -14.128   1.149  1.00  0.00     0.034 A 
HETATM   12  H   UNL     1      37.144 -14.027  -1.485  1.00  0.00     0.189 HD
HETATM   13  N   UNL     1      38.916 -14.232  -2.454  1.00  0.00    -0.168 NA
HETATM   14  C   UNL     1      39.382 -14.212   2.142  1.00  0.00     0.032 A 
BRANCH   9  15
HETATM   15  C   UNL     1      41.335 -14.496  -2.840  1.00  0.00     0.270 C 
HETATM   16  N   UNL     1      42.286 -13.526  -2.688  1.00  0.00    -0.365 N 
HETATM   17  H   UNL     1      42.127 -12.792  -2.008  1.00  0.00     0.159 HD
HETATM   18  H   UNL     1      43.115 -13.542  -3.260  1.00  0.00     0.159 HD
HETATM   19  O   UNL     1      41.467 -15.403  -3.655  1.00  0.00    -0.266 OA
ENDBRANCH   9  15
ENDBRANCH   2   5
BRANCH   1  20
HETATM   20  C   UNL     1      41.883 -16.893   3.156  1.00  0.00     0.278 C 
BRANCH  20  21
HETATM   21  O   UNL     1      42.361 -17.879   4.071  1.00  0.00    -0.342 OA
BRANCH  21  22
HETATM   22  C   UNL     1      43.067 -18.942   3.571  1.00  0.00     0.076 A 
HETATM   23  C   UNL     1      43.908 -19.629   4.478  1.00  0.00    -0.021 A 
HETATM   24  C   UNL     1      44.688 -20.687   3.977  1.00  0.00     0.010 A 
HETATM   25  C   UNL     1      44.641 -21.047   2.629  1.00  0.00     0.001 A 
HETATM   26  C   UNL     1      43.818 -20.354   1.751  1.00  0.00     0.003 A 
HETATM   27  C   UNL     1      43.038 -19.298   2.218  1.00  0.00     0.037 A 
BRANCH  23  28
HETATM   28  C   UNL     1      43.941 -19.225   5.955  1.00  0.00     0.017 C 
HETATM   29  C   UNL     1      43.830 -20.459   6.862  1.00  0.00     0.015 C 
BRANCH  28  30
HETATM   30  C   UNL     1      45.103 -18.297   6.393  1.00  0.00     0.004 C 
HETATM   31  C   UNL     1      44.710 -16.900   6.864  1.00  0.00     0.006 C 
ENDBRANCH  28  30
ENDBRANCH  23  28
ENDBRANCH  21  22
ENDBRANCH  20  21
ENDBRANCH   1  20
TORSDOF 7
ENDMDL
MODEL 5
REMARK VINA RESULT:      -7.6      2.622      6.817
REMARK  7 active torsions:
REMARK  status: ('A' for Active; 'I' for Inactive)
REMARK    1  A    between atoms: C_2  and  C_3 
REMARK    2  A    between atoms: C_3  and  C_4 
REMARK    3  A    between atoms: C_5  and  O_6 
REMARK    4  A    between atoms: O_6  and  C_7 
REMARK    5  A    between atoms: C_7  and  C_8 
REMARK       I    between atoms: C_8  and  N_9 
REMARK    6  A    between atoms: N_9  and  C_10 
REMARK    7  A    between atoms: C_17  and  C_18 
REMARK       I    between atoms: C_18  and  N_19 
ROOT
HETATM    1  C   UNL     1      41.877 -16.768   0.957  1.00  0.00     0.246 C 
HETATM    2  N   UNL     1      43.068 -16.952   1.606  1.00  0.00    -0.325 N 
HETATM    3  O   UNL     1      41.911 -16.169  -0.123  1.00  0.00    -0.271 OA
HETATM    4  H   UNL     1      43.797 -16.365   1.215  1.00  0.00     0.169 HD
ENDROOT
BRANCH   2   5
HETATM    5  C   UNL     1      43.446 -17.822   2.639  1.00  0.00     0.035 A 
HETATM    6  C   UNL     1      43.176 -17.569   3.990  1.00  0.00     0.046 A 
HETATM    7  C   UNL     1      43.552 -18.521   4.962  1.00  0.00     0.030 A 
HETATM    8  C   UNL     1      44.177 -19.692   4.550  1.00  0.00     0.063 A 
HETATM    9  C   UNL     1      43.438 -18.640   6.378  1.00  0.00     0.156 A 
HETATM   10  N   UNL     1      44.421 -20.394   5.698  1.00  0.00    -0.277 N 
HETATM   11  C   UNL     1      44.437 -19.986   3.211  1.00  0.00     0.034 A 
HETATM   12  H   UNL     1      44.874 -21.297   5.781  1.00  0.00     0.189 HD
HETATM   13  N   UNL     1      43.980 -19.797   6.819  1.00  0.00    -0.168 NA
HETATM   14  C   UNL     1      44.039 -19.034   2.263  1.00  0.00     0.032 A 
BRANCH   9  15
HETATM   15  C   UNL     1      42.818 -17.680   7.302  1.00  0.00     0.270 C 
HETATM   16  N   UNL     1      43.427 -17.606   8.524  1.00  0.00    -0.365 N 
HETATM   17  H   UNL     1      44.229 -18.199   8.704  1.00  0.00     0.159 HD
HETATM   18  H   UNL     1      43.064 -16.986   9.230  1.00  0.00     0.159 HD
HETATM   19  O   UNL     1      41.837 -16.996   7.032  1.00  0.00    -0.266 OA
ENDBRANCH   9  15
ENDBRANCH   2   5
BRANCH   1  20
HETATM   20  C   UNL     1      40.551 -17.167   1.621  1.00  0.00     0.278 C 
BRANCH  20  21
HETATM   21  O   UNL     1      40.144 -16.282   2.664  1.00  0.00    -0.342 OA
BRANCH  21  22
HETATM   22  C   UNL     1      39.725 -15.023   2.321  1.00  0.00     0.076 A 
HETATM   23  C   UNL     1      40.453 -13.940   2.868  1.00  0.00    -0.021 A 
HETATM   24  C   UNL     1      40.008 -12.638   2.579  1.00  0.00     0.010 A 
HETATM   25  C   UNL     1      38.882 -12.416   1.784  1.00  0.00     0.001 A 
HETATM   26  C   UNL     1      38.172 -13.491   1.265  1.00  0.00     0.003 A 
HETATM   27  C   UNL     1      38.587 -14.793   1.540  1.00  0.00     0.037 A 
BRANCH  23  28
HETATM   28  C   UNL     1      41.691 -14.201   3.731  1.00  0.00     0.017 C 
HETATM   29  C   UNL     1      42.941 -13.575   3.099  1.00  0.00     0.015 C 
BRANCH  28  30
HETATM   30  C   UNL     1      41.572 -13.847   5.236  1.00  0.00     0.004 C 
HETATM   31  C   UNL     1      40.214 -14.099   5.884  1.00  0.00     0.006 C 
ENDBRANCH  28  30
ENDBRANCH  23  28
ENDBRANCH  21  22
ENDBRANCH  20  21
ENDBRANCH   1  20
TORSDOF 7
ENDMDL
MODEL 6
REMARK VINA RESULT:      -7.6      3.724      6.141
REMARK  7 active torsions:
REMARK  status: ('A' for Active; 'I' for Inactive)
REMARK    1  A    between atoms: C_2  and  C_3 
REMARK    2  A    between atoms: C_3  and  C_4 
REMARK    3  A    between atoms: C_5  and  O_6 
REMARK    4  A    between atoms: O_6  and  C_7 
REMARK    5  A    between atoms: C_7  and  C_8 
REMARK       I    between atoms: C_8  and  N_9 
REMARK    6  A    between atoms: N_9  and  C_10 
REMARK    7  A    between atoms: C_17  and  C_18 
REMARK       I    between atoms: C_18  and  N_19 
ROOT
HETATM    1  C   UNL     1      41.131 -16.646   1.166  1.00  0.00     0.246 C 
HETATM    2  N   UNL     1      40.491 -15.703   0.409  1.00  0.00    -0.325 N 
HETATM    3  O   UNL     1      40.428 -17.371   1.878  1.00  0.00    -0.271 OA
HETATM    4  H   UNL     1      39.530 -15.577   0.710  1.00  0.00     0.169 HD
ENDROOT
BRANCH   2   5
HETATM    5  C   UNL     1      40.904 -14.956  -0.703  1.00  0.00     0.035 A 
HETATM    6  C   UNL     1      41.430 -13.662  -0.603  1.00  0.00     0.046 A 
HETATM    7  C   UNL     1      41.866 -12.998  -1.770  1.00  0.00     0.030 A 
HETATM    8  C   UNL     1      41.768 -13.652  -2.992  1.00  0.00     0.063 A 
HETATM    9  C   UNL     1      42.456 -11.735  -2.072  1.00  0.00     0.156 A 
HETATM   10  N   UNL     1      42.250 -12.767  -3.915  1.00  0.00    -0.277 N 
HETATM   11  C   UNL     1      41.274 -14.950  -3.123  1.00  0.00     0.034 A 
HETATM   12  H   UNL     1      42.324 -12.903  -4.917  1.00  0.00     0.189 HD
HETATM   13  N   UNL     1      42.685 -11.605  -3.397  1.00  0.00    -0.168 NA
HETATM   14  C   UNL     1      40.864 -15.595  -1.948  1.00  0.00     0.032 A 
BRANCH   9  15
HETATM   15  C   UNL     1      42.807 -10.671  -1.121  1.00  0.00     0.270 C 
HETATM   16  N   UNL     1      41.731 -10.006  -0.602  1.00  0.00    -0.365 N 
HETATM   17  H   UNL     1      40.801 -10.279  -0.900  1.00  0.00     0.159 HD
HETATM   18  H   UNL     1      41.873  -9.249   0.047  1.00  0.00     0.159 HD
HETATM   19  O   UNL     1      43.956 -10.376  -0.808  1.00  0.00    -0.266 OA
ENDBRANCH   9  15
ENDBRANCH   2   5
BRANCH   1  20
HETATM   20  C   UNL     1      42.665 -16.693   1.228  1.00  0.00     0.278 C 
BRANCH  20  21
HETATM   21  O   UNL     1      43.183 -16.749   2.556  1.00  0.00    -0.342 OA
BRANCH  21  22
HETATM   22  C   UNL     1      43.635 -17.953   3.028  1.00  0.00     0.076 A 
HETATM   23  C   UNL     1      43.758 -18.081   4.433  1.00  0.00    -0.021 A 
HETATM   24  C   UNL     1      44.273 -19.286   4.940  1.00  0.00     0.010 A 
HETATM   25  C   UNL     1      44.659 -20.325   4.090  1.00  0.00     0.001 A 
HETATM   26  C   UNL     1      44.543 -20.178   2.714  1.00  0.00     0.003 A 
HETATM   27  C   UNL     1      44.040 -18.992   2.182  1.00  0.00     0.037 A 
BRANCH  23  28
HETATM   28  C   UNL     1      43.322 -16.934   5.351  1.00  0.00     0.017 C 
HETATM   29  C   UNL     1      41.871 -17.124   5.813  1.00  0.00     0.015 C 
BRANCH  28  30
HETATM   30  C   UNL     1      44.262 -16.605   6.539  1.00  0.00     0.004 C 
HETATM   31  C   UNL     1      44.251 -15.159   7.028  1.00  0.00     0.006 C 
ENDBRANCH  28  30
ENDBRANCH  23  28
ENDBRANCH  21  22
ENDBRANCH  20  21
ENDBRANCH   1  20
TORSDOF 7
ENDMDL
MODEL 7
REMARK VINA RESULT:      -7.5      2.539      4.651
REMARK  7 active torsions:
REMARK  status: ('A' for Active; 'I' for Inactive)
REMARK    1  A    between atoms: C_2  and  C_3 
REMARK    2  A    between atoms: C_3  and  C_4 
REMARK    3  A    between atoms: C_5  and  O_6 
REMARK    4  A    between atoms: O_6  and  C_7 
REMARK    5  A    between atoms: C_7  and  C_8 
REMARK       I    between atoms: C_8  and  N_9 
REMARK    6  A    between atoms: N_9  and  C_10 
REMARK    7  A    between atoms: C_17  and  C_18 
REMARK       I    between atoms: C_18  and  N_19 
ROOT
HETATM    1  C   UNL     1      41.515 -16.439   0.958  1.00  0.00     0.246 C 
HETATM    2  N   UNL     1      41.332 -15.160   1.410  1.00  0.00    -0.325 N 
HETATM    3  O   UNL     1      41.301 -16.650  -0.240  1.00  0.00    -0.271 OA
HETATM    4  H   UNL     1      40.821 -14.600   0.736  1.00  0.00     0.169 HD
ENDROOT
BRANCH   2   5
HETATM    5  C   UNL     1      41.765 -14.506   2.572  1.00  0.00     0.035 A 
HETATM    6  C   UNL     1      40.886 -13.980   3.526  1.00  0.00     0.046 A 
HETATM    7  C   UNL     1      41.408 -13.378   4.692  1.00  0.00     0.030 A 
HETATM    8  C   UNL     1      42.785 -13.329   4.865  1.00  0.00     0.063 A 
HETATM    9  C   UNL     1      40.865 -12.770   5.862  1.00  0.00     0.156 A 
HETATM   10  N   UNL     1      42.977 -12.691   6.059  1.00  0.00    -0.277 N 
HETATM   11  C   UNL     1      43.687 -13.867   3.946  1.00  0.00     0.034 A 
HETATM   12  H   UNL     1      43.861 -12.472   6.503  1.00  0.00     0.189 HD
HETATM   13  N   UNL     1      41.844 -12.349   6.695  1.00  0.00    -0.168 NA
HETATM   14  C   UNL     1      43.145 -14.475   2.806  1.00  0.00     0.032 A 
BRANCH   9  15
HETATM   15  C   UNL     1      39.444 -12.597   6.195  1.00  0.00     0.270 C 
HETATM   16  N   UNL     1      39.108 -13.023   7.450  1.00  0.00    -0.365 N 
HETATM   17  H   UNL     1      39.831 -13.418   8.040  1.00  0.00     0.159 HD
HETATM   18  H   UNL     1      38.152 -12.959   7.763  1.00  0.00     0.159 HD
HETATM   19  O   UNL     1      38.609 -12.123   5.433  1.00  0.00    -0.266 OA
ENDBRANCH   9  15
ENDBRANCH   2   5
BRANCH   1  20
HETATM   20  C   UNL     1      41.834 -17.579   1.937  1.00  0.00     0.278 C 
BRANCH  20  21
HETATM   21  O   UNL     1      43.198 -17.611   2.354  1.00  0.00    -0.342 OA
BRANCH  21  22
HETATM   22  C   UNL     1      43.663 -18.743   2.970  1.00  0.00     0.076 A 
HETATM   23  C   UNL     1      43.852 -18.673   4.371  1.00  0.00    -0.021 A 
HETATM   24  C   UNL     1      44.383 -19.802   5.019  1.00  0.00     0.010 A 
HETATM   25  C   UNL     1      44.721 -20.955   4.307  1.00  0.00     0.001 A 
HETATM   26  C   UNL     1      44.541 -21.002   2.931  1.00  0.00     0.003 A 
HETATM   27  C   UNL     1      44.021 -19.896   2.261  1.00  0.00     0.037 A 
BRANCH  23  28
HETATM   28  C   UNL     1      43.469 -17.403   5.137  1.00  0.00     0.017 C 
HETATM   29  C   UNL     1      41.999 -17.451   5.576  1.00  0.00     0.015 C 
BRANCH  28  30
HETATM   30  C   UNL     1      44.401 -16.992   6.306  1.00  0.00     0.004 C 
HETATM   31  C   UNL     1      43.837 -15.975   7.293  1.00  0.00     0.006 C 
ENDBRANCH  28  30
ENDBRANCH  23  28
ENDBRANCH  21  22
ENDBRANCH  20  21
ENDBRANCH   1  20
TORSDOF 7
ENDMDL
MODEL 8
REMARK VINA RESULT:      -7.5      2.674      5.123
REMARK  7 active torsions:
REMARK  status: ('A' for Active; 'I' for Inactive)
REMARK    1  A    between atoms: C_2  and  C_3 
REMARK    2  A    between atoms: C_3  and  C_4 
REMARK    3  A    between atoms: C_5  and  O_6 
REMARK    4  A    between atoms: O_6  and  C_7 
REMARK    5  A    between atoms: C_7  and  C_8 
REMARK       I    between atoms: C_8  and  N_9 
REMARK    6  A    between atoms: N_9  and  C_10 
REMARK    7  A    between atoms: C_17  and  C_18 
REMARK       I    between atoms: C_18  and  N_19 
ROOT
HETATM    1  C   UNL     1      44.069 -20.021   2.803  1.00  0.00     0.246 C 
HETATM    2  N   UNL     1      44.819 -19.903   3.941  1.00  0.00    -0.325 N 
HETATM    3  O   UNL     1      44.487 -20.788   1.929  1.00  0.00    -0.271 OA
HETATM    4  H   UNL     1      45.746 -20.296   3.816  1.00  0.00     0.169 HD
ENDROOT
BRANCH   2   5
HETATM    5  C   UNL     1      44.514 -19.403   5.216  1.00  0.00     0.035 A 
HETATM    6  C   UNL     1      44.525 -18.037   5.524  1.00  0.00     0.046 A 
HETATM    7  C   UNL     1      44.160 -17.617   6.822  1.00  0.00     0.030 A 
HETATM    8  C   UNL     1      43.791 -18.574   7.760  1.00  0.00     0.063 A 
HETATM    9  C   UNL     1      44.028 -16.368   7.496  1.00  0.00     0.156 A 
HETATM   10  N   UNL     1      43.508 -17.872   8.899  1.00  0.00    -0.277 N 
HETATM   11  C   UNL     1      43.745 -19.939   7.477  1.00  0.00     0.034 A 
HETATM   12  H   UNL     1      43.212 -18.247   9.793  1.00  0.00     0.189 HD
HETATM   13  N   UNL     1      43.628 -16.540   8.775  1.00  0.00    -0.168 NA
HETATM   14  C   UNL     1      44.095 -20.330   6.177  1.00  0.00     0.032 A 
BRANCH   9  15
HETATM   15  C   UNL     1      44.266 -15.029   6.937  1.00  0.00     0.270 C 
HETATM   16  N   UNL     1      44.310 -14.032   7.872  1.00  0.00    -0.365 N 
HETATM   17  H   UNL     1      44.176 -14.274   8.847  1.00  0.00     0.159 HD
HETATM   18  H   UNL     1      44.454 -13.078   7.583  1.00  0.00     0.159 HD
HETATM   19  O   UNL     1      44.409 -14.795   5.742  1.00  0.00    -0.266 OA
ENDBRANCH   9  15
ENDBRANCH   2   5
BRANCH   1  20
HETATM   20  C   UNL     1      42.841 -19.126   2.575  1.00  0.00     0.278 C 
BRANCH  20  21
HETATM   21  O   UNL     1      43.139 -17.731   2.591  1.00  0.00    -0.342 OA
BRANCH  21  22
HETATM   22  C   UNL     1      42.313 -16.881   1.904  1.00  0.00     0.076 A 
HETATM   23  C   UNL     1      41.483 -16.035   2.678  1.00  0.00    -0.021 A 
HETATM   24  C   UNL     1      40.584 -15.195   1.997  1.00  0.00     0.010 A 
HETATM   25  C   UNL     1      40.504 -15.197   0.603  1.00  0.00     0.001 A 
HETATM   26  C   UNL     1      41.317 -16.042  -0.141  1.00  0.00     0.003 A 
HETATM   27  C   UNL     1      42.214 -16.889   0.507  1.00  0.00     0.037 A 
BRANCH  23  28
HETATM   28  C   UNL     1      41.590 -16.041   4.206  1.00  0.00     0.017 C 
HETATM   29  C   UNL     1      41.115 -14.705   4.793  1.00  0.00     0.015 C 
BRANCH  28  30
HETATM   30  C   UNL     1      40.948 -17.247   4.939  1.00  0.00     0.004 C 
HETATM   31  C   UNL     1      40.562 -17.022   6.398  1.00  0.00     0.006 C 
ENDBRANCH  28  30
ENDBRANCH  23  28
ENDBRANCH  21  22
ENDBRANCH  20  21
ENDBRANCH   1  20
TORSDOF 7
ENDMDL
MODEL 9
REMARK VINA RESULT:      -7.5      3.169      5.923
REMARK  7 active torsions:
REMARK  status: ('A' for Active; 'I' for Inactive)
REMARK    1  A    between atoms: C_2  and  C_3 
REMARK    2  A    between atoms: C_3  and  C_4 
REMARK    3  A    between atoms: C_5  and  O_6 
REMARK    4  A    between atoms: O_6  and  C_7 
REMARK    5  A    between atoms: C_7  and  C_8 
REMARK       I    between atoms: C_8  and  N_9 
REMARK    6  A    between atoms: N_9  and  C_10 
REMARK    7  A    between atoms: C_17  and  C_18 
REMARK       I    between atoms: C_18  and  N_19 
ROOT
HETATM    1  C   UNL     1      42.924 -18.429   1.774  1.00  0.00     0.246 C 
HETATM    2  N   UNL     1      41.640 -18.029   1.523  1.00  0.00    -0.325 N 
HETATM    3  O   UNL     1      43.137 -19.645   1.821  1.00  0.00    -0.271 OA
HETATM    4  H   UNL     1      40.985 -18.797   1.634  1.00  0.00     0.169 HD
ENDROOT
BRANCH   2   5
HETATM    5  C   UNL     1      41.106 -16.804   1.099  1.00  0.00     0.035 A 
HETATM    6  C   UNL     1      41.404 -16.228  -0.142  1.00  0.00     0.046 A 
HETATM    7  C   UNL     1      40.786 -15.013  -0.509  1.00  0.00     0.030 A 
HETATM    8  C   UNL     1      39.889 -14.421   0.373  1.00  0.00     0.063 A 
HETATM    9  C   UNL     1      40.807 -14.154  -1.647  1.00  0.00     0.156 A 
HETATM   10  N   UNL     1      39.474 -13.277  -0.249  1.00  0.00    -0.277 N 
HETATM   11  C   UNL     1      39.551 -14.982   1.605  1.00  0.00     0.034 A 
HETATM   12  H   UNL     1      38.821 -12.587   0.106  1.00  0.00     0.189 HD
HETATM   13  N   UNL     1      39.997 -13.087  -1.472  1.00  0.00    -0.168 NA
HETATM   14  C   UNL     1      40.164 -16.197   1.939  1.00  0.00     0.032 A 
BRANCH   9  15
HETATM   15  C   UNL     1      41.575 -14.343  -2.886  1.00  0.00     0.270 C 
HETATM   16  N   UNL     1      42.712 -13.587  -2.961  1.00  0.00    -0.365 N 
HETATM   17  H   UNL     1      42.937 -12.969  -2.189  1.00  0.00     0.159 HD
HETATM   18  H   UNL     1      43.296 -13.637  -3.780  1.00  0.00     0.159 HD
HETATM   19  O   UNL     1      41.246 -15.099  -3.794  1.00  0.00    -0.266 OA
ENDBRANCH   9  15
ENDBRANCH   2   5
BRANCH   1  20
HETATM   20  C   UNL     1      44.012 -17.401   2.122  1.00  0.00     0.278 C 
BRANCH  20  21
HETATM   21  O   UNL     1      43.925 -16.906   3.458  1.00  0.00    -0.342 OA
BRANCH  21  22
HETATM   22  C   UNL     1      43.451 -15.635   3.651  1.00  0.00     0.076 A 
HETATM   23  C   UNL     1      43.012 -15.311   4.957  1.00  0.00    -0.021 A 
HETATM   24  C   UNL     1      42.467 -14.032   5.167  1.00  0.00     0.010 A 
HETATM   25  C   UNL     1      42.355 -13.111   4.124  1.00  0.00     0.001 A 
HETATM   26  C   UNL     1      42.779 -13.450   2.846  1.00  0.00     0.003 A 
HETATM   27  C   UNL     1      43.319 -14.712   2.607  1.00  0.00     0.037 A 
BRANCH  23  28
HETATM   28  C   UNL     1      43.150 -16.331   6.091  1.00  0.00     0.017 C 
HETATM   29  C   UNL     1      44.192 -15.869   7.119  1.00  0.00     0.015 C 
BRANCH  28  30
HETATM   30  C   UNL     1      41.836 -16.788   6.774  1.00  0.00     0.004 C 
HETATM   31  C   UNL     1      40.693 -17.184   5.844  1.00  0.00     0.006 C 
ENDBRANCH  28  30
ENDBRANCH  23  28
ENDBRANCH  21  22
ENDBRANCH  20  21
ENDBRANCH   1  20
TORSDOF 7
ENDMDL
MODEL 10
REMARK VINA RESULT:      -7.5      3.136      5.279
REMARK  7 active torsions:
REMARK  status: ('A' for Active; 'I' for Inactive)
REMARK    1  A    between atoms: C_2  and  C_3 
REMARK    2  A    between atoms: C_3  and  C_4 
REMARK    3  A    between atoms: C_5  and  O_6 
REMARK    4  A    between atoms: O_6  and  C_7 
REMARK    5  A    between atoms: C_7  and  C_8 
REMARK       I    between atoms: C_8  and  N_9 
REMARK    6  A    between atoms: N_9  and  C_10 
REMARK    7  A    between atoms: C_17  and  C_18 
REMARK       I    between atoms: C_18  and  N_19 
ROOT
HETATM    1  C   UNL     1      42.854 -18.536   1.856  1.00  0.00     0.246 C 
HETATM    2  N   UNL     1      41.610 -18.042   1.570  1.00  0.00    -0.325 N 
HETATM    3  O   UNL     1      42.986 -19.764   1.861  1.00  0.00    -0.271 OA
HETATM    4  H   UNL     1      40.904 -18.768   1.624  1.00  0.00     0.169 HD
ENDROOT
BRANCH   2   5
HETATM    5  C   UNL     1      41.176 -16.769   1.175  1.00  0.00     0.035 A 
HETATM    6  C   UNL     1      41.427 -16.235  -0.095  1.00  0.00     0.046 A 
HETATM    7  C   UNL     1      40.913 -14.962  -0.425  1.00  0.00     0.030 A 
HETATM    8  C   UNL     1      40.163 -14.274   0.520  1.00  0.00     0.063 A 
HETATM    9  C   UNL     1      40.929 -14.116  -1.573  1.00  0.00     0.156 A 
HETATM   10  N   UNL     1      39.820 -13.094  -0.080  1.00  0.00    -0.277 N 
HETATM   11  C   UNL     1      39.873 -14.789   1.784  1.00  0.00     0.034 A 
HETATM   12  H   UNL     1      39.276 -12.337   0.319  1.00  0.00     0.189 HD
HETATM   13  N   UNL     1      40.254 -12.967  -1.346  1.00  0.00    -0.168 NA
HETATM   14  C   UNL     1      40.379 -16.061   2.082  1.00  0.00     0.032 A 
BRANCH   9  15
HETATM   15  C   UNL     1      41.564 -14.392  -2.869  1.00  0.00     0.270 C 
HETATM   16  N   UNL     1      42.784 -13.796  -3.033  1.00  0.00    -0.365 N 
HETATM   17  H   UNL     1      43.150 -13.223  -2.282  1.00  0.00     0.159 HD
HETATM   18  H   UNL     1      43.289 -13.915  -3.897  1.00  0.00     0.159 HD
HETATM   19  O   UNL     1      41.065 -15.086  -3.749  1.00  0.00    -0.266 OA
ENDBRANCH   9  15
ENDBRANCH   2   5
BRANCH   1  20
HETATM   20  C   UNL     1      43.991 -17.597   2.289  1.00  0.00     0.278 C 
BRANCH  20  21
HETATM   21  O   UNL     1      43.689 -16.835   3.457  1.00  0.00    -0.342 OA
BRANCH  21  22
HETATM   22  C   UNL     1      43.645 -17.484   4.663  1.00  0.00     0.076 A 
HETATM   23  C   UNL     1      42.816 -16.917   5.661  1.00  0.00    -0.021 A 
HETATM   24  C   UNL     1      42.798 -17.530   6.925  1.00  0.00     0.010 A 
HETATM   25  C   UNL     1      43.575 -18.658   7.196  1.00  0.00     0.001 A 
HETATM   26  C   UNL     1      44.393 -19.194   6.209  1.00  0.00     0.003 A 
HETATM   27  C   UNL     1      44.435 -18.604   4.947  1.00  0.00     0.037 A 
BRANCH  23  28
HETATM   28  C   UNL     1      41.964 -15.684   5.344  1.00  0.00     0.017 C 
HETATM   29  C   UNL     1      40.598 -15.770   6.038  1.00  0.00     0.015 C 
BRANCH  28  30
HETATM   30  C   UNL     1      42.633 -14.304   5.569  1.00  0.00     0.004 C 
HETATM   31  C   UNL     1      42.789 -13.419   4.336  1.00  0.00     0.006 C 
ENDBRANCH  28  30
ENDBRANCH  23  28
ENDBRANCH  21  22
ENDBRANCH  20  21
ENDBRANCH   1  20
TORSDOF 7
ENDMDL
