MODEL 1
REMARK VINA RESULT:      -7.7      0.000      0.000
REMARK  4 active torsions:
REMARK  status: ('A' for Active; 'I' for Inactive)
REMARK    1  A    between atoms: C_5  and  N_6 
REMARK       I    between atoms: N_6  and  C_7 
REMARK    2  A    between atoms: C_7  and  C_8 
REMARK    3  A    between atoms: C_12  and  O_13 
REMARK    4  A    between atoms: C_19  and  C_20 
ROOT
HETATM    1  C   UNL     1      41.759 -12.048   4.942  1.00  0.00     0.015 C 
HETATM    2  C   UNL     1      41.950 -13.416   4.259  1.00  0.00    -0.040 C 
HETATM    3  C   UNL     1      42.835 -13.200   3.016  1.00  0.00     0.015 C 
HETATM    4  C   UNL     1      40.559 -13.986   3.895  1.00  0.00     0.039 C 
HETATM    5  C   UNL     1      40.587 -15.410   3.305  1.00  0.00     0.122 C 
HETATM    6  C   UNL     1      41.594 -16.296   3.979  1.00  0.00     0.007 A 
HETATM    7  C   UNL     1      42.561 -15.832   4.851  1.00  0.00     0.047 A 
HETATM    8  N   UNL     1      43.451 -16.652   5.453  1.00  0.00    -0.237 NA
HETATM    9  C   UNL     1      43.396 -17.968   5.165  1.00  0.00     0.133 A 
HETATM   10  N   UNL     1      42.486 -18.507   4.333  1.00  0.00    -0.244 NA
HETATM   11  C   UNL     1      41.611 -17.660   3.758  1.00  0.00     0.130 A 
HETATM   12  C   UNL     1      42.637 -14.380   5.250  1.00  0.00     0.069 C 
ENDROOT
BRANCH   5  13
HETATM   13  N   UNL     1      40.806 -15.384   1.867  1.00  0.00    -0.347 N 
HETATM   14  C   UNL     1      39.819 -14.987   0.996  1.00  0.00     0.270 C 
HETATM   15  O   UNL     1      38.677 -14.734   1.365  1.00  0.00    -0.266 OA
HETATM   16  H   UNL     1      41.742 -15.528   1.516  1.00  0.00     0.163 HD
BRANCH  14  17
HETATM   17  C   UNL     1      40.215 -14.873  -0.380  1.00  0.00     0.122 A 
HETATM   18  N   UNL     1      39.339 -14.415  -1.337  1.00  0.00    -0.270 N 
HETATM   19  H   UNL     1      38.375 -14.129  -1.190  1.00  0.00     0.189 HD
HETATM   20  N   UNL     1      39.864 -14.350  -2.577  1.00  0.00    -0.149 NA
HETATM   21  C   UNL     1      41.097 -14.785  -2.379  1.00  0.00     0.183 A 
HETATM   22  C   UNL     1      41.392 -15.129  -1.060  1.00  0.00     0.096 A 
BRANCH  21  23
HETATM   23  O   UNL     1      41.870 -14.826  -3.457  1.00  0.00    -0.344 OA
HETATM   24  H   UNL     1      41.665 -15.681  -3.874  1.00  0.00     0.219 HD
ENDBRANCH  21  23
ENDBRANCH  14  17
ENDBRANCH   5  13
BRANCH   9  25
HETATM   25  C   UNL     1      44.343 -18.908   5.906  1.00  0.00     0.011 C 
HETATM   26  C   UNL     1      45.461 -18.067   6.543  1.00  0.00     0.023 C 
HETATM   27  C   UNL     1      43.595 -19.682   7.008  1.00  0.00     0.023 C 
HETATM   28  C   UNL     1      44.970 -19.938   4.945  1.00  0.00     0.023 C 
ENDBRANCH   9  25
TORSDOF 4
ENDMDL
MODEL 2
REMARK VINA RESULT:      -7.6      3.232      7.563
REMARK  4 active torsions:
REMARK  status: ('A' for Active; 'I' for Inactive)
REMARK    1  A    between atoms: C_5  and  N_6 
REMARK       I    between atoms: N_6  and  C_7 
REMARK    2  A    between atoms: C_7  and  C_8 
REMARK    3  A    between atoms: C_12  and  O_13 
REMARK    4  A    between atoms: C_19  and  C_20 
ROOT
HETATM    1  C   UNL     1      43.107 -19.807   2.146  1.00  0.00     0.015 C 
HETATM    2  C   UNL     1      42.823 -18.294   2.215  1.00  0.00    -0.040 C 
HETATM    3  C   UNL     1      44.178 -17.568   2.312  1.00  0.00     0.015 C 
HETATM    4  C   UNL     1      41.921 -18.015   3.439  1.00  0.00     0.039 C 
HETATM    5  C   UNL     1      41.458 -16.550   3.570  1.00  0.00     0.122 C 
HETATM    6  C   UNL     1      41.117 -15.930   2.247  1.00  0.00     0.007 A 
HETATM    7  C   UNL     1      41.421 -16.509   1.028  1.00  0.00     0.047 A 
HETATM    8  N   UNL     1      41.095 -15.933  -0.150  1.00  0.00    -0.237 NA
HETATM    9  C   UNL     1      40.471 -14.739  -0.122  1.00  0.00     0.133 A 
HETATM   10  N   UNL     1      40.133 -14.106   1.016  1.00  0.00    -0.244 NA
HETATM   11  C   UNL     1      40.467 -14.713   2.170  1.00  0.00     0.130 A 
HETATM   12  C   UNL     1      42.071 -17.866   0.937  1.00  0.00     0.069 C 
ENDROOT
BRANCH   5  13
HETATM   13  N   UNL     1      42.441 -15.745   4.279  1.00  0.00    -0.347 N 
HETATM   14  C   UNL     1      42.348 -15.522   5.632  1.00  0.00     0.270 C 
HETATM   15  O   UNL     1      41.388 -15.895   6.298  1.00  0.00    -0.266 OA
HETATM   16  H   UNL     1      43.279 -15.462   3.789  1.00  0.00     0.163 HD
BRANCH  14  17
HETATM   17  C   UNL     1      43.460 -14.831   6.224  1.00  0.00     0.122 A 
HETATM   18  N   UNL     1      43.695 -14.891   7.578  1.00  0.00    -0.270 N 
HETATM   19  H   UNL     1      43.143 -15.392   8.268  1.00  0.00     0.189 HD
HETATM   20  N   UNL     1      44.784 -14.204   7.978  1.00  0.00    -0.149 NA
HETATM   21  C   UNL     1      45.230 -13.704   6.838  1.00  0.00     0.183 A 
HETATM   22  C   UNL     1      44.474 -14.038   5.716  1.00  0.00     0.096 A 
BRANCH  21  23
HETATM   23  O   UNL     1      46.329 -12.964   6.928  1.00  0.00    -0.344 OA
HETATM   24  H   UNL     1      47.043 -13.604   7.097  1.00  0.00     0.219 HD
ENDBRANCH  21  23
ENDBRANCH  14  17
ENDBRANCH   5  13
BRANCH   9  25
HETATM   25  C   UNL     1      40.026 -14.127  -1.448  1.00  0.00     0.011 C 
HETATM   26  C   UNL     1      40.812 -12.824  -1.668  1.00  0.00     0.023 C 
HETATM   27  C   UNL     1      40.302 -15.092  -2.618  1.00  0.00     0.023 C 
HETATM   28  C   UNL     1      38.518 -13.813  -1.438  1.00  0.00     0.023 C 
ENDBRANCH   9  25
TORSDOF 4
ENDMDL
MODEL 3
REMARK VINA RESULT:      -7.5      1.866      1.962
REMARK  4 active torsions:
REMARK  status: ('A' for Active; 'I' for Inactive)
REMARK    1  A    between atoms: C_5  and  N_6 
REMARK       I    between atoms: N_6  and  C_7 
REMARK    2  A    between atoms: C_7  and  C_8 
REMARK    3  A    between atoms: C_12  and  O_13 
REMARK    4  A    between atoms: C_19  and  C_20 
ROOT
HETATM    1  C   UNL     1      39.673 -13.287   5.690  1.00  0.00     0.015 C 
HETATM    2  C   UNL     1      40.681 -14.044   4.804  1.00  0.00    -0.040 C 
HETATM    3  C   UNL     1      41.784 -13.050   4.396  1.00  0.00     0.015 C 
HETATM    4  C   UNL     1      39.929 -14.618   3.580  1.00  0.00     0.039 C 
HETATM    5  C   UNL     1      40.792 -15.502   2.658  1.00  0.00     0.122 C 
HETATM    6  C   UNL     1      41.740 -16.381   3.420  1.00  0.00     0.007 A 
HETATM    7  C   UNL     1      41.997 -16.241   4.771  1.00  0.00     0.047 A 
HETATM    8  N   UNL     1      42.848 -17.052   5.437  1.00  0.00    -0.237 NA
HETATM    9  C   UNL     1      43.481 -18.016   4.739  1.00  0.00     0.133 A 
HETATM   10  N   UNL     1      43.289 -18.228   3.425  1.00  0.00    -0.244 NA
HETATM   11  C   UNL     1      42.427 -17.405   2.797  1.00  0.00     0.130 A 
HETATM   12  C   UNL     1      41.279 -15.215   5.611  1.00  0.00     0.069 C 
ENDROOT
BRANCH   5  13
HETATM   13  N   UNL     1      41.509 -14.702   1.676  1.00  0.00    -0.347 N 
HETATM   14  C   UNL     1      40.927 -14.329   0.488  1.00  0.00     0.270 C 
HETATM   15  O   UNL     1      39.820 -14.729   0.142  1.00  0.00    -0.266 OA
HETATM   16  H   UNL     1      42.400 -14.301   1.934  1.00  0.00     0.163 HD
BRANCH  14  17
HETATM   17  C   UNL     1      41.694 -13.425  -0.322  1.00  0.00     0.122 A 
HETATM   18  N   UNL     1      42.140 -13.791  -1.571  1.00  0.00    -0.270 N 
HETATM   19  H   UNL     1      41.991 -14.686  -2.030  1.00  0.00     0.189 HD
HETATM   20  N   UNL     1      42.832 -12.829  -2.212  1.00  0.00    -0.149 NA
HETATM   21  C   UNL     1      42.816 -11.842  -1.332  1.00  0.00     0.183 A 
HETATM   22  C   UNL     1      42.142 -12.127  -0.145  1.00  0.00     0.096 A 
BRANCH  21  23
HETATM   23  O   UNL     1      43.437 -10.730  -1.706  1.00  0.00    -0.344 OA
HETATM   24  H   UNL     1      44.033 -11.010  -2.422  1.00  0.00     0.219 HD
ENDBRANCH  21  23
ENDBRANCH  14  17
ENDBRANCH   5  13
BRANCH   9  25
HETATM   25  C   UNL     1      44.378 -18.988   5.503  1.00  0.00     0.011 C 
HETATM   26  C   UNL     1      45.449 -18.174   6.249  1.00  0.00     0.023 C 
HETATM   27  C   UNL     1      43.560 -19.806   6.520  1.00  0.00     0.023 C 
HETATM   28  C   UNL     1      45.071 -19.977   4.545  1.00  0.00     0.023 C 
ENDBRANCH   9  25
TORSDOF 4
ENDMDL
MODEL 4
REMARK VINA RESULT:      -7.2      2.779      5.182
REMARK  4 active torsions:
REMARK  status: ('A' for Active; 'I' for Inactive)
REMARK    1  A    between atoms: C_5  and  N_6 
REMARK       I    between atoms: N_6  and  C_7 
REMARK    2  A    between atoms: C_7  and  C_8 
REMARK    3  A    between atoms: C_12  and  O_13 
REMARK    4  A    between atoms: C_19  and  C_20 
ROOT
HETATM    1  C   UNL     1      42.770 -18.797   2.075  1.00  0.00     0.015 C 
HETATM    2  C   UNL     1      41.953 -17.525   1.774  1.00  0.00    -0.040 C 
HETATM    3  C   UNL     1      40.543 -17.966   1.339  1.00  0.00     0.015 C 
HETATM    4  C   UNL     1      42.681 -16.720   0.672  1.00  0.00     0.039 C 
HETATM    5  C   UNL     1      42.037 -15.357   0.347  1.00  0.00     0.122 C 
HETATM    6  C   UNL     1      41.535 -14.647   1.570  1.00  0.00     0.007 A 
HETATM    7  C   UNL     1      41.428 -15.243   2.813  1.00  0.00     0.047 A 
HETATM    8  N   UNL     1      40.982 -14.579   3.902  1.00  0.00    -0.237 NA
HETATM    9  C   UNL     1      40.609 -13.292   3.751  1.00  0.00     0.133 A 
HETATM   10  N   UNL     1      40.684 -12.631   2.582  1.00  0.00    -0.244 NA
HETATM   11  C   UNL     1      41.140 -13.324   1.521  1.00  0.00     0.130 A 
HETATM   12  C   UNL     1      41.879 -16.662   3.051  1.00  0.00     0.069 C 
ENDROOT
BRANCH   5  13
HETATM   13  N   UNL     1      40.976 -15.495  -0.640  1.00  0.00    -0.347 N 
HETATM   14  C   UNL     1      40.964 -14.746  -1.793  1.00  0.00     0.270 C 
HETATM   15  O   UNL     1      41.779 -13.856  -2.009  1.00  0.00    -0.266 OA
HETATM   16  H   UNL     1      40.313 -16.250  -0.537  1.00  0.00     0.163 HD
BRANCH  14  17
HETATM   17  C   UNL     1      39.939 -15.085  -2.741  1.00  0.00     0.122 A 
HETATM   18  N   UNL     1      39.785 -16.376  -3.192  1.00  0.00    -0.270 N 
HETATM   19  H   UNL     1      40.345 -17.182  -2.927  1.00  0.00     0.189 HD
HETATM   20  N   UNL     1      38.772 -16.535  -4.066  1.00  0.00    -0.149 NA
HETATM   21  C   UNL     1      38.290 -15.307  -4.160  1.00  0.00     0.183 A 
HETATM   22  C   UNL     1      38.952 -14.358  -3.382  1.00  0.00     0.096 A 
BRANCH  21  23
HETATM   23  O   UNL     1      37.251 -15.160  -4.972  1.00  0.00    -0.344 OA
HETATM   24  H   UNL     1      37.644 -14.967  -5.842  1.00  0.00     0.219 HD
ENDBRANCH  21  23
ENDBRANCH  14  17
ENDBRANCH   5  13
BRANCH   9  25
HETATM   25  C   UNL     1      40.185 -12.514   4.994  1.00  0.00     0.011 C 
HETATM   26  C   UNL     1      39.853 -13.522   6.107  1.00  0.00     0.023 C 
HETATM   27  C   UNL     1      41.316 -11.583   5.470  1.00  0.00     0.023 C 
HETATM   28  C   UNL     1      38.943 -11.646   4.711  1.00  0.00     0.023 C 
ENDBRANCH   9  25
TORSDOF 4
ENDMDL
MODEL 5
REMARK VINA RESULT:      -7.1      4.590      7.695
REMARK  4 active torsions:
REMARK  status: ('A' for Active; 'I' for Inactive)
REMARK    1  A    between atoms: C_5  and  N_6 
REMARK       I    between atoms: N_6  and  C_7 
REMARK    2  A    between atoms: C_7  and  C_8 
REMARK    3  A    between atoms: C_12  and  O_13 
REMARK    4  A    between atoms: C_19  and  C_20 
ROOT
HETATM    1  C   UNL     1      38.925 -11.469   3.541  1.00  0.00     0.015 C 
HETATM    2  C   UNL     1      39.794 -12.221   4.567  1.00  0.00    -0.040 C 
HETATM    3  C   UNL     1      38.887 -12.621   5.746  1.00  0.00     0.015 C 
HETATM    4  C   UNL     1      40.952 -11.295   5.008  1.00  0.00     0.039 C 
HETATM    5  C   UNL     1      41.975 -11.957   5.952  1.00  0.00     0.122 C 
HETATM    6  C   UNL     1      42.270 -13.381   5.579  1.00  0.00     0.007 A 
HETATM    7  C   UNL     1      41.532 -14.101   4.658  1.00  0.00     0.047 A 
HETATM    8  N   UNL     1      41.825 -15.380   4.333  1.00  0.00    -0.237 NA
HETATM    9  C   UNL     1      42.865 -15.970   4.954  1.00  0.00     0.133 A 
HETATM   10  N   UNL     1      43.640 -15.344   5.859  1.00  0.00    -0.244 NA
HETATM   11  C   UNL     1      43.323 -14.069   6.152  1.00  0.00     0.130 A 
HETATM   12  C   UNL     1      40.392 -13.476   3.896  1.00  0.00     0.069 C 
ENDROOT
BRANCH   5  13
HETATM   13  N   UNL     1      41.550 -11.866   7.341  1.00  0.00    -0.347 N 
HETATM   14  C   UNL     1      41.693 -10.705   8.062  1.00  0.00     0.270 C 
HETATM   15  O   UNL     1      42.273  -9.720   7.619  1.00  0.00    -0.266 OA
HETATM   16  H   UNL     1      41.018 -12.629   7.736  1.00  0.00     0.163 HD
BRANCH  14  17
HETATM   17  C   UNL     1      41.103 -10.713   9.373  1.00  0.00     0.122 A 
HETATM   18  N   UNL     1      41.751 -11.288  10.441  1.00  0.00    -0.270 N 
HETATM   19  H   UNL     1      42.658 -11.747  10.425  1.00  0.00     0.189 HD
HETATM   20  N   UNL     1      41.077 -11.201  11.605  1.00  0.00    -0.149 NA
HETATM   21  C   UNL     1      39.980 -10.557  11.242  1.00  0.00     0.183 A 
HETATM   22  C   UNL     1      39.916 -10.224   9.889  1.00  0.00     0.096 A 
BRANCH  21  23
HETATM   23  O   UNL     1      39.107 -10.319  12.214  1.00  0.00    -0.344 OA
HETATM   24  H   UNL     1      38.815  -9.403  12.063  1.00  0.00     0.219 HD
ENDBRANCH  21  23
ENDBRANCH  14  17
ENDBRANCH   5  13
BRANCH   9  25
HETATM   25  C   UNL     1      43.250 -17.384   4.529  1.00  0.00     0.011 C 
HETATM   26  C   UNL     1      42.006 -18.281   4.641  1.00  0.00     0.023 C 
HETATM   27  C   UNL     1      43.760 -17.400   3.075  1.00  0.00     0.023 C 
HETATM   28  C   UNL     1      44.365 -17.953   5.429  1.00  0.00     0.023 C 
ENDBRANCH   9  25
TORSDOF 4
ENDMDL
MODEL 6
REMARK VINA RESULT:      -6.9      2.236      2.778
REMARK  4 active torsions:
REMARK  status: ('A' for Active; 'I' for Inactive)
REMARK    1  A    between atoms: C_5  and  N_6 
REMARK       I    between atoms: N_6  and  C_7 
REMARK    2  A    between atoms: C_7  and  C_8 
REMARK    3  A    between atoms: C_12  and  O_13 
REMARK    4  A    between atoms: C_19  and  C_20 
ROOT
HETATM    1  C   UNL     1      42.613 -13.955   5.864  1.00  0.00     0.015 C 
HETATM    2  C   UNL     1      42.814 -14.716   4.539  1.00  0.00    -0.040 C 
HETATM    3  C   UNL     1      43.945 -14.015   3.763  1.00  0.00     0.015 C 
HETATM    4  C   UNL     1      41.479 -14.711   3.759  1.00  0.00     0.039 C 
HETATM    5  C   UNL     1      41.496 -15.538   2.458  1.00  0.00     0.122 C 
HETATM    6  C   UNL     1      42.264 -16.820   2.597  1.00  0.00     0.007 A 
HETATM    7  C   UNL     1      43.074 -17.115   3.678  1.00  0.00     0.047 A 
HETATM    8  N   UNL     1      43.748 -18.281   3.784  1.00  0.00    -0.237 NA
HETATM    9  C   UNL     1      43.634 -19.173   2.781  1.00  0.00     0.133 A 
HETATM   10  N   UNL     1      42.864 -18.973   1.695  1.00  0.00    -0.244 NA
HETATM   11  C   UNL     1      42.202 -17.803   1.628  1.00  0.00     0.130 A 
HETATM   12  C   UNL     1      43.199 -16.178   4.853  1.00  0.00     0.069 C 
ENDROOT
BRANCH   5  13
HETATM   13  N   UNL     1      42.000 -14.756   1.339  1.00  0.00    -0.347 N 
HETATM   14  C   UNL     1      41.176 -14.349   0.317  1.00  0.00     0.270 C 
HETATM   15  O   UNL     1      40.004 -14.703   0.233  1.00  0.00    -0.266 OA
HETATM   16  H   UNL     1      42.941 -14.392   1.387  1.00  0.00     0.163 HD
BRANCH  14  17
HETATM   17  C   UNL     1      41.773 -13.466  -0.646  1.00  0.00     0.122 A 
HETATM   18  N   UNL     1      42.159 -13.921  -1.886  1.00  0.00    -0.270 N 
HETATM   19  H   UNL     1      42.077 -14.872  -2.236  1.00  0.00     0.189 HD
HETATM   20  N   UNL     1      42.688 -12.970  -2.681  1.00  0.00    -0.149 NA
HETATM   21  C   UNL     1      42.629 -11.898  -1.908  1.00  0.00     0.183 A 
HETATM   22  C   UNL     1      42.084 -12.118  -0.643  1.00  0.00     0.096 A 
BRANCH  21  23
HETATM   23  O   UNL     1      43.090 -10.776  -2.447  1.00  0.00    -0.344 OA
HETATM   24  H   UNL     1      42.765 -10.793  -3.364  1.00  0.00     0.219 HD
ENDBRANCH  21  23
ENDBRANCH  14  17
ENDBRANCH   5  13
BRANCH   9  25
HETATM   25  C   UNL     1      44.325 -20.526   2.936  1.00  0.00     0.011 C 
HETATM   26  C   UNL     1      43.582 -21.553   2.066  1.00  0.00     0.023 C 
HETATM   27  C   UNL     1      45.796 -20.444   2.485  1.00  0.00     0.023 C 
HETATM   28  C   UNL     1      44.304 -20.996   4.404  1.00  0.00     0.023 C 
ENDBRANCH   9  25
TORSDOF 4
ENDMDL
MODEL 7
REMARK VINA RESULT:      -6.8      3.092      7.310
REMARK  4 active torsions:
REMARK  status: ('A' for Active; 'I' for Inactive)
REMARK    1  A    between atoms: C_5  and  N_6 
REMARK       I    between atoms: N_6  and  C_7 
REMARK    2  A    between atoms: C_7  and  C_8 
REMARK    3  A    between atoms: C_12  and  O_13 
REMARK    4  A    between atoms: C_19  and  C_20 
ROOT
HETATM    1  C   UNL     1      43.381 -17.785   3.192  1.00  0.00     0.015 C 
HETATM    2  C   UNL     1      42.646 -16.525   2.696  1.00  0.00    -0.040 C 
HETATM    3  C   UNL     1      43.578 -15.320   2.921  1.00  0.00     0.015 C 
HETATM    4  C   UNL     1      41.316 -16.389   3.473  1.00  0.00     0.039 C 
HETATM    5  C   UNL     1      40.415 -15.231   3.001  1.00  0.00     0.122 C 
HETATM    6  C   UNL     1      40.416 -15.069   1.509  1.00  0.00     0.007 A 
HETATM    7  C   UNL     1      41.309 -15.709   0.669  1.00  0.00     0.047 A 
HETATM    8  N   UNL     1      41.284 -15.552  -0.673  1.00  0.00    -0.237 NA
HETATM    9  C   UNL     1      40.361 -14.721  -1.197  1.00  0.00     0.133 A 
HETATM   10  N   UNL     1      39.451 -14.062  -0.457  1.00  0.00    -0.244 NA
HETATM   11  C   UNL     1      39.503 -14.248   0.876  1.00  0.00     0.130 A 
HETATM   12  C   UNL     1      42.327 -16.689   1.194  1.00  0.00     0.069 C 
ENDROOT
BRANCH   5  13
HETATM   13  N   UNL     1      40.772 -13.981   3.655  1.00  0.00    -0.347 N 
HETATM   14  C   UNL     1      40.222 -13.619   4.862  1.00  0.00     0.270 C 
HETATM   15  O   UNL     1      39.333 -14.267   5.403  1.00  0.00    -0.266 OA
HETATM   16  H   UNL     1      41.538 -13.440   3.280  1.00  0.00     0.163 HD
BRANCH  14  17
HETATM   17  C   UNL     1      40.768 -12.432   5.460  1.00  0.00     0.122 A 
HETATM   18  N   UNL     1      41.458 -12.488   6.649  1.00  0.00    -0.270 N 
HETATM   19  H   UNL     1      41.643 -13.319   7.205  1.00  0.00     0.189 HD
HETATM   20  N   UNL     1      41.921 -11.295   7.073  1.00  0.00    -0.149 NA
HETATM   21  C   UNL     1      41.501 -10.480   6.120  1.00  0.00     0.183 A 
HETATM   22  C   UNL     1      40.783 -11.098   5.095  1.00  0.00     0.096 A 
BRANCH  21  23
HETATM   23  O   UNL     1      41.825  -9.202   6.274  1.00  0.00    -0.344 OA
HETATM   24  H   UNL     1      41.195  -8.719   5.711  1.00  0.00     0.219 HD
ENDBRANCH  21  23
ENDBRANCH  14  17
ENDBRANCH   5  13
BRANCH   9  25
HETATM   25  C   UNL     1      40.274 -14.607  -2.717  1.00  0.00     0.011 C 
HETATM   26  C   UNL     1      40.114 -16.021  -3.301  1.00  0.00     0.023 C 
HETATM   27  C   UNL     1      39.068 -13.744  -3.134  1.00  0.00     0.023 C 
HETATM   28  C   UNL     1      41.546 -13.960  -3.301  1.00  0.00     0.023 C 
ENDBRANCH   9  25
TORSDOF 4
ENDMDL
MODEL 8
REMARK VINA RESULT:      -6.7      2.845      4.104
REMARK  4 active torsions:
REMARK  status: ('A' for Active; 'I' for Inactive)
REMARK    1  A    between atoms: C_5  and  N_6 
REMARK       I    between atoms: N_6  and  C_7 
REMARK    2  A    between atoms: C_7  and  C_8 
REMARK    3  A    between atoms: C_12  and  O_13 
REMARK    4  A    between atoms: C_19  and  C_20 
ROOT
HETATM    1  C   UNL     1      43.331 -16.889   8.333  1.00  0.00     0.015 C 
HETATM    2  C   UNL     1      43.281 -16.968   6.795  1.00  0.00    -0.040 C 
HETATM    3  C   UNL     1      44.231 -15.890   6.239  1.00  0.00     0.015 C 
HETATM    4  C   UNL     1      41.820 -16.754   6.336  1.00  0.00     0.039 C 
HETATM    5  C   UNL     1      41.596 -16.921   4.820  1.00  0.00     0.122 C 
HETATM    6  C   UNL     1      42.393 -18.052   4.238  1.00  0.00     0.007 A 
HETATM    7  C   UNL     1      43.402 -18.708   4.919  1.00  0.00     0.047 A 
HETATM    8  N   UNL     1      44.100 -19.730   4.376  1.00  0.00    -0.237 NA
HETATM    9  C   UNL     1      43.805 -20.098   3.113  1.00  0.00     0.133 A 
HETATM   10  N   UNL     1      42.837 -19.520   2.379  1.00  0.00    -0.244 NA
HETATM   11  C   UNL     1      42.158 -18.510   2.956  1.00  0.00     0.130 A 
HETATM   12  C   UNL     1      43.739 -18.373   6.350  1.00  0.00     0.069 C 
ENDROOT
BRANCH   5  13
HETATM   13  N   UNL     1      41.863 -15.682   4.105  1.00  0.00    -0.347 N 
HETATM   14  C   UNL     1      40.961 -15.160   3.208  1.00  0.00     0.270 C 
HETATM   15  O   UNL     1      39.937 -15.752   2.883  1.00  0.00    -0.266 OA
HETATM   16  H   UNL     1      42.663 -15.128   4.377  1.00  0.00     0.163 HD
BRANCH  14  17
HETATM   17  C   UNL     1      41.287 -13.864   2.684  1.00  0.00     0.122 A 
HETATM   18  N   UNL     1      42.289 -13.704   1.754  1.00  0.00    -0.270 N 
HETATM   19  H   UNL     1      42.875 -14.436   1.362  1.00  0.00     0.189 HD
HETATM   20  N   UNL     1      42.464 -12.431   1.348  1.00  0.00    -0.149 NA
HETATM   21  C   UNL     1      41.548 -11.787   2.051  1.00  0.00     0.183 A 
HETATM   22  C   UNL     1      40.786 -12.592   2.897  1.00  0.00     0.096 A 
BRANCH  21  23
HETATM   23  O   UNL     1      41.485 -10.477   1.846  1.00  0.00    -0.344 OA
HETATM   24  H   UNL     1      40.899 -10.376   1.076  1.00  0.00     0.219 HD
ENDBRANCH  21  23
ENDBRANCH  14  17
ENDBRANCH   5  13
BRANCH   9  25
HETATM   25  C   UNL     1      44.531 -21.306   2.526  1.00  0.00     0.011 C 
HETATM   26  C   UNL     1      44.629 -22.389   3.614  1.00  0.00     0.023 C 
HETATM   27  C   UNL     1      43.766 -21.870   1.313  1.00  0.00     0.023 C 
HETATM   28  C   UNL     1      45.951 -20.929   2.059  1.00  0.00     0.023 C 
ENDBRANCH   9  25
TORSDOF 4
ENDMDL
MODEL 9
REMARK VINA RESULT:      -6.5      3.341      7.483
REMARK  4 active torsions:
REMARK  status: ('A' for Active; 'I' for Inactive)
REMARK    1  A    between atoms: C_5  and  N_6 
REMARK       I    between atoms: N_6  and  C_7 
REMARK    2  A    between atoms: C_7  and  C_8 
REMARK    3  A    between atoms: C_12  and  O_13 
REMARK    4  A    between atoms: C_19  and  C_20 
ROOT
HETATM    1  C   UNL     1      39.234 -10.150   5.284  1.00  0.00     0.015 C 
HETATM    2  C   UNL     1      39.837 -11.414   4.639  1.00  0.00    -0.040 C 
HETATM    3  C   UNL     1      39.177 -12.638   5.301  1.00  0.00     0.015 C 
HETATM    4  C   UNL     1      41.369 -11.391   4.847  1.00  0.00     0.039 C 
HETATM    5  C   UNL     1      42.125 -12.541   4.152  1.00  0.00     0.122 C 
HETATM    6  C   UNL     1      41.569 -12.863   2.795  1.00  0.00     0.007 A 
HETATM    7  C   UNL     1      40.368 -12.367   2.321  1.00  0.00     0.047 A 
HETATM    8  N   UNL     1      39.894 -12.664   1.092  1.00  0.00    -0.237 NA
HETATM    9  C   UNL     1      40.619 -13.494   0.316  1.00  0.00     0.133 A 
HETATM   10  N   UNL     1      41.799 -14.019   0.692  1.00  0.00    -0.244 NA
HETATM   11  C   UNL     1      42.243 -13.694   1.922  1.00  0.00     0.130 A 
HETATM   12  C   UNL     1      39.542 -11.394   3.124  1.00  0.00     0.069 C 
ENDROOT
BRANCH   5  13
HETATM   13  N   UNL     1      42.162 -13.732   4.988  1.00  0.00    -0.347 N 
HETATM   14  C   UNL     1      43.340 -14.202   5.517  1.00  0.00     0.270 C 
HETATM   15  O   UNL     1      44.430 -13.715   5.238  1.00  0.00    -0.266 OA
HETATM   16  H   UNL     1      41.288 -14.137   5.293  1.00  0.00     0.163 HD
BRANCH  14  17
HETATM   17  C   UNL     1      43.212 -15.299   6.437  1.00  0.00     0.122 A 
HETATM   18  N   UNL     1      42.070 -16.065   6.476  1.00  0.00    -0.270 N 
HETATM   19  H   UNL     1      41.240 -15.947   5.901  1.00  0.00     0.189 HD
HETATM   20  N   UNL     1      42.109 -17.064   7.380  1.00  0.00    -0.149 NA
HETATM   21  C   UNL     1      43.308 -16.907   7.915  1.00  0.00     0.183 A 
HETATM   22  C   UNL     1      44.047 -15.845   7.395  1.00  0.00     0.096 A 
BRANCH  21  23
HETATM   23  O   UNL     1      43.632 -17.781   8.861  1.00  0.00    -0.344 OA
HETATM   24  H   UNL     1      44.495 -17.476   9.191  1.00  0.00     0.219 HD
ENDBRANCH  21  23
ENDBRANCH  14  17
ENDBRANCH   5  13
BRANCH   9  25
HETATM   25  C   UNL     1      40.129 -13.765  -1.104  1.00  0.00     0.011 C 
HETATM   26  C   UNL     1      40.797 -15.054  -1.610  1.00  0.00     0.023 C 
HETATM   27  C   UNL     1      38.598 -13.939  -1.133  1.00  0.00     0.023 C 
HETATM   28  C   UNL     1      40.492 -12.603  -2.050  1.00  0.00     0.023 C 
ENDBRANCH   9  25
TORSDOF 4
ENDMDL
MODEL 10
REMARK VINA RESULT:      -6.5      3.426      7.455
REMARK  4 active torsions:
REMARK  status: ('A' for Active; 'I' for Inactive)
REMARK    1  A    between atoms: C_5  and  N_6 
REMARK       I    between atoms: N_6  and  C_7 
REMARK    2  A    between atoms: C_7  and  C_8 
REMARK    3  A    between atoms: C_12  and  O_13 
REMARK    4  A    between atoms: C_19  and  C_20 
ROOT
HETATM    1  C   UNL     1      39.464 -12.358   6.564  1.00  0.00     0.015 C 
HETATM    2  C   UNL     1      40.264 -13.282   5.625  1.00  0.00    -0.040 C 
HETATM    3  C   UNL     1      39.877 -14.735   5.957  1.00  0.00     0.015 C 
HETATM    4  C   UNL     1      41.772 -13.015   5.836  1.00  0.00     0.039 C 
HETATM    5  C   UNL     1      42.698 -13.789   4.877  1.00  0.00     0.122 C 
HETATM    6  C   UNL     1      42.151 -13.868   3.482  1.00  0.00     0.007 A 
HETATM    7  C   UNL     1      40.858 -13.513   3.144  1.00  0.00     0.047 A 
HETATM    8  N   UNL     1      40.392 -13.584   1.878  1.00  0.00    -0.237 NA
HETATM    9  C   UNL     1      41.224 -14.040   0.921  1.00  0.00     0.133 A 
HETATM   10  N   UNL     1      42.498 -14.402   1.157  1.00  0.00    -0.244 NA
HETATM   11  C   UNL     1      42.929 -14.311   2.430  1.00  0.00     0.130 A 
HETATM   12  C   UNL     1      39.901 -12.947   4.163  1.00  0.00     0.069 C 
ENDROOT
BRANCH   5  13
HETATM   13  N   UNL     1      42.998 -15.119   5.388  1.00  0.00    -0.347 N 
HETATM   14  C   UNL     1      43.927 -15.315   6.381  1.00  0.00     0.270 C 
HETATM   15  O   UNL     1      44.626 -14.408   6.820  1.00  0.00    -0.266 OA
HETATM   16  H   UNL     1      42.413 -15.891   5.101  1.00  0.00     0.163 HD
BRANCH  14  17
HETATM   17  C   UNL     1      44.019 -16.657   6.888  1.00  0.00     0.122 A 
HETATM   18  N   UNL     1      44.649 -17.647   6.169  1.00  0.00    -0.270 N 
HETATM   19  H   UNL     1      45.087 -17.549   5.257  1.00  0.00     0.189 HD
HETATM   20  N   UNL     1      44.666 -18.846   6.784  1.00  0.00    -0.149 NA
HETATM   21  C   UNL     1      44.024 -18.589   7.911  1.00  0.00     0.183 A 
HETATM   22  C   UNL     1      43.591 -17.271   8.052  1.00  0.00     0.096 A 
BRANCH  21  23
HETATM   23  O   UNL     1      43.890 -19.616   8.742  1.00  0.00    -0.344 OA
HETATM   24  H   UNL     1      44.803 -19.873   8.963  1.00  0.00     0.219 HD
ENDBRANCH  21  23
ENDBRANCH  14  17
ENDBRANCH   5  13
BRANCH   9  25
HETATM   25  C   UNL     1      40.730 -14.042  -0.524  1.00  0.00     0.011 C 
HETATM   26  C   UNL     1      39.214 -13.779  -0.518  1.00  0.00     0.023 C 
HETATM   27  C   UNL     1      41.434 -12.946  -1.346  1.00  0.00     0.023 C 
HETATM   28  C   UNL     1      41.005 -15.397  -1.205  1.00  0.00     0.023 C 
ENDBRANCH   9  25
TORSDOF 4
ENDMDL
