MODEL 1
REMARK VINA RESULT:      -8.6      0.000      0.000
REMARK  7 active torsions:
REMARK  status: ('A' for Active; 'I' for Inactive)
REMARK    1  A    between atoms: C_3  and  C_4 
REMARK    2  A    between atoms: N_5  and  C_7 
REMARK    3  A    between atoms: N_10  and  C_11 
REMARK    4  A    between atoms: C_14  and  C_15 
REMARK       I    between atoms: C_15  and  N_16 
REMARK    5  A    between atoms: N_16  and  C_17 
REMARK    6  A    between atoms: C_17  and  C_18 
REMARK    7  A    between atoms: C_18  and  N_19 
ROOT
HETATM    1  C   UNL     1      38.403 -13.320  -0.589  1.00  0.00     0.192 C 
HETATM    2  C   UNL     1      37.525 -13.802   0.551  1.00  0.00     0.053 C 
HETATM    3  C   UNL     1      38.216 -14.746   1.516  1.00  0.00     0.125 C 
HETATM    4  N   UNL     1      39.487 -14.178   2.010  1.00  0.00    -0.381 N 
HETATM    5  C   UNL     1      40.414 -13.643   1.002  1.00  0.00     0.125 C 
HETATM    6  C   UNL     1      39.730 -12.778  -0.052  1.00  0.00     0.053 C 
ENDROOT
BRANCH   4   7
HETATM    7  C   UNL     1      40.070 -14.937   3.062  1.00  0.00     0.030 A 
HETATM    8  C   UNL     1      40.125 -14.492   4.396  1.00  0.00     0.030 A 
HETATM    9  C   UNL     1      40.787 -15.217   5.401  1.00  0.00     0.019 A 
HETATM   10  C   UNL     1      41.400 -16.430   5.096  1.00  0.00     0.032 A 
HETATM   11  C   UNL     1      41.309 -16.933   3.801  1.00  0.00     0.019 A 
HETATM   12  C   UNL     1      40.629 -16.207   2.813  1.00  0.00     0.030 A 
BRANCH  10  13
HETATM   13  C   UNL     1      42.227 -17.153   6.089  1.00  0.00     0.251 C 
HETATM   14  N   UNL     1      43.376 -17.754   5.630  1.00  0.00    -0.355 N 
HETATM   15  H   UNL     1      43.601 -17.643   4.645  1.00  0.00     0.162 HD
HETATM   16  O   UNL     1      41.877 -17.201   7.264  1.00  0.00    -0.268 OA
BRANCH  14  17
HETATM   17  C   UNL     1      44.145 -18.752   6.369  1.00  0.00     0.150 C 
BRANCH  17  18
HETATM   18  C   UNL     1      45.221 -19.539   5.585  1.00  0.00     0.254 C 
BRANCH  18  19
HETATM   19  N   UNL     1      44.644 -20.573   4.649  1.00  0.00    -0.066 N 
HETATM   20  H   UNL     1      43.628 -20.625   4.882  1.00  0.00     0.280 HD
HETATM   21  C   UNL     1      44.720 -20.224   3.173  1.00  0.00     0.261 C 
HETATM   22  C   UNL     1      44.027 -21.320   2.352  1.00  0.00     0.195 C 
HETATM   23  O   UNL     1      44.620 -22.599   2.603  1.00  0.00    -0.388 OA
HETATM   24  C   UNL     1      44.491 -22.973   3.979  1.00  0.00     0.195 C 
HETATM   25  C   UNL     1      45.202 -21.966   4.891  1.00  0.00     0.261 C 
ENDBRANCH  18  19
ENDBRANCH  17  18
ENDBRANCH  14  17
ENDBRANCH  10  13
ENDBRANCH   4   7
BRANCH   1  26
HETATM   26  N   UNL     1      38.597 -14.275  -1.778  1.00  0.00    -0.056 N 
HETATM   27  C   UNL     1      40.027 -14.227  -2.395  1.00  0.00     0.257 C 
HETATM   28  C   UNL     1      40.199 -15.493  -3.256  1.00  0.00     0.041 C 
HETATM   29  C   UNL     1      39.119 -15.634  -4.326  1.00  0.00     0.004 C 
HETATM   30  C   UNL     1      37.728 -15.567  -3.716  1.00  0.00     0.028 C 
HETATM   31  C   UNL     1      37.531 -14.329  -2.850  1.00  0.00     0.236 C 
HETATM   32  H   UNL     1      38.571 -15.205  -1.345  1.00  0.00     0.281 HD
BRANCH  27  33
HETATM   33  C   UNL     1      40.359 -12.989  -3.189  1.00  0.00     0.136 A 
HETATM   34  N   UNL     1      41.622 -12.439  -3.286  1.00  0.00    -0.346 N 
HETATM   35  C   UNL     1      42.841 -12.916  -2.674  1.00  0.00     0.157 C 
HETATM   36  C   UNL     1      41.539 -11.345  -4.101  1.00  0.00     0.111 A 
HETATM   37  C   UNL     1      40.226 -11.274  -4.488  1.00  0.00     0.136 A 
HETATM   38  N   UNL     1      39.506 -12.291  -3.920  1.00  0.00    -0.244 NA
ENDBRANCH  27  33
ENDBRANCH   1  26
TORSDOF 7
ENDMDL
MODEL 2
REMARK VINA RESULT:      -8.5      6.399     10.512
REMARK  7 active torsions:
REMARK  status: ('A' for Active; 'I' for Inactive)
REMARK    1  A    between atoms: C_3  and  C_4 
REMARK    2  A    between atoms: N_5  and  C_7 
REMARK    3  A    between atoms: N_10  and  C_11 
REMARK    4  A    between atoms: C_14  and  C_15 
REMARK       I    between atoms: C_15  and  N_16 
REMARK    5  A    between atoms: N_16  and  C_17 
REMARK    6  A    between atoms: C_17  and  C_18 
REMARK    7  A    between atoms: C_18  and  N_19 
ROOT
HETATM    1  C   UNL     1      40.317  -9.842   9.338  1.00  0.00     0.192 C 
HETATM    2  C   UNL     1      41.160  -9.411   8.151  1.00  0.00     0.053 C 
HETATM    3  C   UNL     1      41.596 -10.550   7.250  1.00  0.00     0.125 C 
HETATM    4  N   UNL     1      40.447 -11.376   6.829  1.00  0.00    -0.381 N 
HETATM    5  C   UNL     1      39.530 -11.831   7.886  1.00  0.00     0.125 C 
HETATM    6  C   UNL     1      39.161 -10.733   8.878  1.00  0.00     0.053 C 
ENDROOT
BRANCH   4   7
HETATM    7  C   UNL     1      40.779 -12.333   5.830  1.00  0.00     0.030 A 
HETATM    8  C   UNL     1      40.296 -13.656   5.839  1.00  0.00     0.030 A 
HETATM    9  C   UNL     1      40.710 -14.610   4.895  1.00  0.00     0.019 A 
HETATM   10  C   UNL     1      41.612 -14.254   3.894  1.00  0.00     0.032 A 
HETATM   11  C   UNL     1      42.058 -12.938   3.815  1.00  0.00     0.019 A 
HETATM   12  C   UNL     1      41.622 -11.993   4.754  1.00  0.00     0.030 A 
BRANCH  10  13
HETATM   13  C   UNL     1      42.181 -15.260   2.968  1.00  0.00     0.251 C 
HETATM   14  N   UNL     1      42.222 -16.563   3.407  1.00  0.00    -0.355 N 
HETATM   15  H   UNL     1      41.836 -16.761   4.326  1.00  0.00     0.162 HD
HETATM   16  O   UNL     1      42.593 -14.919   1.864  1.00  0.00    -0.268 OA
BRANCH  14  17
HETATM   17  C   UNL     1      43.010 -17.626   2.786  1.00  0.00     0.150 C 
BRANCH  17  18
HETATM   18  C   UNL     1      43.859 -18.517   3.723  1.00  0.00     0.254 C 
BRANCH  18  19
HETATM   19  N   UNL     1      43.790 -19.984   3.377  1.00  0.00    -0.066 N 
HETATM   20  H   UNL     1      42.874 -20.317   3.749  1.00  0.00     0.280 HD
HETATM   21  C   UNL     1      43.779 -20.300   1.892  1.00  0.00     0.261 C 
HETATM   22  C   UNL     1      43.626 -21.814   1.691  1.00  0.00     0.195 C 
HETATM   23  O   UNL     1      44.675 -22.527   2.355  1.00  0.00    -0.388 OA
HETATM   24  C   UNL     1      44.652 -22.295   3.768  1.00  0.00     0.195 C 
HETATM   25  C   UNL     1      44.854 -20.808   4.083  1.00  0.00     0.261 C 
ENDBRANCH  18  19
ENDBRANCH  17  18
ENDBRANCH  14  17
ENDBRANCH  10  13
ENDBRANCH   4   7
BRANCH   1  26
HETATM   26  N   UNL     1      41.059 -10.423  10.553  1.00  0.00    -0.056 N 
HETATM   27  C   UNL     1      40.187 -10.506  11.841  1.00  0.00     0.257 C 
HETATM   28  C   UNL     1      40.894 -11.467  12.814  1.00  0.00     0.041 C 
HETATM   29  C   UNL     1      42.330 -11.050  13.122  1.00  0.00     0.004 C 
HETATM   30  C   UNL     1      43.136 -10.866  11.845  1.00  0.00     0.028 C 
HETATM   31  C   UNL     1      42.455  -9.927  10.857  1.00  0.00     0.236 C 
HETATM   32  H   UNL     1      41.187 -11.411  10.305  1.00  0.00     0.281 HD
BRANCH  27  33
HETATM   33  C   UNL     1      39.881  -9.191  12.513  1.00  0.00     0.136 A 
HETATM   34  N   UNL     1      38.704  -8.489  12.354  1.00  0.00    -0.346 N 
HETATM   35  C   UNL     1      37.562  -8.851  11.545  1.00  0.00     0.157 C 
HETATM   36  C   UNL     1      38.780  -7.365  13.128  1.00  0.00     0.111 A 
HETATM   37  C   UNL     1      40.001  -7.429  13.749  1.00  0.00     0.136 A 
HETATM   38  N   UNL     1      40.673  -8.558  13.362  1.00  0.00    -0.244 NA
ENDBRANCH  27  33
ENDBRANCH   1  26
TORSDOF 7
ENDMDL
MODEL 3
REMARK VINA RESULT:      -8.3      4.294     11.106
REMARK  7 active torsions:
REMARK  status: ('A' for Active; 'I' for Inactive)
REMARK    1  A    between atoms: C_3  and  C_4 
REMARK    2  A    between atoms: N_5  and  C_7 
REMARK    3  A    between atoms: N_10  and  C_11 
REMARK    4  A    between atoms: C_14  and  C_15 
REMARK       I    between atoms: C_15  and  N_16 
REMARK    5  A    between atoms: N_16  and  C_17 
REMARK    6  A    between atoms: C_17  and  C_18 
REMARK    7  A    between atoms: C_18  and  N_19 
ROOT
HETATM    1  C   UNL     1      43.052 -17.715   2.888  1.00  0.00     0.192 C 
HETATM    2  C   UNL     1      41.785 -18.254   2.249  1.00  0.00     0.053 C 
HETATM    3  C   UNL     1      40.717 -17.206   2.000  1.00  0.00     0.125 C 
HETATM    4  N   UNL     1      41.256 -16.053   1.250  1.00  0.00    -0.381 N 
HETATM    5  C   UNL     1      42.506 -15.459   1.750  1.00  0.00     0.125 C 
HETATM    6  C   UNL     1      43.563 -16.495   2.118  1.00  0.00     0.053 C 
ENDROOT
BRANCH   4   7
HETATM    7  C   UNL     1      40.252 -15.141   0.825  1.00  0.00     0.030 A 
HETATM    8  C   UNL     1      40.324 -14.423  -0.384  1.00  0.00     0.030 A 
HETATM    9  C   UNL     1      39.367 -13.458  -0.740  1.00  0.00     0.019 A 
HETATM   10  C   UNL     1      38.289 -13.201   0.105  1.00  0.00     0.032 A 
HETATM   11  C   UNL     1      38.150 -13.939   1.277  1.00  0.00     0.019 A 
HETATM   12  C   UNL     1      39.104 -14.910   1.610  1.00  0.00     0.030 A 
BRANCH  10  13
HETATM   13  C   UNL     1      37.339 -12.097  -0.164  1.00  0.00     0.251 C 
HETATM   14  N   UNL     1      36.251 -11.989   0.670  1.00  0.00    -0.355 N 
HETATM   15  H   UNL     1      36.179 -12.655   1.435  1.00  0.00     0.162 HD
HETATM   16  O   UNL     1      37.537 -11.327  -1.099  1.00  0.00    -0.268 OA
BRANCH  14  17
HETATM   17  C   UNL     1      35.065 -11.182   0.391  1.00  0.00     0.150 C 
BRANCH  17  18
HETATM   18  C   UNL     1      34.755 -10.020   1.364  1.00  0.00     0.254 C 
BRANCH  18  19
HETATM   19  N   UNL     1      33.710 -10.366   2.396  1.00  0.00    -0.066 N 
HETATM   20  H   UNL     1      34.087 -11.194   2.908  1.00  0.00     0.280 HD
HETATM   21  C   UNL     1      33.462  -9.299   3.449  1.00  0.00     0.261 C 
HETATM   22  C   UNL     1      32.442  -9.817   4.472  1.00  0.00     0.195 C 
HETATM   23  O   UNL     1      31.219 -10.193   3.830  1.00  0.00    -0.388 OA
HETATM   24  C   UNL     1      31.428 -11.249   2.886  1.00  0.00     0.195 C 
HETATM   25  C   UNL     1      32.396 -10.814   1.780  1.00  0.00     0.261 C 
ENDBRANCH  18  19
ENDBRANCH  17  18
ENDBRANCH  14  17
ENDBRANCH  10  13
ENDBRANCH   4   7
BRANCH   1  26
HETATM   26  N   UNL     1      43.029 -17.483   4.407  1.00  0.00    -0.056 N 
HETATM   27  C   UNL     1      44.269 -18.062   5.150  1.00  0.00     0.257 C 
HETATM   28  C   UNL     1      44.322 -17.403   6.541  1.00  0.00     0.041 C 
HETATM   29  C   UNL     1      43.035 -17.599   7.339  1.00  0.00     0.004 C 
HETATM   30  C   UNL     1      41.822 -17.129   6.552  1.00  0.00     0.028 C 
HETATM   31  C   UNL     1      41.749 -17.757   5.165  1.00  0.00     0.236 C 
HETATM   32  H   UNL     1      43.167 -16.470   4.497  1.00  0.00     0.281 HD
BRANCH  27  33
HETATM   33  C   UNL     1      44.324 -19.565   5.266  1.00  0.00     0.136 A 
HETATM   34  N   UNL     1      44.721 -20.411   4.250  1.00  0.00    -0.346 N 
HETATM   35  C   UNL     1      45.152 -20.052   2.919  1.00  0.00     0.157 C 
HETATM   36  C   UNL     1      44.661 -21.692   4.727  1.00  0.00     0.111 A 
HETATM   37  C   UNL     1      44.244 -21.579   6.029  1.00  0.00     0.136 A 
HETATM   38  N   UNL     1      44.037 -20.264   6.351  1.00  0.00    -0.244 NA
ENDBRANCH  27  33
ENDBRANCH   1  26
TORSDOF 7
ENDMDL
MODEL 4
REMARK VINA RESULT:      -8.2      4.466      7.089
REMARK  7 active torsions:
REMARK  status: ('A' for Active; 'I' for Inactive)
REMARK    1  A    between atoms: C_3  and  C_4 
REMARK    2  A    between atoms: N_5  and  C_7 
REMARK    3  A    between atoms: N_10  and  C_11 
REMARK    4  A    between atoms: C_14  and  C_15 
REMARK       I    between atoms: C_15  and  N_16 
REMARK    5  A    between atoms: N_16  and  C_17 
REMARK    6  A    between atoms: C_17  and  C_18 
REMARK    7  A    between atoms: C_18  and  N_19 
ROOT
HETATM    1  C   UNL     1      40.780 -16.051   1.036  1.00  0.00     0.192 C 
HETATM    2  C   UNL     1      42.216 -15.559   1.040  1.00  0.00     0.053 C 
HETATM    3  C   UNL     1      42.611 -14.800   2.292  1.00  0.00     0.125 C 
HETATM    4  N   UNL     1      42.296 -15.569   3.513  1.00  0.00    -0.381 N 
HETATM    5  C   UNL     1      40.940 -16.131   3.614  1.00  0.00     0.125 C 
HETATM    6  C   UNL     1      40.467 -16.805   2.331  1.00  0.00     0.053 C 
ENDROOT
BRANCH   4   7
HETATM    7  C   UNL     1      42.825 -14.984   4.696  1.00  0.00     0.030 A 
HETATM    8  C   UNL     1      42.535 -13.668   5.103  1.00  0.00     0.030 A 
HETATM    9  C   UNL     1      43.141 -13.080   6.225  1.00  0.00     0.019 A 
HETATM   10  C   UNL     1      44.046 -13.811   6.991  1.00  0.00     0.032 A 
HETATM   11  C   UNL     1      44.306 -15.137   6.657  1.00  0.00     0.019 A 
HETATM   12  C   UNL     1      43.680 -15.715   5.544  1.00  0.00     0.030 A 
BRANCH  10  13
HETATM   13  C   UNL     1      44.812 -13.186   8.094  1.00  0.00     0.251 C 
HETATM   14  N   UNL     1      44.142 -12.961   9.274  1.00  0.00    -0.355 N 
HETATM   15  H   UNL     1      43.172 -13.260   9.326  1.00  0.00     0.162 HD
HETATM   16  O   UNL     1      45.992 -12.890   7.935  1.00  0.00    -0.268 OA
BRANCH  14  17
HETATM   17  C   UNL     1      44.618 -12.093  10.348  1.00  0.00     0.150 C 
BRANCH  17  18
HETATM   18  C   UNL     1      44.072 -10.646  10.384  1.00  0.00     0.254 C 
BRANCH  18  19
HETATM   19  N   UNL     1      42.749 -10.523  11.100  1.00  0.00    -0.066 N 
HETATM   20  H   UNL     1      42.712  -9.540  11.451  1.00  0.00     0.280 HD
HETATM   21  C   UNL     1      41.520 -10.703  10.226  1.00  0.00     0.261 C 
HETATM   22  C   UNL     1      40.257 -10.471  11.065  1.00  0.00     0.195 C 
HETATM   23  O   UNL     1      40.218 -11.360  12.187  1.00  0.00    -0.388 OA
HETATM   24  C   UNL     1      41.335 -11.151  13.059  1.00  0.00     0.195 C 
HETATM   25  C   UNL     1      42.658 -11.412  12.329  1.00  0.00     0.261 C 
ENDBRANCH  18  19
ENDBRANCH  17  18
ENDBRANCH  14  17
ENDBRANCH  10  13
ENDBRANCH   4   7
BRANCH   1  26
HETATM   26  N   UNL     1      39.689 -15.031   0.673  1.00  0.00    -0.056 N 
HETATM   27  C   UNL     1      39.811 -14.469  -0.775  1.00  0.00     0.257 C 
HETATM   28  C   UNL     1      38.462 -13.819  -1.132  1.00  0.00     0.041 C 
HETATM   29  C   UNL     1      38.040 -12.742  -0.135  1.00  0.00     0.004 C 
HETATM   30  C   UNL     1      38.034 -13.280   1.287  1.00  0.00     0.028 C 
HETATM   31  C   UNL     1      39.354 -13.940   1.665  1.00  0.00     0.236 C 
HETATM   32  H   UNL     1      38.836 -15.599   0.621  1.00  0.00     0.281 HD
BRANCH  27  33
HETATM   33  C   UNL     1      40.949 -13.509  -1.013  1.00  0.00     0.136 A 
HETATM   34  N   UNL     1      41.728 -13.489  -2.153  1.00  0.00    -0.346 N 
HETATM   35  C   UNL     1      41.621 -14.348  -3.310  1.00  0.00     0.157 C 
HETATM   36  C   UNL     1      42.638 -12.477  -2.020  1.00  0.00     0.111 A 
HETATM   37  C   UNL     1      42.369 -11.900  -0.805  1.00  0.00     0.136 A 
HETATM   38  N   UNL     1      41.328 -12.544  -0.191  1.00  0.00    -0.244 NA
ENDBRANCH  27  33
ENDBRANCH   1  26
TORSDOF 7
ENDMDL
MODEL 5
REMARK VINA RESULT:      -8.1      4.874     11.199
REMARK  7 active torsions:
REMARK  status: ('A' for Active; 'I' for Inactive)
REMARK    1  A    between atoms: C_3  and  C_4 
REMARK    2  A    between atoms: N_5  and  C_7 
REMARK    3  A    between atoms: N_10  and  C_11 
REMARK    4  A    between atoms: C_14  and  C_15 
REMARK       I    between atoms: C_15  and  N_16 
REMARK    5  A    between atoms: N_16  and  C_17 
REMARK    6  A    between atoms: C_17  and  C_18 
REMARK    7  A    between atoms: C_18  and  N_19 
ROOT
HETATM    1  C   UNL     1      42.929 -15.831   2.552  1.00  0.00     0.192 C 
HETATM    2  C   UNL     1      42.911 -16.667   1.284  1.00  0.00     0.053 C 
HETATM    3  C   UNL     1      41.724 -16.403   0.379  1.00  0.00     0.125 C 
HETATM    4  N   UNL     1      41.580 -14.963   0.083  1.00  0.00    -0.381 N 
HETATM    5  C   UNL     1      41.616 -14.041   1.228  1.00  0.00     0.125 C 
HETATM    6  C   UNL     1      42.733 -14.350   2.219  1.00  0.00     0.053 C 
ENDROOT
BRANCH   4   7
HETATM    7  C   UNL     1      40.604 -14.689  -0.915  1.00  0.00     0.030 A 
HETATM    8  C   UNL     1      39.460 -13.903  -0.679  1.00  0.00     0.030 A 
HETATM    9  C   UNL     1      38.462 -13.722  -1.652  1.00  0.00     0.019 A 
HETATM   10  C   UNL     1      38.597 -14.313  -2.906  1.00  0.00     0.032 A 
HETATM   11  C   UNL     1      39.747 -15.043  -3.196  1.00  0.00     0.019 A 
HETATM   12  C   UNL     1      40.741 -15.200  -2.221  1.00  0.00     0.030 A 
BRANCH  10  13
HETATM   13  C   UNL     1      37.507 -14.266  -3.907  1.00  0.00     0.251 C 
HETATM   14  N   UNL     1      36.978 -13.031  -4.200  1.00  0.00    -0.355 N 
HETATM   15  H   UNL     1      37.383 -12.225  -3.733  1.00  0.00     0.162 HD
HETATM   16  O   UNL     1      37.110 -15.300  -4.436  1.00  0.00    -0.268 OA
BRANCH  14  17
HETATM   17  C   UNL     1      35.719 -12.812  -4.909  1.00  0.00     0.150 C 
BRANCH  17  18
HETATM   18  C   UNL     1      35.771 -11.962  -6.200  1.00  0.00     0.254 C 
BRANCH  18  19
HETATM   19  N   UNL     1      35.199 -12.666  -7.405  1.00  0.00    -0.066 N 
HETATM   20  H   UNL     1      35.715 -12.280  -8.226  1.00  0.00     0.280 HD
HETATM   21  C   UNL     1      35.417 -14.169  -7.441  1.00  0.00     0.261 C 
HETATM   22  C   UNL     1      34.859 -14.736  -8.753  1.00  0.00     0.195 C 
HETATM   23  O   UNL     1      33.469 -14.421  -8.895  1.00  0.00    -0.388 OA
HETATM   24  C   UNL     1      33.256 -13.006  -8.935  1.00  0.00     0.195 C 
HETATM   25  C   UNL     1      33.733 -12.341  -7.638  1.00  0.00     0.261 C 
ENDBRANCH  18  19
ENDBRANCH  17  18
ENDBRANCH  14  17
ENDBRANCH  10  13
ENDBRANCH   4   7
BRANCH   1  26
HETATM   26  N   UNL     1      42.033 -16.296   3.712  1.00  0.00    -0.056 N 
HETATM   27  C   UNL     1      41.719 -15.178   4.750  1.00  0.00     0.257 C 
HETATM   28  C   UNL     1      40.513 -15.649   5.582  1.00  0.00     0.041 C 
HETATM   29  C   UNL     1      40.745 -17.001   6.252  1.00  0.00     0.004 C 
HETATM   30  C   UNL     1      41.160 -18.054   5.237  1.00  0.00     0.028 C 
HETATM   31  C   UNL     1      42.346 -17.612   4.390  1.00  0.00     0.236 C 
HETATM   32  H   UNL     1      41.122 -16.450   3.265  1.00  0.00     0.281 HD
BRANCH  27  33
HETATM   33  C   UNL     1      42.863 -14.772   5.644  1.00  0.00     0.136 A 
HETATM   34  N   UNL     1      43.010 -13.517   6.201  1.00  0.00    -0.346 N 
HETATM   35  C   UNL     1      42.136 -12.376   6.051  1.00  0.00     0.157 C 
HETATM   36  C   UNL     1      44.145 -13.529   6.963  1.00  0.00     0.111 A 
HETATM   37  C   UNL     1      44.644 -14.802   6.859  1.00  0.00     0.136 A 
HETATM   38  N   UNL     1      43.847 -15.560   6.042  1.00  0.00    -0.244 NA
ENDBRANCH  27  33
ENDBRANCH   1  26
TORSDOF 7
ENDMDL
MODEL 6
REMARK VINA RESULT:      -8.0      1.226      2.657
REMARK  7 active torsions:
REMARK  status: ('A' for Active; 'I' for Inactive)
REMARK    1  A    between atoms: C_3  and  C_4 
REMARK    2  A    between atoms: N_5  and  C_7 
REMARK    3  A    between atoms: N_10  and  C_11 
REMARK    4  A    between atoms: C_14  and  C_15 
REMARK       I    between atoms: C_15  and  N_16 
REMARK    5  A    between atoms: N_16  and  C_17 
REMARK    6  A    between atoms: C_17  and  C_18 
REMARK    7  A    between atoms: C_18  and  N_19 
ROOT
HETATM    1  C   UNL     1      38.693 -12.611   0.029  1.00  0.00     0.192 C 
HETATM    2  C   UNL     1      38.113 -13.948   0.453  1.00  0.00     0.053 C 
HETATM    3  C   UNL     1      39.005 -14.749   1.380  1.00  0.00     0.125 C 
HETATM    4  N   UNL     1      39.432 -13.948   2.545  1.00  0.00    -0.381 N 
HETATM    5  C   UNL     1      39.982 -12.613   2.269  1.00  0.00     0.125 C 
HETATM    6  C   UNL     1      39.168 -11.821   1.251  1.00  0.00     0.053 C 
ENDROOT
BRANCH   4   7
HETATM    7  C   UNL     1      40.105 -14.713   3.537  1.00  0.00     0.030 A 
HETATM    8  C   UNL     1      40.173 -14.333   4.891  1.00  0.00     0.030 A 
HETATM    9  C   UNL     1      40.921 -15.055   5.835  1.00  0.00     0.019 A 
HETATM   10  C   UNL     1      41.610 -16.202   5.448  1.00  0.00     0.032 A 
HETATM   11  C   UNL     1      41.512 -16.645   4.132  1.00  0.00     0.019 A 
HETATM   12  C   UNL     1      40.747 -15.923   3.205  1.00  0.00     0.030 A 
BRANCH  10  13
HETATM   13  C   UNL     1      42.522 -16.910   6.376  1.00  0.00     0.251 C 
HETATM   14  N   UNL     1      43.809 -17.131   5.944  1.00  0.00    -0.355 N 
HETATM   15  H   UNL     1      44.064 -16.774   5.027  1.00  0.00     0.162 HD
HETATM   16  O   UNL     1      42.120 -17.274   7.477  1.00  0.00    -0.268 OA
BRANCH  14  17
HETATM   17  C   UNL     1      44.747 -18.062   6.567  1.00  0.00     0.150 C 
BRANCH  17  18
HETATM   18  C   UNL     1      44.318 -19.546   6.655  1.00  0.00     0.254 C 
BRANCH  18  19
HETATM   19  N   UNL     1      44.727 -20.360   5.452  1.00  0.00    -0.066 N 
HETATM   20  H   UNL     1      45.768 -20.293   5.410  1.00  0.00     0.280 HD
HETATM   21  C   UNL     1      44.405 -21.842   5.534  1.00  0.00     0.261 C 
HETATM   22  C   UNL     1      44.947 -22.553   4.287  1.00  0.00     0.195 C 
HETATM   23  O   UNL     1      44.403 -21.979   3.093  1.00  0.00    -0.388 OA
HETATM   24  C   UNL     1      44.760 -20.598   2.968  1.00  0.00     0.195 C 
HETATM   25  C   UNL     1      44.215 -19.780   4.145  1.00  0.00     0.261 C 
ENDBRANCH  18  19
ENDBRANCH  17  18
ENDBRANCH  14  17
ENDBRANCH  10  13
ENDBRANCH   4   7
BRANCH   1  26
HETATM   26  N   UNL     1      39.734 -12.624  -1.103  1.00  0.00    -0.056 N 
HETATM   27  C   UNL     1      39.137 -12.321  -2.509  1.00  0.00     0.257 C 
HETATM   28  C   UNL     1      40.310 -11.953  -3.437  1.00  0.00     0.041 C 
HETATM   29  C   UNL     1      41.384 -13.036  -3.494  1.00  0.00     0.004 C 
HETATM   30  C   UNL     1      41.876 -13.397  -2.101  1.00  0.00     0.028 C 
HETATM   31  C   UNL     1      40.735 -13.756  -1.156  1.00  0.00     0.236 C 
HETATM   32  H   UNL     1      40.302 -11.790  -0.916  1.00  0.00     0.281 HD
BRANCH  27  33
HETATM   33  C   UNL     1      38.296 -13.416  -3.116  1.00  0.00     0.136 A 
HETATM   34  N   UNL     1      37.167 -13.200  -3.880  1.00  0.00    -0.346 N 
HETATM   35  C   UNL     1      36.579 -11.932  -4.247  1.00  0.00     0.157 C 
HETATM   36  C   UNL     1      36.687 -14.419  -4.270  1.00  0.00     0.111 A 
HETATM   37  C   UNL     1      37.554 -15.341  -3.741  1.00  0.00     0.136 A 
HETATM   38  N   UNL     1      38.542 -14.713  -3.030  1.00  0.00    -0.244 NA
ENDBRANCH  27  33
ENDBRANCH   1  26
TORSDOF 7
ENDMDL
MODEL 7
REMARK VINA RESULT:      -7.9      4.516     11.007
REMARK  7 active torsions:
REMARK  status: ('A' for Active; 'I' for Inactive)
REMARK    1  A    between atoms: C_3  and  C_4 
REMARK    2  A    between atoms: N_5  and  C_7 
REMARK    3  A    between atoms: N_10  and  C_11 
REMARK    4  A    between atoms: C_14  and  C_15 
REMARK       I    between atoms: C_15  and  N_16 
REMARK    5  A    between atoms: N_16  and  C_17 
REMARK    6  A    between atoms: C_17  and  C_18 
REMARK    7  A    between atoms: C_18  and  N_19 
ROOT
HETATM    1  C   UNL     1      43.074 -15.855   2.641  1.00  0.00     0.192 C 
HETATM    2  C   UNL     1      43.087 -16.688   1.373  1.00  0.00     0.053 C 
HETATM    3  C   UNL     1      41.900 -16.451   0.458  1.00  0.00     0.125 C 
HETATM    4  N   UNL     1      41.724 -15.014   0.164  1.00  0.00    -0.381 N 
HETATM    5  C   UNL     1      41.729 -14.093   1.311  1.00  0.00     0.125 C 
HETATM    6  C   UNL     1      42.845 -14.378   2.310  1.00  0.00     0.053 C 
ENDROOT
BRANCH   4   7
HETATM    7  C   UNL     1      40.750 -14.762  -0.841  1.00  0.00     0.030 A 
HETATM    8  C   UNL     1      39.572 -14.026  -0.606  1.00  0.00     0.030 A 
HETATM    9  C   UNL     1      38.580 -13.868  -1.587  1.00  0.00     0.019 A 
HETATM   10  C   UNL     1      38.753 -14.431  -2.850  1.00  0.00     0.032 A 
HETATM   11  C   UNL     1      39.934 -15.108  -3.138  1.00  0.00     0.019 A 
HETATM   12  C   UNL     1      40.923 -15.243  -2.154  1.00  0.00     0.030 A 
BRANCH  10  13
HETATM   13  C   UNL     1      37.673 -14.409  -3.864  1.00  0.00     0.251 C 
HETATM   14  N   UNL     1      37.221 -13.176  -4.272  1.00  0.00    -0.355 N 
HETATM   15  H   UNL     1      37.671 -12.356  -3.874  1.00  0.00     0.162 HD
HETATM   16  O   UNL     1      37.219 -15.461  -4.303  1.00  0.00    -0.268 OA
BRANCH  14  17
HETATM   17  C   UNL     1      35.981 -12.948  -5.011  1.00  0.00     0.150 C 
BRANCH  17  18
HETATM   18  C   UNL     1      35.207 -11.643  -4.709  1.00  0.00     0.254 C 
BRANCH  18  19
HETATM   19  N   UNL     1      34.086 -11.829  -3.716  1.00  0.00    -0.066 N 
HETATM   20  H   UNL     1      34.378 -12.626  -3.110  1.00  0.00     0.280 HD
HETATM   21  C   UNL     1      33.849 -10.656  -2.780  1.00  0.00     0.261 C 
HETATM   22  C   UNL     1      32.742 -11.014  -1.780  1.00  0.00     0.195 C 
HETATM   23  O   UNL     1      31.535 -11.374  -2.460  1.00  0.00    -0.388 OA
HETATM   24  C   UNL     1      31.727 -12.525  -3.291  1.00  0.00     0.195 C 
HETATM   25  C   UNL     1      32.782 -12.253  -4.370  1.00  0.00     0.261 C 
ENDBRANCH  18  19
ENDBRANCH  17  18
ENDBRANCH  14  17
ENDBRANCH  10  13
ENDBRANCH   4   7
BRANCH   1  26
HETATM   26  N   UNL     1      42.181 -16.343   3.794  1.00  0.00    -0.056 N 
HETATM   27  C   UNL     1      41.830 -15.235   4.830  1.00  0.00     0.257 C 
HETATM   28  C   UNL     1      40.629 -15.737   5.652  1.00  0.00     0.041 C 
HETATM   29  C   UNL     1      40.890 -17.083   6.323  1.00  0.00     0.004 C 
HETATM   30  C   UNL     1      41.339 -18.125   5.310  1.00  0.00     0.028 C 
HETATM   31  C   UNL     1      42.521 -17.651   4.473  1.00  0.00     0.236 C 
HETATM   32  H   UNL     1      41.278 -16.519   3.339  1.00  0.00     0.281 HD
BRANCH  27  33
HETATM   33  C   UNL     1      42.956 -14.801   5.735  1.00  0.00     0.136 A 
HETATM   34  N   UNL     1      43.078 -13.537   6.278  1.00  0.00    -0.346 N 
HETATM   35  C   UNL     1      42.188 -12.412   6.103  1.00  0.00     0.157 C 
HETATM   36  C   UNL     1      44.202 -13.523   7.055  1.00  0.00     0.111 A 
HETATM   37  C   UNL     1      44.721 -14.790   6.972  1.00  0.00     0.136 A 
HETATM   38  N   UNL     1      43.946 -15.570   6.154  1.00  0.00    -0.244 NA
ENDBRANCH  27  33
ENDBRANCH   1  26
TORSDOF 7
ENDMDL
MODEL 8
REMARK VINA RESULT:      -7.8      3.889     11.109
REMARK  7 active torsions:
REMARK  status: ('A' for Active; 'I' for Inactive)
REMARK    1  A    between atoms: C_3  and  C_4 
REMARK    2  A    between atoms: N_5  and  C_7 
REMARK    3  A    between atoms: N_10  and  C_11 
REMARK    4  A    between atoms: C_14  and  C_15 
REMARK       I    between atoms: C_15  and  N_16 
REMARK    5  A    between atoms: N_16  and  C_17 
REMARK    6  A    between atoms: C_17  and  C_18 
REMARK    7  A    between atoms: C_18  and  N_19 
ROOT
HETATM    1  C   UNL     1      42.954 -18.167   3.148  1.00  0.00     0.192 C 
HETATM    2  C   UNL     1      41.612 -18.312   2.453  1.00  0.00     0.053 C 
HETATM    3  C   UNL     1      41.109 -17.042   1.795  1.00  0.00     0.125 C 
HETATM    4  N   UNL     1      42.127 -16.459   0.897  1.00  0.00    -0.381 N 
HETATM    5  C   UNL     1      43.483 -16.298   1.442  1.00  0.00     0.125 C 
HETATM    6  C   UNL     1      43.975 -17.521   2.209  1.00  0.00     0.053 C 
ENDROOT
BRANCH   4   7
HETATM    7  C   UNL     1      41.632 -15.381   0.112  1.00  0.00     0.030 A 
HETATM    8  C   UNL     1      41.058 -15.554  -1.162  1.00  0.00     0.030 A 
HETATM    9  C   UNL     1      40.661 -14.468  -1.958  1.00  0.00     0.019 A 
HETATM   10  C   UNL     1      40.810 -13.166  -1.485  1.00  0.00     0.032 A 
HETATM   11  C   UNL     1      41.312 -12.960  -0.203  1.00  0.00     0.019 A 
HETATM   12  C   UNL     1      41.688 -14.055   0.587  1.00  0.00     0.030 A 
BRANCH  10  13
HETATM   13  C   UNL     1      40.537 -11.991  -2.345  1.00  0.00     0.251 C 
HETATM   14  N   UNL     1      39.395 -12.027  -3.111  1.00  0.00    -0.355 N 
HETATM   15  H   UNL     1      38.796 -12.843  -3.021  1.00  0.00     0.162 HD
HETATM   16  O   UNL     1      41.314 -11.042  -2.356  1.00  0.00    -0.268 OA
BRANCH  14  17
HETATM   17  C   UNL     1      39.116 -11.129  -4.229  1.00  0.00     0.150 C 
BRANCH  17  18
HETATM   18  C   UNL     1      37.631 -10.845  -4.555  1.00  0.00     0.254 C 
BRANCH  18  19
HETATM   19  N   UNL     1      36.911 -12.028  -5.154  1.00  0.00    -0.066 N 
HETATM   20  H   UNL     1      37.643 -12.572  -5.662  1.00  0.00     0.280 HD
HETATM   21  C   UNL     1      36.296 -12.988  -4.151  1.00  0.00     0.261 C 
HETATM   22  C   UNL     1      35.674 -14.177  -4.895  1.00  0.00     0.195 C 
HETATM   23  O   UNL     1      34.694 -13.733  -5.840  1.00  0.00    -0.388 OA
HETATM   24  C   UNL     1      35.276 -12.884  -6.835  1.00  0.00     0.195 C 
HETATM   25  C   UNL     1      35.883 -11.627  -6.199  1.00  0.00     0.261 C 
ENDBRANCH  18  19
ENDBRANCH  17  18
ENDBRANCH  14  17
ENDBRANCH  10  13
ENDBRANCH   4   7
BRANCH   1  26
HETATM   26  N   UNL     1      42.955 -17.530   4.547  1.00  0.00    -0.056 N 
HETATM   27  C   UNL     1      44.137 -17.995   5.448  1.00  0.00     0.257 C 
HETATM   28  C   UNL     1      44.253 -16.990   6.609  1.00  0.00     0.041 C 
HETATM   29  C   UNL     1      42.955 -16.845   7.400  1.00  0.00     0.004 C 
HETATM   30  C   UNL     1      41.790 -16.499   6.486  1.00  0.00     0.028 C 
HETATM   31  C   UNL     1      41.656 -17.471   5.320  1.00  0.00     0.236 C 
HETATM   32  H   UNL     1      43.186 -16.547   4.362  1.00  0.00     0.281 HD
BRANCH  27  33
HETATM   33  C   UNL     1      44.052 -19.407   5.967  1.00  0.00     0.136 A 
HETATM   34  N   UNL     1      44.537 -20.515   5.301  1.00  0.00    -0.346 N 
HETATM   35  C   UNL     1      45.204 -20.552   4.019  1.00  0.00     0.157 C 
HETATM   36  C   UNL     1      44.300 -21.611   6.083  1.00  0.00     0.111 A 
HETATM   37  C   UNL     1      43.689 -21.129   7.213  1.00  0.00     0.136 A 
HETATM   38  N   UNL     1      43.539 -19.770   7.131  1.00  0.00    -0.244 NA
ENDBRANCH  27  33
ENDBRANCH   1  26
TORSDOF 7
ENDMDL
MODEL 9
REMARK VINA RESULT:      -7.8      1.870      3.509
REMARK  7 active torsions:
REMARK  status: ('A' for Active; 'I' for Inactive)
REMARK    1  A    between atoms: C_3  and  C_4 
REMARK    2  A    between atoms: N_5  and  C_7 
REMARK    3  A    between atoms: N_10  and  C_11 
REMARK    4  A    between atoms: C_14  and  C_15 
REMARK       I    between atoms: C_15  and  N_16 
REMARK    5  A    between atoms: N_16  and  C_17 
REMARK    6  A    between atoms: C_17  and  C_18 
REMARK    7  A    between atoms: C_18  and  N_19 
ROOT
HETATM    1  C   UNL     1      40.374 -12.388  -2.039  1.00  0.00     0.192 C 
HETATM    2  C   UNL     1      41.022 -13.749  -2.217  1.00  0.00     0.053 C 
HETATM    3  C   UNL     1      41.432 -14.419  -0.920  1.00  0.00     0.125 C 
HETATM    4  N   UNL     1      40.310 -14.472   0.039  1.00  0.00    -0.381 N 
HETATM    5  C   UNL     1      39.574 -13.220   0.274  1.00  0.00     0.125 C 
HETATM    6  C   UNL     1      39.245 -12.462  -1.008  1.00  0.00     0.053 C 
ENDROOT
BRANCH   4   7
HETATM    7  C   UNL     1      40.590 -15.261   1.188  1.00  0.00     0.030 A 
HETATM    8  C   UNL     1      40.382 -14.808   2.505  1.00  0.00     0.030 A 
HETATM    9  C   UNL     1      40.752 -15.569   3.626  1.00  0.00     0.019 A 
HETATM   10  C   UNL     1      41.326 -16.827   3.456  1.00  0.00     0.032 A 
HETATM   11  C   UNL     1      41.484 -17.335   2.169  1.00  0.00     0.019 A 
HETATM   12  C   UNL     1      41.094 -16.571   1.061  1.00  0.00     0.030 A 
BRANCH  10  13
HETATM   13  C   UNL     1      41.858 -17.599   4.602  1.00  0.00     0.251 C 
HETATM   14  N   UNL     1      43.174 -17.390   4.942  1.00  0.00    -0.355 N 
HETATM   15  H   UNL     1      43.693 -16.701   4.404  1.00  0.00     0.162 HD
HETATM   16  O   UNL     1      41.135 -18.387   5.204  1.00  0.00    -0.268 OA
BRANCH  14  17
HETATM   17  C   UNL     1      43.956 -18.259   5.819  1.00  0.00     0.150 C 
BRANCH  17  18
HETATM   18  C   UNL     1      45.059 -19.121   5.161  1.00  0.00     0.254 C 
BRANCH  18  19
HETATM   19  N   UNL     1      44.517 -20.280   4.362  1.00  0.00    -0.066 N 
HETATM   20  H   UNL     1      43.506 -20.343   4.611  1.00  0.00     0.280 HD
HETATM   21  C   UNL     1      44.567 -20.107   2.854  1.00  0.00     0.261 C 
HETATM   22  C   UNL     1      43.913 -21.319   2.177  1.00  0.00     0.195 C 
HETATM   23  O   UNL     1      44.558 -22.534   2.570  1.00  0.00    -0.388 OA
HETATM   24  C   UNL     1      44.456 -22.747   3.983  1.00  0.00     0.195 C 
HETATM   25  C   UNL     1      45.133 -21.611   4.760  1.00  0.00     0.261 C 
ENDBRANCH  18  19
ENDBRANCH  17  18
ENDBRANCH  14  17
ENDBRANCH  10  13
ENDBRANCH   4   7
BRANCH   1  26
HETATM   26  N   UNL     1      41.308 -11.190  -1.801  1.00  0.00    -0.056 N 
HETATM   27  C   UNL     1      40.835  -9.877  -2.494  1.00  0.00     0.257 C 
HETATM   28  C   UNL     1      41.598  -8.711  -1.839  1.00  0.00     0.041 C 
HETATM   29  C   UNL     1      43.114  -8.880  -1.908  1.00  0.00     0.004 C 
HETATM   30  C   UNL     1      43.546 -10.217  -1.328  1.00  0.00     0.028 C 
HETATM   31  C   UNL     1      42.800 -11.391  -1.950  1.00  0.00     0.236 C 
HETATM   32  H   UNL     1      41.177 -10.978  -0.806  1.00  0.00     0.281 HD
BRANCH  27  33
HETATM   33  C   UNL     1      40.979  -9.837  -3.994  1.00  0.00     0.136 A 
HETATM   34  N   UNL     1      40.158  -9.117  -4.838  1.00  0.00    -0.346 N 
HETATM   35  C   UNL     1      39.034  -8.283  -4.476  1.00  0.00     0.157 C 
HETATM   36  C   UNL     1      40.604  -9.305  -6.116  1.00  0.00     0.111 A 
HETATM   37  C   UNL     1      41.698 -10.125  -6.006  1.00  0.00     0.136 A 
HETATM   38  N   UNL     1      41.920 -10.449  -4.694  1.00  0.00    -0.244 NA
ENDBRANCH  27  33
ENDBRANCH   1  26
TORSDOF 7
ENDMDL
MODEL 10
REMARK VINA RESULT:      -7.8      4.142      6.737
REMARK  7 active torsions:
REMARK  status: ('A' for Active; 'I' for Inactive)
REMARK    1  A    between atoms: C_3  and  C_4 
REMARK    2  A    between atoms: N_5  and  C_7 
REMARK    3  A    between atoms: N_10  and  C_11 
REMARK    4  A    between atoms: C_14  and  C_15 
REMARK       I    between atoms: C_15  and  N_16 
REMARK    5  A    between atoms: N_16  and  C_17 
REMARK    6  A    between atoms: C_17  and  C_18 
REMARK    7  A    between atoms: C_18  and  N_19 
ROOT
HETATM    1  C   UNL     1      39.366 -13.023  -0.217  1.00  0.00     0.192 C 
HETATM    2  C   UNL     1      39.492 -14.399   0.412  1.00  0.00     0.053 C 
HETATM    3  C   UNL     1      40.586 -14.511   1.455  1.00  0.00     0.125 C 
HETATM    4  N   UNL     1      40.467 -13.453   2.480  1.00  0.00    -0.381 N 
HETATM    5  C   UNL     1      40.304 -12.073   1.997  1.00  0.00     0.125 C 
HETATM    6  C   UNL     1      39.289 -11.944   0.866  1.00  0.00     0.053 C 
ENDROOT
BRANCH   4   7
HETATM    7  C   UNL     1      41.349 -13.635   3.580  1.00  0.00     0.030 A 
HETATM    8  C   UNL     1      40.905 -13.805   4.905  1.00  0.00     0.030 A 
HETATM    9  C   UNL     1      41.794 -13.890   5.988  1.00  0.00     0.019 A 
HETATM   10  C   UNL     1      43.168 -13.828   5.768  1.00  0.00     0.032 A 
HETATM   11  C   UNL     1      43.646 -13.727   4.464  1.00  0.00     0.019 A 
HETATM   12  C   UNL     1      42.745 -13.660   3.392  1.00  0.00     0.030 A 
BRANCH  10  13
HETATM   13  C   UNL     1      44.133 -13.771   6.890  1.00  0.00     0.251 C 
HETATM   14  N   UNL     1      43.887 -12.851   7.882  1.00  0.00    -0.355 N 
HETATM   15  H   UNL     1      43.047 -12.286   7.799  1.00  0.00     0.162 HD
HETATM   16  O   UNL     1      45.103 -14.523   6.908  1.00  0.00    -0.268 OA
BRANCH  14  17
HETATM   17  C   UNL     1      44.860 -12.434   8.889  1.00  0.00     0.150 C 
BRANCH  17  18
HETATM   18  C   UNL     1      44.419 -12.500  10.370  1.00  0.00     0.254 C 
BRANCH  18  19
HETATM   19  N   UNL     1      43.126 -11.771  10.643  1.00  0.00    -0.066 N 
HETATM   20  H   UNL     1      42.383 -12.336  10.177  1.00  0.00     0.280 HD
HETATM   21  C   UNL     1      42.730 -11.681  12.107  1.00  0.00     0.261 C 
HETATM   22  C   UNL     1      41.365 -10.991  12.226  1.00  0.00     0.195 C 
HETATM   23  O   UNL     1      41.395  -9.691  11.627  1.00  0.00    -0.388 OA
HETATM   24  C   UNL     1      41.697  -9.767  10.229  1.00  0.00     0.195 C 
HETATM   25  C   UNL     1      43.076 -10.396   9.998  1.00  0.00     0.261 C 
ENDBRANCH  18  19
ENDBRANCH  17  18
ENDBRANCH  14  17
ENDBRANCH  10  13
ENDBRANCH   4   7
BRANCH   1  26
HETATM   26  N   UNL     1      40.364 -12.666  -1.331  1.00  0.00    -0.056 N 
HETATM   27  C   UNL     1      39.745 -12.692  -2.760  1.00  0.00     0.257 C 
HETATM   28  C   UNL     1      40.702 -11.925  -3.690  1.00  0.00     0.041 C 
HETATM   29  C   UNL     1      42.123 -12.485  -3.673  1.00  0.00     0.004 C 
HETATM   30  C   UNL     1      42.669 -12.555  -2.256  1.00  0.00     0.028 C 
HETATM   31  C   UNL     1      41.736 -13.301  -1.309  1.00  0.00     0.236 C 
HETATM   32  H   UNL     1      40.542 -11.667  -1.182  1.00  0.00     0.281 HD
BRANCH  27  33
HETATM   33  C   UNL     1      39.435 -14.058  -3.318  1.00  0.00     0.136 A 
HETATM   34  N   UNL     1      38.202 -14.441  -3.806  1.00  0.00    -0.346 N 
HETATM   35  C   UNL     1      36.998 -13.646  -3.884  1.00  0.00     0.157 C 
HETATM   36  C   UNL     1      38.307 -15.733  -4.241  1.00  0.00     0.111 A 
HETATM   37  C   UNL     1      39.613 -16.089  -4.018  1.00  0.00     0.136 A 
HETATM   38  N   UNL     1      40.300 -15.051  -3.447  1.00  0.00    -0.244 NA
ENDBRANCH  27  33
ENDBRANCH   1  26
TORSDOF 7
ENDMDL
