MODEL 1
REMARK VINA RESULT:      -9.0      0.000      0.000
REMARK  6 active torsions:
REMARK  status: ('A' for Active; 'I' for Inactive)
REMARK    1  A    between atoms: C_2  and  O_3 
REMARK    2  A    between atoms: C_2  and  C_4 
REMARK    3  A    between atoms: C_7  and  N_8 
REMARK       I    between atoms: N_8  and  C_9 
REMARK    4  A    between atoms: C_9  and  C_10 
REMARK    5  A    between atoms: C_13  and  C_14 
REMARK    6  A    between atoms: C_19  and  C_20 
ROOT
HETATM    1  C   UNL     1      41.590 -15.066   0.574  1.00  0.00     0.096 C 
HETATM    2  C   UNL     1      41.580 -14.693  -0.757  1.00  0.00     0.138 C 
HETATM    3  N   UNL     1      41.549 -13.316  -0.759  1.00  0.00    -0.240 N 
HETATM    4  C   UNL     1      41.507 -12.494  -1.957  1.00  0.00     0.221 C 
HETATM    5  C   UNL     1      41.860 -13.336  -3.197  1.00  0.00     0.067 C 
HETATM    6  C   UNL     1      41.164 -14.706  -3.166  1.00  0.00     0.125 C 
HETATM    7  N   UNL     1      41.558 -15.400  -1.923  1.00  0.00    -0.365 N 
HETATM    8  N   UNL     1      41.353 -12.787   0.457  1.00  0.00    -0.181 NA
HETATM    9  C   UNL     1      41.412 -13.846   1.269  1.00  0.00     0.160 C 
HETATM   10  H   UNL     1      41.178 -16.348  -1.896  1.00  0.00     0.162 HD
ENDROOT
BRANCH   1  11
HETATM   11  C   UNL     1      41.707 -16.386   1.173  1.00  0.00     0.261 C 
HETATM   12  N   UNL     1      42.988 -16.682   1.600  1.00  0.00    -0.323 N 
HETATM   13  H   UNL     1      43.661 -15.927   1.516  1.00  0.00     0.169 HD
HETATM   14  O   UNL     1      40.716 -17.093   1.307  1.00  0.00    -0.267 OA
BRANCH  12  15
HETATM   15  C   UNL     1      43.423 -17.843   2.269  1.00  0.00     0.035 A 
HETATM   16  C   UNL     1      43.757 -17.884   3.623  1.00  0.00     0.030 A 
HETATM   17  C   UNL     1      44.217 -19.069   4.212  1.00  0.00     0.012 A 
HETATM   18  C   UNL     1      44.358 -20.243   3.462  1.00  0.00    -0.030 A 
HETATM   19  C   UNL     1      43.989 -20.200   2.108  1.00  0.00     0.012 A 
HETATM   20  C   UNL     1      43.526 -19.018   1.520  1.00  0.00     0.030 A 
BRANCH  18  21
HETATM   21  C   UNL     1      44.886 -21.541   4.034  1.00  0.00     0.147 C 
HETATM   22  C   UNL     1      44.548 -21.827   5.495  1.00  0.00     0.044 C 
BRANCH  21  23
HETATM   23  O   UNL     1      44.388 -22.608   3.229  1.00  0.00    -0.391 OA
HETATM   24  H   UNL     1      43.421 -22.603   3.309  1.00  0.00     0.210 HD
ENDBRANCH  21  23
ENDBRANCH  18  21
ENDBRANCH  12  15
ENDBRANCH   1  11
BRANCH   4  25
HETATM   25  C   UNL     1      42.458 -11.320  -1.858  1.00  0.00     0.409 C 
HETATM   26  F   UNL     1      43.597 -11.638  -1.202  1.00  0.00    -0.169 F 
HETATM   27  F   UNL     1      42.831 -10.931  -3.108  1.00  0.00    -0.169 F 
HETATM   28  F   UNL     1      41.921 -10.232  -1.272  1.00  0.00    -0.169 F 
ENDBRANCH   4  25
BRANCH   6  29
HETATM   29  C   UNL     1      39.670 -14.593  -3.393  1.00  0.00     0.005 A 
HETATM   30  S   UNL     1      38.799 -15.939  -4.019  1.00  0.00    -0.104 SA
HETATM   31  C   UNL     1      37.324 -15.080  -4.012  1.00  0.00     0.050 A 
HETATM   32  C   UNL     1      37.472 -13.803  -3.523  1.00  0.00     0.008 A 
HETATM   33  C   UNL     1      38.822 -13.523  -3.161  1.00  0.00     0.017 A 
ENDBRANCH   6  29
TORSDOF 6
ENDMDL
MODEL 2
REMARK VINA RESULT:      -8.5      4.260      8.942
REMARK  6 active torsions:
REMARK  status: ('A' for Active; 'I' for Inactive)
REMARK    1  A    between atoms: C_2  and  O_3 
REMARK    2  A    between atoms: C_2  and  C_4 
REMARK    3  A    between atoms: C_7  and  N_8 
REMARK       I    between atoms: N_8  and  C_9 
REMARK    4  A    between atoms: C_9  and  C_10 
REMARK    5  A    between atoms: C_13  and  C_14 
REMARK    6  A    between atoms: C_19  and  C_20 
ROOT
HETATM    1  C   UNL     1      41.633 -14.902   2.795  1.00  0.00     0.096 C 
HETATM    2  C   UNL     1      41.942 -15.610   3.942  1.00  0.00     0.138 C 
HETATM    3  N   UNL     1      43.075 -15.017   4.453  1.00  0.00    -0.240 N 
HETATM    4  C   UNL     1      43.766 -15.457   5.653  1.00  0.00     0.221 C 
HETATM    5  C   UNL     1      42.878 -16.423   6.459  1.00  0.00     0.067 C 
HETATM    6  C   UNL     1      42.176 -17.440   5.545  1.00  0.00     0.125 C 
HETATM    7  N   UNL     1      41.382 -16.697   4.546  1.00  0.00    -0.365 N 
HETATM    8  N   UNL     1      43.618 -14.110   3.629  1.00  0.00    -0.181 NA
HETATM    9  C   UNL     1      42.726 -14.016   2.639  1.00  0.00     0.160 C 
HETATM   10  H   UNL     1      40.837 -17.335   3.961  1.00  0.00     0.162 HD
ENDROOT
BRANCH   1  11
HETATM   11  C   UNL     1      40.495 -15.028   1.898  1.00  0.00     0.261 C 
HETATM   12  N   UNL     1      40.604 -14.245   0.763  1.00  0.00    -0.323 N 
HETATM   13  H   UNL     1      41.482 -13.748   0.659  1.00  0.00     0.169 HD
HETATM   14  O   UNL     1      39.589 -15.810   2.155  1.00  0.00    -0.267 OA
BRANCH  12  15
HETATM   15  C   UNL     1      39.709 -14.180  -0.323  1.00  0.00     0.035 A 
HETATM   16  C   UNL     1      38.428 -13.634  -0.246  1.00  0.00     0.030 A 
HETATM   17  C   UNL     1      37.580 -13.637  -1.362  1.00  0.00     0.012 A 
HETATM   18  C   UNL     1      37.990 -14.189  -2.581  1.00  0.00    -0.030 A 
HETATM   19  C   UNL     1      39.293 -14.707  -2.658  1.00  0.00     0.012 A 
HETATM   20  C   UNL     1      40.141 -14.701  -1.545  1.00  0.00     0.030 A 
BRANCH  18  21
HETATM   21  C   UNL     1      37.104 -14.256  -3.807  1.00  0.00     0.147 C 
HETATM   22  C   UNL     1      36.722 -12.921  -4.442  1.00  0.00     0.044 C 
BRANCH  21  23
HETATM   23  O   UNL     1      37.769 -15.057  -4.783  1.00  0.00    -0.391 OA
HETATM   24  H   UNL     1      37.210 -15.832  -4.950  1.00  0.00     0.210 HD
ENDBRANCH  21  23
ENDBRANCH  18  21
ENDBRANCH  12  15
ENDBRANCH   1  11
BRANCH   4  25
HETATM   25  C   UNL     1      44.159 -14.286   6.528  1.00  0.00     0.409 C 
HETATM   26  F   UNL     1      43.217 -13.315   6.538  1.00  0.00    -0.169 F 
HETATM   27  F   UNL     1      44.291 -14.706   7.817  1.00  0.00    -0.169 F 
HETATM   28  F   UNL     1      45.340 -13.728   6.193  1.00  0.00    -0.169 F 
ENDBRANCH   4  25
BRANCH   6  29
HETATM   29  C   UNL     1      43.144 -18.456   4.971  1.00  0.00     0.005 A 
HETATM   30  S   UNL     1      44.203 -19.312   6.023  1.00  0.00    -0.104 SA
HETATM   31  C   UNL     1      44.922 -20.159   4.727  1.00  0.00     0.050 A 
HETATM   32  C   UNL     1      44.360 -19.825   3.517  1.00  0.00     0.008 A 
HETATM   33  C   UNL     1      43.333 -18.848   3.657  1.00  0.00     0.017 A 
ENDBRANCH   6  29
TORSDOF 6
ENDMDL
MODEL 3
REMARK VINA RESULT:      -8.1      2.818      3.641
REMARK  6 active torsions:
REMARK  status: ('A' for Active; 'I' for Inactive)
REMARK    1  A    between atoms: C_2  and  O_3 
REMARK    2  A    between atoms: C_2  and  C_4 
REMARK    3  A    between atoms: C_7  and  N_8 
REMARK       I    between atoms: N_8  and  C_9 
REMARK    4  A    between atoms: C_9  and  C_10 
REMARK    5  A    between atoms: C_13  and  C_14 
REMARK    6  A    between atoms: C_19  and  C_20 
ROOT
HETATM    1  C   UNL     1      41.095 -15.228   1.949  1.00  0.00     0.096 C 
HETATM    2  C   UNL     1      41.107 -13.936   1.459  1.00  0.00     0.138 C 
HETATM    3  N   UNL     1      39.787 -13.553   1.378  1.00  0.00    -0.240 N 
HETATM    4  C   UNL     1      39.330 -12.264   0.889  1.00  0.00     0.221 C 
HETATM    5  C   UNL     1      40.506 -11.272   0.815  1.00  0.00     0.067 C 
HETATM    6  C   UNL     1      41.763 -11.930   0.226  1.00  0.00     0.125 C 
HETATM    7  N   UNL     1      42.108 -13.101   1.056  1.00  0.00    -0.365 N 
HETATM    8  N   UNL     1      38.928 -14.558   1.602  1.00  0.00    -0.181 NA
HETATM    9  C   UNL     1      39.720 -15.565   1.980  1.00  0.00     0.160 C 
HETATM   10  H   UNL     1      42.984 -13.527   0.745  1.00  0.00     0.162 HD
ENDROOT
BRANCH   1  11
HETATM   11  C   UNL     1      42.200 -16.099   2.317  1.00  0.00     0.261 C 
HETATM   12  N   UNL     1      41.828 -17.423   2.466  1.00  0.00    -0.323 N 
HETATM   13  H   UNL     1      40.865 -17.634   2.228  1.00  0.00     0.169 HD
HETATM   14  O   UNL     1      43.334 -15.649   2.415  1.00  0.00    -0.267 OA
BRANCH  12  15
HETATM   15  C   UNL     1      42.662 -18.520   2.758  1.00  0.00     0.035 A 
HETATM   16  C   UNL     1      43.017 -19.497   1.829  1.00  0.00     0.030 A 
HETATM   17  C   UNL     1      43.823 -20.582   2.202  1.00  0.00     0.012 A 
HETATM   18  C   UNL     1      44.289 -20.719   3.516  1.00  0.00    -0.030 A 
HETATM   19  C   UNL     1      43.951 -19.713   4.436  1.00  0.00     0.012 A 
HETATM   20  C   UNL     1      43.150 -18.628   4.062  1.00  0.00     0.030 A 
BRANCH  18  21
HETATM   21  C   UNL     1      45.128 -21.888   3.986  1.00  0.00     0.147 C 
HETATM   22  C   UNL     1      45.010 -22.256   5.463  1.00  0.00     0.044 C 
BRANCH  21  23
HETATM   23  O   UNL     1      44.776 -23.023   3.199  1.00  0.00    -0.391 OA
HETATM   24  H   UNL     1      45.569 -23.576   3.118  1.00  0.00     0.210 HD
ENDBRANCH  21  23
ENDBRANCH  18  21
ENDBRANCH  12  15
ENDBRANCH   1  11
BRANCH   4  25
HETATM   25  C   UNL     1      38.241 -11.689   1.770  1.00  0.00     0.409 C 
HETATM   26  F   UNL     1      38.407 -12.020   3.071  1.00  0.00    -0.169 F 
HETATM   27  F   UNL     1      38.279 -10.330   1.712  1.00  0.00    -0.169 F 
HETATM   28  F   UNL     1      36.995 -12.045   1.398  1.00  0.00    -0.169 F 
ENDBRANCH   4  25
BRANCH   6  29
HETATM   29  C   UNL     1      41.619 -12.212  -1.256  1.00  0.00     0.005 A 
HETATM   30  S   UNL     1      40.954 -11.010  -2.292  1.00  0.00    -0.104 SA
HETATM   31  C   UNL     1      41.089 -12.015  -3.665  1.00  0.00     0.050 A 
HETATM   32  C   UNL     1      41.650 -13.233  -3.360  1.00  0.00     0.008 A 
HETATM   33  C   UNL     1      41.960 -13.346  -1.974  1.00  0.00     0.017 A 
ENDBRANCH   6  29
TORSDOF 6
ENDMDL
MODEL 4
REMARK VINA RESULT:      -8.0      2.965      4.075
REMARK  6 active torsions:
REMARK  status: ('A' for Active; 'I' for Inactive)
REMARK    1  A    between atoms: C_2  and  O_3 
REMARK    2  A    between atoms: C_2  and  C_4 
REMARK    3  A    between atoms: C_7  and  N_8 
REMARK       I    between atoms: N_8  and  C_9 
REMARK    4  A    between atoms: C_9  and  C_10 
REMARK    5  A    between atoms: C_13  and  C_14 
REMARK    6  A    between atoms: C_19  and  C_20 
ROOT
HETATM    1  C   UNL     1      40.957 -15.458  -0.827  1.00  0.00     0.096 C 
HETATM    2  C   UNL     1      40.154 -14.389  -1.175  1.00  0.00     0.138 C 
HETATM    3  N   UNL     1      39.685 -14.669  -2.439  1.00  0.00    -0.240 N 
HETATM    4  C   UNL     1      38.814 -13.797  -3.209  1.00  0.00     0.221 C 
HETATM    5  C   UNL     1      38.206 -12.711  -2.301  1.00  0.00     0.067 C 
HETATM    6  C   UNL     1      39.255 -12.122  -1.346  1.00  0.00     0.125 C 
HETATM    7  N   UNL     1      39.828 -13.223  -0.546  1.00  0.00    -0.365 N 
HETATM    8  N   UNL     1      40.270 -15.739  -2.998  1.00  0.00    -0.181 NA
HETATM    9  C   UNL     1      41.016 -16.236  -2.008  1.00  0.00     0.160 C 
HETATM   10  H   UNL     1      40.479 -12.866   0.158  1.00  0.00     0.162 HD
ENDROOT
BRANCH   1  11
HETATM   11  C   UNL     1      41.642 -15.743   0.424  1.00  0.00     0.261 C 
HETATM   12  N   UNL     1      41.592 -17.077   0.784  1.00  0.00    -0.323 N 
HETATM   13  H   UNL     1      41.159 -17.696   0.106  1.00  0.00     0.169 HD
HETATM   14  O   UNL     1      42.234 -14.853   1.021  1.00  0.00    -0.267 OA
BRANCH  12  15
HETATM   15  C   UNL     1      42.200 -17.689   1.898  1.00  0.00     0.035 A 
HETATM   16  C   UNL     1      41.766 -17.521   3.213  1.00  0.00     0.030 A 
HETATM   17  C   UNL     1      42.444 -18.134   4.275  1.00  0.00     0.012 A 
HETATM   18  C   UNL     1      43.576 -18.927   4.050  1.00  0.00    -0.030 A 
HETATM   19  C   UNL     1      43.987 -19.115   2.720  1.00  0.00     0.012 A 
HETATM   20  C   UNL     1      43.307 -18.507   1.659  1.00  0.00     0.030 A 
BRANCH  18  21
HETATM   21  C   UNL     1      44.372 -19.581   5.159  1.00  0.00     0.147 C 
HETATM   22  C   UNL     1      45.113 -20.865   4.797  1.00  0.00     0.044 C 
BRANCH  21  23
HETATM   23  O   UNL     1      45.315 -18.625   5.642  1.00  0.00    -0.391 OA
HETATM   24  H   UNL     1      45.997 -18.523   4.960  1.00  0.00     0.210 HD
ENDBRANCH  21  23
ENDBRANCH  18  21
ENDBRANCH  12  15
ENDBRANCH   1  11
BRANCH   4  25
HETATM   25  C   UNL     1      37.701 -14.574  -3.879  1.00  0.00     0.409 C 
HETATM   26  F   UNL     1      37.017 -15.346  -3.004  1.00  0.00    -0.169 F 
HETATM   27  F   UNL     1      36.798 -13.706  -4.413  1.00  0.00    -0.169 F 
HETATM   28  F   UNL     1      38.118 -15.354  -4.896  1.00  0.00    -0.169 F 
ENDBRANCH   4  25
BRANCH   6  29
HETATM   29  C   UNL     1      40.269 -11.260  -2.072  1.00  0.00     0.005 A 
HETATM   30  S   UNL     1      39.728 -10.036  -3.153  1.00  0.00    -0.104 SA
HETATM   31  C   UNL     1      41.324  -9.579  -3.550  1.00  0.00     0.050 A 
HETATM   32  C   UNL     1      42.259 -10.318  -2.863  1.00  0.00     0.008 A 
HETATM   33  C   UNL     1      41.652 -11.283  -2.008  1.00  0.00     0.017 A 
ENDBRANCH   6  29
TORSDOF 6
ENDMDL
MODEL 5
REMARK VINA RESULT:      -8.0      2.158      2.652
REMARK  6 active torsions:
REMARK  status: ('A' for Active; 'I' for Inactive)
REMARK    1  A    between atoms: C_2  and  O_3 
REMARK    2  A    between atoms: C_2  and  C_4 
REMARK    3  A    between atoms: C_7  and  N_8 
REMARK       I    between atoms: N_8  and  C_9 
REMARK    4  A    between atoms: C_9  and  C_10 
REMARK    5  A    between atoms: C_13  and  C_14 
REMARK    6  A    between atoms: C_19  and  C_20 
ROOT
HETATM    1  C   UNL     1      40.979 -14.944   1.907  1.00  0.00     0.096 C 
HETATM    2  C   UNL     1      40.841 -14.100   0.822  1.00  0.00     0.138 C 
HETATM    3  N   UNL     1      39.660 -13.421   1.023  1.00  0.00    -0.240 N 
HETATM    4  C   UNL     1      39.107 -12.437   0.108  1.00  0.00     0.221 C 
HETATM    5  C   UNL     1      40.172 -12.000  -0.915  1.00  0.00     0.067 C 
HETATM    6  C   UNL     1      40.970 -13.200  -1.447  1.00  0.00     0.125 C 
HETATM    7  N   UNL     1      41.589 -13.894  -0.300  1.00  0.00    -0.365 N 
HETATM    8  N   UNL     1      38.943 -13.896   2.052  1.00  0.00    -0.181 NA
HETATM    9  C   UNL     1      39.758 -14.796   2.608  1.00  0.00     0.160 C 
HETATM   10  H   UNL     1      42.193 -14.657  -0.614  1.00  0.00     0.162 HD
ENDROOT
BRANCH   1  11
HETATM   11  C   UNL     1      42.073 -15.831   2.268  1.00  0.00     0.261 C 
HETATM   12  N   UNL     1      41.654 -17.097   2.635  1.00  0.00    -0.323 N 
HETATM   13  H   UNL     1      40.660 -17.273   2.535  1.00  0.00     0.169 HD
HETATM   14  O   UNL     1      43.233 -15.448   2.180  1.00  0.00    -0.267 OA
BRANCH  12  15
HETATM   15  C   UNL     1      42.459 -18.200   2.982  1.00  0.00     0.035 A 
HETATM   16  C   UNL     1      42.974 -18.418   4.259  1.00  0.00     0.030 A 
HETATM   17  C   UNL     1      43.798 -19.521   4.521  1.00  0.00     0.012 A 
HETATM   18  C   UNL     1      44.132 -20.431   3.511  1.00  0.00    -0.030 A 
HETATM   19  C   UNL     1      43.583 -20.221   2.236  1.00  0.00     0.012 A 
HETATM   20  C   UNL     1      42.756 -19.122   1.975  1.00  0.00     0.030 A 
BRANCH  18  21
HETATM   21  C   UNL     1      45.048 -21.617   3.725  1.00  0.00     0.147 C 
HETATM   22  C   UNL     1      45.090 -22.197   5.136  1.00  0.00     0.044 C 
BRANCH  21  23
HETATM   23  O   UNL     1      44.653 -22.644   2.816  1.00  0.00    -0.391 OA
HETATM   24  H   UNL     1      45.431 -22.873   2.282  1.00  0.00     0.210 HD
ENDBRANCH  21  23
ENDBRANCH  18  21
ENDBRANCH  12  15
ENDBRANCH   1  11
BRANCH   4  25
HETATM   25  C   UNL     1      38.589 -11.222   0.846  1.00  0.00     0.409 C 
HETATM   26  F   UNL     1      38.496 -10.137   0.044  1.00  0.00    -0.169 F 
HETATM   27  F   UNL     1      37.330 -11.470   1.303  1.00  0.00    -0.169 F 
HETATM   28  F   UNL     1      39.321 -10.888   1.928  1.00  0.00    -0.169 F 
ENDBRANCH   4  25
BRANCH   6  29
HETATM   29  C   UNL     1      40.138 -14.081  -2.358  1.00  0.00     0.005 A 
HETATM   30  S   UNL     1      40.750 -15.610  -2.856  1.00  0.00    -0.104 SA
HETATM   31  C   UNL     1      39.365 -15.939  -3.798  1.00  0.00     0.050 A 
HETATM   32  C   UNL     1      38.438 -14.925  -3.724  1.00  0.00     0.008 A 
HETATM   33  C   UNL     1      38.881 -13.856  -2.892  1.00  0.00     0.017 A 
ENDBRANCH   6  29
TORSDOF 6
ENDMDL
MODEL 6
REMARK VINA RESULT:      -7.9      3.905      4.611
REMARK  6 active torsions:
REMARK  status: ('A' for Active; 'I' for Inactive)
REMARK    1  A    between atoms: C_2  and  O_3 
REMARK    2  A    between atoms: C_2  and  C_4 
REMARK    3  A    between atoms: C_7  and  N_8 
REMARK       I    between atoms: N_8  and  C_9 
REMARK    4  A    between atoms: C_9  and  C_10 
REMARK    5  A    between atoms: C_13  and  C_14 
REMARK    6  A    between atoms: C_19  and  C_20 
ROOT
HETATM    1  C   UNL     1      41.987 -14.316   4.072  1.00  0.00     0.096 C 
HETATM    2  C   UNL     1      41.505 -13.224   3.375  1.00  0.00     0.138 C 
HETATM    3  N   UNL     1      40.824 -12.462   4.299  1.00  0.00    -0.240 N 
HETATM    4  C   UNL     1      40.132 -11.221   3.996  1.00  0.00     0.221 C 
HETATM    5  C   UNL     1      40.556 -10.696   2.611  1.00  0.00     0.067 C 
HETATM    6  C   UNL     1      40.621 -11.828   1.574  1.00  0.00     0.125 C 
HETATM    7  N   UNL     1      41.563 -12.854   2.064  1.00  0.00    -0.365 N 
HETATM    8  N   UNL     1      40.677 -13.070   5.485  1.00  0.00    -0.181 NA
HETATM    9  C   UNL     1      41.410 -14.179   5.357  1.00  0.00     0.160 C 
HETATM   10  H   UNL     1      41.695 -13.593   1.369  1.00  0.00     0.162 HD
ENDROOT
BRANCH   1  11
HETATM   11  C   UNL     1      42.847 -15.401   3.628  1.00  0.00     0.261 C 
HETATM   12  N   UNL     1      42.404 -16.649   4.026  1.00  0.00    -0.323 N 
HETATM   13  H   UNL     1      41.508 -16.661   4.504  1.00  0.00     0.169 HD
HETATM   14  O   UNL     1      43.822 -15.169   2.925  1.00  0.00    -0.267 OA
BRANCH  12  15
HETATM   15  C   UNL     1      42.970 -17.901   3.715  1.00  0.00     0.035 A 
HETATM   16  C   UNL     1      43.856 -18.584   4.548  1.00  0.00     0.030 A 
HETATM   17  C   UNL     1      44.407 -19.811   4.155  1.00  0.00     0.012 A 
HETATM   18  C   UNL     1      44.090 -20.383   2.917  1.00  0.00    -0.030 A 
HETATM   19  C   UNL     1      43.174 -19.703   2.099  1.00  0.00     0.012 A 
HETATM   20  C   UNL     1      42.619 -18.481   2.494  1.00  0.00     0.030 A 
BRANCH  18  21
HETATM   21  C   UNL     1      44.685 -21.685   2.422  1.00  0.00     0.147 C 
HETATM   22  C   UNL     1      44.768 -22.823   3.437  1.00  0.00     0.044 C 
BRANCH  21  23
HETATM   23  O   UNL     1      43.914 -22.120   1.304  1.00  0.00    -0.391 OA
HETATM   24  H   UNL     1      43.723 -23.063   1.433  1.00  0.00     0.210 HD
ENDBRANCH  21  23
ENDBRANCH  18  21
ENDBRANCH  12  15
ENDBRANCH   1  11
BRANCH   4  25
HETATM   25  C   UNL     1      40.406 -10.162   5.041  1.00  0.00     0.409 C 
HETATM   26  F   UNL     1      41.698 -10.159   5.442  1.00  0.00    -0.169 F 
HETATM   27  F   UNL     1      40.165  -8.929   4.515  1.00  0.00    -0.169 F 
HETATM   28  F   UNL     1      39.624 -10.261   6.135  1.00  0.00    -0.169 F 
ENDBRANCH   4  25
BRANCH   6  29
HETATM   29  C   UNL     1      39.245 -12.343   1.203  1.00  0.00     0.005 A 
HETATM   30  S   UNL     1      38.988 -14.035   1.025  1.00  0.00    -0.104 SA
HETATM   31  C   UNL     1      37.346 -13.815   0.610  1.00  0.00     0.050 A 
HETATM   32  C   UNL     1      36.983 -12.488   0.627  1.00  0.00     0.008 A 
HETATM   33  C   UNL     1      38.074 -11.640   0.973  1.00  0.00     0.017 A 
ENDBRANCH   6  29
TORSDOF 6
ENDMDL
MODEL 7
REMARK VINA RESULT:      -7.6      6.633      9.126
REMARK  6 active torsions:
REMARK  status: ('A' for Active; 'I' for Inactive)
REMARK    1  A    between atoms: C_2  and  O_3 
REMARK    2  A    between atoms: C_2  and  C_4 
REMARK    3  A    between atoms: C_7  and  N_8 
REMARK       I    between atoms: N_8  and  C_9 
REMARK    4  A    between atoms: C_9  and  C_10 
REMARK    5  A    between atoms: C_13  and  C_14 
REMARK    6  A    between atoms: C_19  and  C_20 
ROOT
HETATM    1  C   UNL     1      41.007 -13.967   5.354  1.00  0.00     0.096 C 
HETATM    2  C   UNL     1      40.770 -14.782   4.263  1.00  0.00     0.138 C 
HETATM    3  N   UNL     1      41.891 -15.571   4.135  1.00  0.00    -0.240 N 
HETATM    4  C   UNL     1      42.083 -16.569   3.095  1.00  0.00     0.221 C 
HETATM    5  C   UNL     1      40.748 -16.872   2.391  1.00  0.00     0.067 C 
HETATM    6  C   UNL     1      39.957 -15.586   2.103  1.00  0.00     0.125 C 
HETATM    7  N   UNL     1      39.734 -14.880   3.381  1.00  0.00    -0.365 N 
HETATM    8  N   UNL     1      42.897 -15.200   4.939  1.00  0.00    -0.181 NA
HETATM    9  C   UNL     1      42.350 -14.249   5.702  1.00  0.00     0.160 C 
HETATM   10  H   UNL     1      39.146 -14.055   3.247  1.00  0.00     0.162 HD
ENDROOT
BRANCH   1  11
HETATM   11  C   UNL     1      40.139 -12.998   6.004  1.00  0.00     0.261 C 
HETATM   12  N   UNL     1      40.801 -12.189   6.908  1.00  0.00    -0.323 N 
HETATM   13  H   UNL     1      41.807 -12.314   6.951  1.00  0.00     0.169 HD
HETATM   14  O   UNL     1      38.957 -12.922   5.693  1.00  0.00    -0.267 OA
BRANCH  12  15
HETATM   15  C   UNL     1      40.266 -11.121   7.655  1.00  0.00     0.035 A 
HETATM   16  C   UNL     1      40.546  -9.778   7.405  1.00  0.00     0.030 A 
HETATM   17  C   UNL     1      40.005  -8.770   8.214  1.00  0.00     0.012 A 
HETATM   18  C   UNL     1      39.174  -9.080   9.298  1.00  0.00    -0.030 A 
HETATM   19  C   UNL     1      38.873 -10.433   9.523  1.00  0.00     0.012 A 
HETATM   20  C   UNL     1      39.410 -11.439   8.712  1.00  0.00     0.030 A 
BRANCH  18  21
HETATM   21  C   UNL     1      38.593  -8.038  10.230  1.00  0.00     0.147 C 
HETATM   22  C   UNL     1      37.742  -8.559  11.385  1.00  0.00     0.044 C 
BRANCH  21  23
HETATM   23  O   UNL     1      39.675  -7.276  10.762  1.00  0.00    -0.391 OA
HETATM   24  H   UNL     1      40.336  -7.181  10.057  1.00  0.00     0.210 HD
ENDBRANCH  21  23
ENDBRANCH  18  21
ENDBRANCH  12  15
ENDBRANCH   1  11
BRANCH   4  25
HETATM   25  C   UNL     1      42.659 -17.851   3.656  1.00  0.00     0.409 C 
HETATM   26  F   UNL     1      42.007 -18.263   4.767  1.00  0.00    -0.169 F 
HETATM   27  F   UNL     1      42.524 -18.849   2.740  1.00  0.00    -0.169 F 
HETATM   28  F   UNL     1      43.976 -17.778   3.939  1.00  0.00    -0.169 F 
ENDBRANCH   4  25
BRANCH   6  29
HETATM   29  C   UNL     1      40.598 -14.753   1.011  1.00  0.00     0.005 A 
HETATM   30  S   UNL     1      41.206 -15.523  -0.402  1.00  0.00    -0.104 SA
HETATM   31  C   UNL     1      41.744 -14.045  -1.064  1.00  0.00     0.050 A 
HETATM   32  C   UNL     1      41.452 -12.977  -0.248  1.00  0.00     0.008 A 
HETATM   33  C   UNL     1      40.788 -13.383   0.945  1.00  0.00     0.017 A 
ENDBRANCH   6  29
TORSDOF 6
ENDMDL
MODEL 8
REMARK VINA RESULT:      -7.6      8.109     10.503
REMARK  6 active torsions:
REMARK  status: ('A' for Active; 'I' for Inactive)
REMARK    1  A    between atoms: C_2  and  O_3 
REMARK    2  A    between atoms: C_2  and  C_4 
REMARK    3  A    between atoms: C_7  and  N_8 
REMARK       I    between atoms: N_8  and  C_9 
REMARK    4  A    between atoms: C_9  and  C_10 
REMARK    5  A    between atoms: C_13  and  C_14 
REMARK    6  A    between atoms: C_19  and  C_20 
ROOT
HETATM    1  C   UNL     1      41.125 -11.942   6.493  1.00  0.00     0.096 C 
HETATM    2  C   UNL     1      41.849 -12.860   5.756  1.00  0.00     0.138 C 
HETATM    3  N   UNL     1      40.927 -13.530   4.983  1.00  0.00    -0.240 N 
HETATM    4  C   UNL     1      41.248 -14.607   4.062  1.00  0.00     0.221 C 
HETATM    5  C   UNL     1      42.765 -14.654   3.802  1.00  0.00     0.067 C 
HETATM    6  C   UNL     1      43.567 -14.471   5.101  1.00  0.00     0.125 C 
HETATM    7  N   UNL     1      43.173 -13.187   5.714  1.00  0.00    -0.365 N 
HETATM    8  N   UNL     1      39.657 -13.242   5.302  1.00  0.00    -0.181 NA
HETATM    9  C   UNL     1      39.778 -12.255   6.195  1.00  0.00     0.160 C 
HETATM   10  H   UNL     1      43.737 -12.988   6.544  1.00  0.00     0.162 HD
ENDROOT
BRANCH   1  11
HETATM   11  C   UNL     1      41.584 -10.910   7.410  1.00  0.00     0.261 C 
HETATM   12  N   UNL     1      41.481 -11.274   8.740  1.00  0.00    -0.323 N 
HETATM   13  H   UNL     1      41.177 -12.227   8.909  1.00  0.00     0.169 HD
HETATM   14  O   UNL     1      42.056  -9.866   6.978  1.00  0.00    -0.267 OA
BRANCH  12  15
HETATM   15  C   UNL     1      41.889 -10.533   9.866  1.00  0.00     0.035 A 
HETATM   16  C   UNL     1      43.051 -10.794  10.592  1.00  0.00     0.030 A 
HETATM   17  C   UNL     1      43.375 -10.035  11.724  1.00  0.00     0.012 A 
HETATM   18  C   UNL     1      42.541  -8.998  12.163  1.00  0.00    -0.030 A 
HETATM   19  C   UNL     1      41.390  -8.723  11.409  1.00  0.00     0.012 A 
HETATM   20  C   UNL     1      41.069  -9.478  10.275  1.00  0.00     0.030 A 
BRANCH  18  21
HETATM   21  C   UNL     1      42.818  -8.172  13.401  1.00  0.00     0.147 C 
HETATM   22  C   UNL     1      41.598  -7.632  14.144  1.00  0.00     0.044 C 
BRANCH  21  23
HETATM   23  O   UNL     1      43.586  -8.972  14.298  1.00  0.00    -0.391 OA
HETATM   24  H   UNL     1      44.198  -9.501  13.761  1.00  0.00     0.210 HD
ENDBRANCH  21  23
ENDBRANCH  18  21
ENDBRANCH  12  15
ENDBRANCH   1  11
BRANCH   4  25
HETATM   25  C   UNL     1      40.517 -14.450   2.747  1.00  0.00     0.409 C 
HETATM   26  F   UNL     1      41.166 -15.053   1.725  1.00  0.00    -0.169 F 
HETATM   27  F   UNL     1      39.296 -15.047   2.831  1.00  0.00    -0.169 F 
HETATM   28  F   UNL     1      40.283 -13.167   2.403  1.00  0.00    -0.169 F 
ENDBRANCH   4  25
BRANCH   6  29
HETATM   29  C   UNL     1      43.462 -15.678   6.012  1.00  0.00     0.005 A 
HETATM   30  S   UNL     1      43.211 -17.239   5.332  1.00  0.00    -0.104 SA
HETATM   31  C   UNL     1      43.178 -17.982   6.869  1.00  0.00     0.050 A 
HETATM   32  C   UNL     1      43.377 -17.076   7.884  1.00  0.00     0.008 A 
HETATM   33  C   UNL     1      43.545 -15.750   7.392  1.00  0.00     0.017 A 
ENDBRANCH   6  29
TORSDOF 6
ENDMDL
MODEL 9
REMARK VINA RESULT:      -7.6      4.381      9.240
REMARK  6 active torsions:
REMARK  status: ('A' for Active; 'I' for Inactive)
REMARK    1  A    between atoms: C_2  and  O_3 
REMARK    2  A    between atoms: C_2  and  C_4 
REMARK    3  A    between atoms: C_7  and  N_8 
REMARK       I    between atoms: N_8  and  C_9 
REMARK    4  A    between atoms: C_9  and  C_10 
REMARK    5  A    between atoms: C_13  and  C_14 
REMARK    6  A    between atoms: C_19  and  C_20 
ROOT
HETATM    1  C   UNL     1      41.835 -15.908   0.544  1.00  0.00     0.096 C 
HETATM    2  C   UNL     1      42.547 -16.345   1.645  1.00  0.00     0.138 C 
HETATM    3  N   UNL     1      42.305 -17.697   1.734  1.00  0.00    -0.240 N 
HETATM    4  C   UNL     1      42.843 -18.565   2.768  1.00  0.00     0.221 C 
HETATM    5  C   UNL     1      43.984 -17.857   3.521  1.00  0.00     0.067 C 
HETATM    6  C   UNL     1      43.632 -16.394   3.835  1.00  0.00     0.125 C 
HETATM    7  N   UNL     1      43.327 -15.707   2.564  1.00  0.00    -0.365 N 
HETATM    8  N   UNL     1      41.351 -18.123   0.893  1.00  0.00    -0.181 NA
HETATM    9  C   UNL     1      41.090 -17.045   0.149  1.00  0.00     0.160 C 
HETATM   10  H   UNL     1      43.160 -14.709   2.717  1.00  0.00     0.162 HD
ENDROOT
BRANCH   1  11
HETATM   11  C   UNL     1      41.786 -14.593  -0.076  1.00  0.00     0.261 C 
HETATM   12  N   UNL     1      41.745 -14.640  -1.457  1.00  0.00    -0.323 N 
HETATM   13  H   UNL     1      41.676 -15.569  -1.860  1.00  0.00     0.169 HD
HETATM   14  O   UNL     1      41.733 -13.585   0.617  1.00  0.00    -0.267 OA
BRANCH  12  15
HETATM   15  C   UNL     1      41.635 -13.555  -2.350  1.00  0.00     0.035 A 
HETATM   16  C   UNL     1      42.695 -12.715  -2.689  1.00  0.00     0.030 A 
HETATM   17  C   UNL     1      42.501 -11.633  -3.558  1.00  0.00     0.012 A 
HETATM   18  C   UNL     1      41.242 -11.361  -4.106  1.00  0.00    -0.030 A 
HETATM   19  C   UNL     1      40.188 -12.231  -3.783  1.00  0.00     0.012 A 
HETATM   20  C   UNL     1      40.382 -13.314  -2.919  1.00  0.00     0.030 A 
BRANCH  18  21
HETATM   21  C   UNL     1      40.964 -10.185  -5.018  1.00  0.00     0.147 C 
HETATM   22  C   UNL     1      42.133  -9.696  -5.870  1.00  0.00     0.044 C 
BRANCH  21  23
HETATM   23  O   UNL     1      39.885 -10.544  -5.878  1.00  0.00    -0.391 OA
HETATM   24  H   UNL     1      40.268 -10.796  -6.734  1.00  0.00     0.210 HD
ENDBRANCH  21  23
ENDBRANCH  18  21
ENDBRANCH  12  15
ENDBRANCH   1  11
BRANCH   4  25
HETATM   25  C   UNL     1      43.353 -19.868   2.190  1.00  0.00     0.409 C 
HETATM   26  F   UNL     1      44.178 -19.672   1.137  1.00  0.00    -0.169 F 
HETATM   27  F   UNL     1      44.081 -20.529   3.131  1.00  0.00    -0.169 F 
HETATM   28  F   UNL     1      42.375 -20.715   1.810  1.00  0.00    -0.169 F 
ENDBRANCH   4  25
BRANCH   6  29
HETATM   29  C   UNL     1      42.561 -16.281   4.901  1.00  0.00     0.005 A 
HETATM   30  S   UNL     1      41.359 -15.056   4.773  1.00  0.00    -0.104 SA
HETATM   31  C   UNL     1      40.616 -15.531   6.235  1.00  0.00     0.050 A 
HETATM   32  C   UNL     1      41.245 -16.613   6.805  1.00  0.00     0.008 A 
HETATM   33  C   UNL     1      42.362 -17.049   6.036  1.00  0.00     0.017 A 
ENDBRANCH   6  29
TORSDOF 6
ENDMDL
MODEL 10
REMARK VINA RESULT:      -7.5      2.176      2.774
REMARK  6 active torsions:
REMARK  status: ('A' for Active; 'I' for Inactive)
REMARK    1  A    between atoms: C_2  and  O_3 
REMARK    2  A    between atoms: C_2  and  C_4 
REMARK    3  A    between atoms: C_7  and  N_8 
REMARK       I    between atoms: N_8  and  C_9 
REMARK    4  A    between atoms: C_9  and  C_10 
REMARK    5  A    between atoms: C_13  and  C_14 
REMARK    6  A    between atoms: C_19  and  C_20 
ROOT
HETATM    1  C   UNL     1      42.043 -12.861   1.979  1.00  0.00     0.096 C 
HETATM    2  C   UNL     1      41.890 -12.396   0.687  1.00  0.00     0.138 C 
HETATM    3  N   UNL     1      41.269 -11.172   0.800  1.00  0.00    -0.240 N 
HETATM    4  C   UNL     1      40.893 -10.331  -0.323  1.00  0.00     0.221 C 
HETATM    5  C   UNL     1      41.590 -10.811  -1.609  1.00  0.00     0.067 C 
HETATM    6  C   UNL     1      41.553 -12.342  -1.734  1.00  0.00     0.125 C 
HETATM    7  N   UNL     1      42.192 -12.922  -0.536  1.00  0.00    -0.365 N 
HETATM    8  N   UNL     1      40.848 -10.904   2.045  1.00  0.00    -0.181 NA
HETATM    9  C   UNL     1      41.347 -11.912   2.765  1.00  0.00     0.160 C 
HETATM   10  H   UNL     1      42.257 -13.940  -0.610  1.00  0.00     0.162 HD
ENDROOT
BRANCH   1  11
HETATM   11  C   UNL     1      42.709 -14.057   2.469  1.00  0.00     0.261 C 
HETATM   12  N   UNL     1      42.071 -15.229   2.104  1.00  0.00    -0.323 N 
HETATM   13  H   UNL     1      41.275 -15.116   1.485  1.00  0.00     0.169 HD
HETATM   14  O   UNL     1      43.760 -13.969   3.090  1.00  0.00    -0.267 OA
BRANCH  12  15
HETATM   15  C   UNL     1      42.485 -16.549   2.365  1.00  0.00     0.035 A 
HETATM   16  C   UNL     1      42.294 -17.199   3.584  1.00  0.00     0.030 A 
HETATM   17  C   UNL     1      42.766 -18.504   3.782  1.00  0.00     0.012 A 
HETATM   18  C   UNL     1      43.445 -19.190   2.768  1.00  0.00    -0.030 A 
HETATM   19  C   UNL     1      43.605 -18.539   1.534  1.00  0.00     0.012 A 
HETATM   20  C   UNL     1      43.130 -17.238   1.334  1.00  0.00     0.030 A 
BRANCH  18  21
HETATM   21  C   UNL     1      44.012 -20.583   2.937  1.00  0.00     0.147 C 
HETATM   22  C   UNL     1      43.964 -21.489   1.709  1.00  0.00     0.044 C 
BRANCH  21  23
HETATM   23  O   UNL     1      45.368 -20.455   3.362  1.00  0.00    -0.391 OA
HETATM   24  H   UNL     1      45.582 -21.243   3.886  1.00  0.00     0.210 HD
ENDBRANCH  21  23
ENDBRANCH  18  21
ENDBRANCH  12  15
ENDBRANCH   1  11
BRANCH   4  25
HETATM   25  C   UNL     1      41.243  -8.880  -0.071  1.00  0.00     0.409 C 
HETATM   26  F   UNL     1      40.344  -8.268   0.733  1.00  0.00    -0.169 F 
HETATM   27  F   UNL     1      42.443  -8.806   0.568  1.00  0.00    -0.169 F 
HETATM   28  F   UNL     1      41.373  -8.148  -1.197  1.00  0.00    -0.169 F 
ENDBRANCH   4  25
BRANCH   6  29
HETATM   29  C   UNL     1      40.159 -12.857  -2.033  1.00  0.00     0.005 A 
HETATM   30  S   UNL     1      39.267 -12.188  -3.344  1.00  0.00    -0.104 SA
HETATM   31  C   UNL     1      37.917 -13.185  -3.028  1.00  0.00     0.050 A 
HETATM   32  C   UNL     1      38.138 -14.031  -1.966  1.00  0.00     0.008 A 
HETATM   33  C   UNL     1      39.430 -13.846  -1.395  1.00  0.00     0.017 A 
ENDBRANCH   6  29
TORSDOF 6
ENDMDL
