MODEL 1
REMARK VINA RESULT:      -9.7      0.000      0.000
REMARK  6 active torsions:
REMARK  status: ('A' for Active; 'I' for Inactive)
REMARK    1  A    between atoms: C_5  and  C_6 
REMARK    2  A    between atoms: C_6  and  N_7 
REMARK    3  A    between atoms: C_9  and  C_10 
REMARK    4  A    between atoms: C_17  and  C_18 
REMARK       I    between atoms: C_18  and  N_19 
REMARK    5  A    between atoms: N_19  and  C_20 
REMARK    6  A    between atoms: C_23  and  O_24 
ROOT
HETATM    1  N   UNL     1      43.740 -17.137   6.438  1.00  0.00    -0.275 N 
HETATM    2  N   UNL     1      42.650 -16.559   5.908  1.00  0.00    -0.171 NA
HETATM    3  C   UNL     1      42.868 -15.233   6.009  1.00  0.00     0.104 A 
HETATM    4  C   UNL     1      44.092 -14.982   6.713  1.00  0.00     0.080 A 
HETATM    5  C   UNL     1      44.644 -16.236   6.906  1.00  0.00     0.132 A 
ENDROOT
BRANCH   4   6
HETATM    6  C   UNL     1      44.723 -13.766   7.207  1.00  0.00     0.255 C 
HETATM    7  N   UNL     1      43.962 -13.048   8.098  1.00  0.00    -0.352 N 
HETATM    8  H   UNL     1      43.071 -13.455   8.357  1.00  0.00     0.163 HD
HETATM    9  O   UNL     1      45.876 -13.488   6.911  1.00  0.00    -0.268 OA
BRANCH   7  10
HETATM   10  C   UNL     1      44.409 -11.932   8.931  1.00  0.00     0.084 C 
HETATM   11  C   UNL     1      43.303 -10.896   9.180  1.00  0.00     0.028 C 
HETATM   12  C   UNL     1      42.478 -11.140  10.443  1.00  0.00     0.034 C 
HETATM   13  C   UNL     1      43.360 -11.352  11.668  1.00  0.00     0.118 C 
HETATM   14  C   UNL     1      44.360 -12.485  11.467  1.00  0.00     0.034 C 
HETATM   15  C   UNL     1      45.189 -12.335  10.190  1.00  0.00     0.028 C 
BRANCH  13  16
HETATM   16  O   UNL     1      44.083 -10.150  11.939  1.00  0.00    -0.396 OA
HETATM   17  H   UNL     1      44.254 -10.129  12.896  1.00  0.00     0.210 HD
ENDBRANCH  13  16
ENDBRANCH   7  10
ENDBRANCH   4   6
BRANCH   3  18
HETATM   18  C   UNL     1      41.880 -14.303   5.441  1.00  0.00    -0.005 A 
HETATM   19  C   UNL     1      40.528 -14.422   5.802  1.00  0.00     0.014 A 
HETATM   20  C   UNL     1      39.558 -13.571   5.265  1.00  0.00     0.007 A 
HETATM   21  C   UNL     1      39.919 -12.578   4.349  1.00  0.00    -0.062 A 
HETATM   22  C   UNL     1      38.872 -11.661   3.792  1.00  0.00     0.048 C 
HETATM   23  C   UNL     1      41.263 -12.454   3.981  1.00  0.00     0.007 A 
HETATM   24  C   UNL     1      42.232 -13.318   4.510  1.00  0.00     0.014 A 
ENDBRANCH   3  18
BRANCH   1  25
HETATM   25  C   UNL     1      43.773 -18.580   6.641  1.00  0.00     0.189 C 
BRANCH  25  26
HETATM   26  C   UNL     1      44.036 -19.353   5.374  1.00  0.00    -0.038 A 
HETATM   27  C   UNL     1      44.570 -20.647   5.427  1.00  0.00     0.009 A 
HETATM   28  C   UNL     1      44.740 -21.396   4.259  1.00  0.00     0.007 A 
HETATM   29  C   UNL     1      44.390 -20.861   3.015  1.00  0.00    -0.062 A 
HETATM   30  C   UNL     1      44.517 -21.682   1.767  1.00  0.00     0.048 C 
HETATM   31  C   UNL     1      43.856 -19.569   2.959  1.00  0.00     0.007 A 
HETATM   32  C   UNL     1      43.684 -18.821   4.125  1.00  0.00     0.009 A 
ENDBRANCH  25  26
ENDBRANCH   1  25
TORSDOF 6
ENDMDL
MODEL 2
REMARK VINA RESULT:      -9.1      2.728      8.775
REMARK  6 active torsions:
REMARK  status: ('A' for Active; 'I' for Inactive)
REMARK    1  A    between atoms: C_5  and  C_6 
REMARK    2  A    between atoms: C_6  and  N_7 
REMARK    3  A    between atoms: C_9  and  C_10 
REMARK    4  A    between atoms: C_17  and  C_18 
REMARK       I    between atoms: C_18  and  N_19 
REMARK    5  A    between atoms: N_19  and  C_20 
REMARK    6  A    between atoms: C_23  and  O_24 
ROOT
HETATM    1  N   UNL     1      44.504 -13.486   7.480  1.00  0.00    -0.275 N 
HETATM    2  N   UNL     1      44.727 -14.790   7.710  1.00  0.00    -0.171 NA
HETATM    3  C   UNL     1      43.858 -15.443   6.914  1.00  0.00     0.104 A 
HETATM    4  C   UNL     1      43.003 -14.511   6.239  1.00  0.00     0.080 A 
HETATM    5  C   UNL     1      43.504 -13.268   6.585  1.00  0.00     0.132 A 
ENDROOT
BRANCH   4   6
HETATM    6  C   UNL     1      41.832 -14.672   5.389  1.00  0.00     0.255 C 
HETATM    7  N   UNL     1      42.108 -15.066   4.102  1.00  0.00    -0.352 N 
HETATM    8  H   UNL     1      43.081 -15.250   3.889  1.00  0.00     0.163 HD
HETATM    9  O   UNL     1      40.701 -14.556   5.842  1.00  0.00    -0.268 OA
BRANCH   7  10
HETATM   10  C   UNL     1      41.147 -15.530   3.102  1.00  0.00     0.084 C 
HETATM   11  C   UNL     1      41.155 -14.673   1.828  1.00  0.00     0.028 C 
HETATM   12  C   UNL     1      42.102 -15.169   0.736  1.00  0.00     0.034 C 
HETATM   13  C   UNL     1      41.903 -16.651   0.438  1.00  0.00     0.118 C 
HETATM   14  C   UNL     1      42.045 -17.513   1.687  1.00  0.00     0.034 C 
HETATM   15  C   UNL     1      41.161 -17.043   2.844  1.00  0.00     0.028 C 
BRANCH  13  16
HETATM   16  O   UNL     1      40.596 -16.848  -0.105  1.00  0.00    -0.396 OA
HETATM   17  H   UNL     1      40.708 -17.081  -1.043  1.00  0.00     0.210 HD
ENDBRANCH  13  16
ENDBRANCH   7  10
ENDBRANCH   4   6
BRANCH   3  18
HETATM   18  C   UNL     1      43.897 -16.913   6.872  1.00  0.00    -0.005 A 
HETATM   19  C   UNL     1      44.079 -17.568   5.643  1.00  0.00     0.014 A 
HETATM   20  C   UNL     1      44.098 -18.963   5.562  1.00  0.00     0.007 A 
HETATM   21  C   UNL     1      43.933 -19.739   6.713  1.00  0.00    -0.062 A 
HETATM   22  C   UNL     1      43.971 -21.235   6.616  1.00  0.00     0.048 C 
HETATM   23  C   UNL     1      43.748 -19.096   7.941  1.00  0.00     0.007 A 
HETATM   24  C   UNL     1      43.715 -17.697   8.018  1.00  0.00     0.014 A 
ENDBRANCH   3  18
BRANCH   1  25
HETATM   25  C   UNL     1      45.165 -12.478   8.300  1.00  0.00     0.189 C 
BRANCH  25  26
HETATM   26  C   UNL     1      44.337 -12.035   9.479  1.00  0.00    -0.038 A 
HETATM   27  C   UNL     1      44.570 -12.570  10.753  1.00  0.00     0.009 A 
HETATM   28  C   UNL     1      43.858 -12.103  11.862  1.00  0.00     0.007 A 
HETATM   29  C   UNL     1      42.893 -11.100  11.716  1.00  0.00    -0.062 A 
HETATM   30  C   UNL     1      42.169 -10.557  12.912  1.00  0.00     0.048 C 
HETATM   31  C   UNL     1      42.659 -10.564  10.446  1.00  0.00     0.007 A 
HETATM   32  C   UNL     1      43.371 -11.028   9.338  1.00  0.00     0.009 A 
ENDBRANCH  25  26
ENDBRANCH   1  25
TORSDOF 6
ENDMDL
MODEL 3
REMARK VINA RESULT:      -9.1      2.802      8.675
REMARK  6 active torsions:
REMARK  status: ('A' for Active; 'I' for Inactive)
REMARK    1  A    between atoms: C_5  and  C_6 
REMARK    2  A    between atoms: C_6  and  N_7 
REMARK    3  A    between atoms: C_9  and  C_10 
REMARK    4  A    between atoms: C_17  and  C_18 
REMARK       I    between atoms: C_18  and  N_19 
REMARK    5  A    between atoms: N_19  and  C_20 
REMARK    6  A    between atoms: C_23  and  O_24 
ROOT
HETATM    1  N   UNL     1      44.506 -13.555   7.362  1.00  0.00    -0.275 N 
HETATM    2  N   UNL     1      44.698 -14.870   7.556  1.00  0.00    -0.171 NA
HETATM    3  C   UNL     1      43.799 -15.480   6.759  1.00  0.00     0.104 A 
HETATM    4  C   UNL     1      42.958 -14.509   6.123  1.00  0.00     0.080 A 
HETATM    5  C   UNL     1      43.497 -13.288   6.491  1.00  0.00     0.132 A 
ENDROOT
BRANCH   4   6
HETATM    6  C   UNL     1      41.768 -14.617   5.290  1.00  0.00     0.255 C 
HETATM    7  N   UNL     1      42.020 -14.879   3.964  1.00  0.00    -0.352 N 
HETATM    8  H   UNL     1      42.991 -15.017   3.711  1.00  0.00     0.163 HD
HETATM    9  O   UNL     1      40.648 -14.573   5.779  1.00  0.00    -0.268 OA
BRANCH   7  10
HETATM   10  C   UNL     1      41.043 -15.269   2.948  1.00  0.00     0.084 C 
HETATM   11  C   UNL     1      40.599 -14.092   2.069  1.00  0.00     0.028 C 
HETATM   12  C   UNL     1      41.425 -13.902   0.798  1.00  0.00     0.034 C 
HETATM   13  C   UNL     1      41.560 -15.198   0.007  1.00  0.00     0.118 C 
HETATM   14  C   UNL     1      42.144 -16.328   0.848  1.00  0.00     0.034 C 
HETATM   15  C   UNL     1      41.397 -16.542   2.166  1.00  0.00     0.028 C 
BRANCH  13  16
HETATM   16  O   UNL     1      40.271 -15.600  -0.461  1.00  0.00    -0.396 OA
HETATM   17  H   UNL     1      40.118 -16.504  -0.135  1.00  0.00     0.210 HD
ENDBRANCH  13  16
ENDBRANCH   7  10
ENDBRANCH   4   6
BRANCH   3  18
HETATM   18  C   UNL     1      43.798 -16.948   6.679  1.00  0.00    -0.005 A 
HETATM   19  C   UNL     1      43.754 -17.708   7.860  1.00  0.00     0.014 A 
HETATM   20  C   UNL     1      43.775 -19.105   7.824  1.00  0.00     0.007 A 
HETATM   21  C   UNL     1      43.842 -19.778   6.601  1.00  0.00    -0.062 A 
HETATM   22  C   UNL     1      43.848 -21.277   6.573  1.00  0.00     0.048 C 
HETATM   23  C   UNL     1      43.890 -19.030   5.419  1.00  0.00     0.007 A 
HETATM   24  C   UNL     1      43.883 -17.629   5.459  1.00  0.00     0.014 A 
ENDBRANCH   3  18
BRANCH   1  25
HETATM   25  C   UNL     1      45.208 -12.586   8.196  1.00  0.00     0.189 C 
BRANCH  25  26
HETATM   26  C   UNL     1      44.416 -12.160   9.406  1.00  0.00    -0.038 A 
HETATM   27  C   UNL     1      44.637 -12.765  10.650  1.00  0.00     0.009 A 
HETATM   28  C   UNL     1      43.962 -12.317  11.789  1.00  0.00     0.007 A 
HETATM   29  C   UNL     1      43.045 -11.264  11.705  1.00  0.00    -0.062 A 
HETATM   30  C   UNL     1      42.363 -10.743  12.934  1.00  0.00     0.048 C 
HETATM   31  C   UNL     1      42.823 -10.658  10.464  1.00  0.00     0.007 A 
HETATM   32  C   UNL     1      43.498 -11.103   9.325  1.00  0.00     0.009 A 
ENDBRANCH  25  26
ENDBRANCH   1  25
TORSDOF 6
ENDMDL
MODEL 4
REMARK VINA RESULT:      -9.0      4.504      7.857
REMARK  6 active torsions:
REMARK  status: ('A' for Active; 'I' for Inactive)
REMARK    1  A    between atoms: C_5  and  C_6 
REMARK    2  A    between atoms: C_6  and  N_7 
REMARK    3  A    between atoms: C_9  and  C_10 
REMARK    4  A    between atoms: C_17  and  C_18 
REMARK       I    between atoms: C_18  and  N_19 
REMARK    5  A    between atoms: N_19  and  C_20 
REMARK    6  A    between atoms: C_23  and  O_24 
ROOT
HETATM    1  N   UNL     1      41.610 -15.211   0.278  1.00  0.00    -0.275 N 
HETATM    2  N   UNL     1      42.367 -16.316   0.382  1.00  0.00    -0.171 NA
HETATM    3  C   UNL     1      42.265 -16.695   1.671  1.00  0.00     0.104 A 
HETATM    4  C   UNL     1      41.497 -15.737   2.412  1.00  0.00     0.080 A 
HETATM    5  C   UNL     1      41.045 -14.843   1.458  1.00  0.00     0.132 A 
ENDROOT
BRANCH   4   6
HETATM    6  C   UNL     1      41.199 -15.585   3.830  1.00  0.00     0.255 C 
HETATM    7  N   UNL     1      42.125 -16.150   4.673  1.00  0.00    -0.352 N 
HETATM    8  H   UNL     1      42.936 -16.567   4.234  1.00  0.00     0.163 HD
HETATM    9  O   UNL     1      40.246 -14.916   4.206  1.00  0.00    -0.268 OA
BRANCH   7  10
HETATM   10  C   UNL     1      42.221 -15.960   6.120  1.00  0.00     0.084 C 
HETATM   11  C   UNL     1      41.645 -17.142   6.913  1.00  0.00     0.028 C 
HETATM   12  C   UNL     1      42.663 -18.223   7.271  1.00  0.00     0.034 C 
HETATM   13  C   UNL     1      43.910 -17.638   7.925  1.00  0.00     0.118 C 
HETATM   14  C   UNL     1      44.565 -16.567   7.060  1.00  0.00     0.034 C 
HETATM   15  C   UNL     1      43.589 -15.474   6.619  1.00  0.00     0.028 C 
BRANCH  13  16
HETATM   16  O   UNL     1      43.552 -17.055   9.179  1.00  0.00    -0.396 OA
HETATM   17  H   UNL     1      42.640 -16.727   9.092  1.00  0.00     0.210 HD
ENDBRANCH  13  16
ENDBRANCH   7  10
ENDBRANCH   4   6
BRANCH   3  18
HETATM   18  C   UNL     1      42.927 -17.935   2.103  1.00  0.00    -0.005 A 
HETATM   19  C   UNL     1      42.592 -19.152   1.487  1.00  0.00     0.014 A 
HETATM   20  C   UNL     1      43.184 -20.353   1.887  1.00  0.00     0.007 A 
HETATM   21  C   UNL     1      44.126 -20.366   2.919  1.00  0.00    -0.062 A 
HETATM   22  C   UNL     1      44.766 -21.659   3.330  1.00  0.00     0.048 C 
HETATM   23  C   UNL     1      44.463 -19.160   3.542  1.00  0.00     0.007 A 
HETATM   24  C   UNL     1      43.858 -17.958   3.148  1.00  0.00     0.014 A 
ENDBRANCH   3  18
BRANCH   1  25
HETATM   25  C   UNL     1      41.620 -14.435  -0.956  1.00  0.00     0.189 C 
BRANCH  25  26
HETATM   26  C   UNL     1      40.362 -14.597  -1.770  1.00  0.00    -0.038 A 
HETATM   27  C   UNL     1      39.199 -13.892  -1.431  1.00  0.00     0.009 A 
HETATM   28  C   UNL     1      38.055 -13.980  -2.230  1.00  0.00     0.007 A 
HETATM   29  C   UNL     1      38.048 -14.781  -3.376  1.00  0.00    -0.062 A 
HETATM   30  C   UNL     1      36.843 -14.832  -4.266  1.00  0.00     0.048 C 
HETATM   31  C   UNL     1      39.207 -15.486  -3.717  1.00  0.00     0.007 A 
HETATM   32  C   UNL     1      40.351 -15.398  -2.921  1.00  0.00     0.009 A 
ENDBRANCH  25  26
ENDBRANCH   1  25
TORSDOF 6
ENDMDL
MODEL 5
REMARK VINA RESULT:      -8.8      2.405      8.143
REMARK  6 active torsions:
REMARK  status: ('A' for Active; 'I' for Inactive)
REMARK    1  A    between atoms: C_5  and  C_6 
REMARK    2  A    between atoms: C_6  and  N_7 
REMARK    3  A    between atoms: C_9  and  C_10 
REMARK    4  A    between atoms: C_17  and  C_18 
REMARK       I    between atoms: C_18  and  N_19 
REMARK    5  A    between atoms: N_19  and  C_20 
REMARK    6  A    between atoms: C_23  and  O_24 
ROOT
HETATM    1  N   UNL     1      44.553 -13.780   7.053  1.00  0.00    -0.275 N 
HETATM    2  N   UNL     1      44.010 -13.262   5.938  1.00  0.00    -0.171 NA
HETATM    3  C   UNL     1      43.219 -14.234   5.445  1.00  0.00     0.104 A 
HETATM    4  C   UNL     1      43.351 -15.429   6.227  1.00  0.00     0.080 A 
HETATM    5  C   UNL     1      44.165 -15.062   7.284  1.00  0.00     0.132 A 
ENDROOT
BRANCH   4   6
HETATM    6  C   UNL     1      42.843 -16.784   6.066  1.00  0.00     0.255 C 
HETATM    7  N   UNL     1      43.101 -17.350   4.840  1.00  0.00    -0.352 N 
HETATM    8  H   UNL     1      43.653 -16.795   4.198  1.00  0.00     0.163 HD
HETATM    9  O   UNL     1      42.323 -17.379   7.000  1.00  0.00    -0.268 OA
BRANCH   7  10
HETATM   10  C   UNL     1      42.928 -18.754   4.470  1.00  0.00     0.084 C 
HETATM   11  C   UNL     1      42.842 -18.961   2.951  1.00  0.00     0.028 C 
HETATM   12  C   UNL     1      44.182 -19.240   2.272  1.00  0.00     0.034 C 
HETATM   13  C   UNL     1      44.953 -20.356   2.967  1.00  0.00     0.118 C 
HETATM   14  C   UNL     1      45.166 -20.072   4.450  1.00  0.00     0.034 C 
HETATM   15  C   UNL     1      43.869 -19.732   5.187  1.00  0.00     0.028 C 
BRANCH  13  16
HETATM   16  O   UNL     1      44.226 -21.579   2.839  1.00  0.00    -0.396 OA
HETATM   17  H   UNL     1      44.605 -22.059   2.082  1.00  0.00     0.210 HD
ENDBRANCH  13  16
ENDBRANCH   7  10
ENDBRANCH   4   6
BRANCH   3  18
HETATM   18  C   UNL     1      42.410 -13.956   4.249  1.00  0.00    -0.005 A 
HETATM   19  C   UNL     1      41.011 -14.060   4.318  1.00  0.00     0.014 A 
HETATM   20  C   UNL     1      40.211 -13.825   3.196  1.00  0.00     0.007 A 
HETATM   21  C   UNL     1      40.795 -13.481   1.973  1.00  0.00    -0.062 A 
HETATM   22  C   UNL     1      39.925 -13.217   0.779  1.00  0.00     0.048 C 
HETATM   23  C   UNL     1      42.187 -13.378   1.893  1.00  0.00     0.007 A 
HETATM   24  C   UNL     1      42.988 -13.628   3.016  1.00  0.00     0.014 A 
ENDBRANCH   3  18
BRANCH   1  25
HETATM   25  C   UNL     1      45.596 -13.050   7.762  1.00  0.00     0.189 C 
BRANCH  25  26
HETATM   26  C   UNL     1      45.060 -12.147   8.843  1.00  0.00    -0.038 A 
HETATM   27  C   UNL     1      43.751 -11.652   8.773  1.00  0.00     0.009 A 
HETATM   28  C   UNL     1      43.225 -10.880   9.813  1.00  0.00     0.007 A 
HETATM   29  C   UNL     1      44.001 -10.579  10.937  1.00  0.00    -0.062 A 
HETATM   30  C   UNL     1      43.421  -9.800  12.079  1.00  0.00     0.048 C 
HETATM   31  C   UNL     1      45.308 -11.070  11.009  1.00  0.00     0.007 A 
HETATM   32  C   UNL     1      45.834 -11.843   9.972  1.00  0.00     0.009 A 
ENDBRANCH  25  26
ENDBRANCH   1  25
TORSDOF 6
ENDMDL
MODEL 6
REMARK VINA RESULT:      -8.4      4.370      7.943
REMARK  6 active torsions:
REMARK  status: ('A' for Active; 'I' for Inactive)
REMARK    1  A    between atoms: C_5  and  C_6 
REMARK    2  A    between atoms: C_6  and  N_7 
REMARK    3  A    between atoms: C_9  and  C_10 
REMARK    4  A    between atoms: C_17  and  C_18 
REMARK       I    between atoms: C_18  and  N_19 
REMARK    5  A    between atoms: N_19  and  C_20 
REMARK    6  A    between atoms: C_23  and  O_24 
ROOT
HETATM    1  N   UNL     1      40.974 -15.171  -0.365  1.00  0.00    -0.275 N 
HETATM    2  N   UNL     1      41.597 -16.321  -0.055  1.00  0.00    -0.171 NA
HETATM    3  C   UNL     1      42.013 -16.166   1.217  1.00  0.00     0.104 A 
HETATM    4  C   UNL     1      41.723 -14.840   1.678  1.00  0.00     0.080 A 
HETATM    5  C   UNL     1      40.996 -14.266   0.649  1.00  0.00     0.132 A 
ENDROOT
BRANCH   4   6
HETATM    6  C   UNL     1      42.066 -14.112   2.892  1.00  0.00     0.255 C 
HETATM    7  N   UNL     1      41.511 -14.621   4.041  1.00  0.00    -0.352 N 
HETATM    8  H   UNL     1      40.966 -15.469   3.938  1.00  0.00     0.163 HD
HETATM    9  O   UNL     1      42.866 -13.187   2.869  1.00  0.00    -0.268 OA
BRANCH   7  10
HETATM   10  C   UNL     1      41.854 -14.258   5.416  1.00  0.00     0.084 C 
HETATM   11  C   UNL     1      41.816 -15.456   6.374  1.00  0.00     0.028 C 
HETATM   12  C   UNL     1      43.150 -16.184   6.533  1.00  0.00     0.034 C 
HETATM   13  C   UNL     1      44.290 -15.223   6.851  1.00  0.00     0.118 C 
HETATM   14  C   UNL     1      44.417 -14.117   5.809  1.00  0.00     0.034 C 
HETATM   15  C   UNL     1      43.102 -13.375   5.559  1.00  0.00     0.028 C 
BRANCH  13  16
HETATM   16  O   UNL     1      44.055 -14.623   8.126  1.00  0.00    -0.396 OA
HETATM   17  H   UNL     1      44.834 -14.078   8.333  1.00  0.00     0.210 HD
ENDBRANCH  13  16
ENDBRANCH   7  10
ENDBRANCH   4   6
BRANCH   3  18
HETATM   18  C   UNL     1      42.677 -17.292   1.891  1.00  0.00    -0.005 A 
HETATM   19  C   UNL     1      43.664 -18.024   1.212  1.00  0.00     0.014 A 
HETATM   20  C   UNL     1      44.299 -19.114   1.813  1.00  0.00     0.007 A 
HETATM   21  C   UNL     1      43.959 -19.500   3.112  1.00  0.00    -0.062 A 
HETATM   22  C   UNL     1      44.658 -20.663   3.753  1.00  0.00     0.048 C 
HETATM   23  C   UNL     1      42.975 -18.779   3.796  1.00  0.00     0.007 A 
HETATM   24  C   UNL     1      42.329 -17.695   3.186  1.00  0.00     0.014 A 
ENDBRANCH   3  18
BRANCH   1  25
HETATM   25  C   UNL     1      40.534 -14.927  -1.733  1.00  0.00     0.189 C 
BRANCH  25  26
HETATM   26  C   UNL     1      40.965 -13.584  -2.265  1.00  0.00    -0.038 A 
HETATM   27  C   UNL     1      40.016 -12.588  -2.535  1.00  0.00     0.009 A 
HETATM   28  C   UNL     1      40.419 -11.316  -2.952  1.00  0.00     0.007 A 
HETATM   29  C   UNL     1      41.776 -11.019  -3.117  1.00  0.00    -0.062 A 
HETATM   30  C   UNL     1      42.214  -9.639  -3.508  1.00  0.00     0.048 C 
HETATM   31  C   UNL     1      42.725 -12.010  -2.848  1.00  0.00     0.007 A 
HETATM   32  C   UNL     1      42.324 -13.281  -2.429  1.00  0.00     0.009 A 
ENDBRANCH  25  26
ENDBRANCH   1  25
TORSDOF 6
ENDMDL
MODEL 7
REMARK VINA RESULT:      -8.4      4.761      7.934
REMARK  6 active torsions:
REMARK  status: ('A' for Active; 'I' for Inactive)
REMARK    1  A    between atoms: C_5  and  C_6 
REMARK    2  A    between atoms: C_6  and  N_7 
REMARK    3  A    between atoms: C_9  and  C_10 
REMARK    4  A    between atoms: C_17  and  C_18 
REMARK       I    between atoms: C_18  and  N_19 
REMARK    5  A    between atoms: N_19  and  C_20 
REMARK    6  A    between atoms: C_23  and  O_24 
ROOT
HETATM    1  N   UNL     1      42.911 -16.798   1.953  1.00  0.00    -0.275 N 
HETATM    2  N   UNL     1      42.879 -15.988   3.024  1.00  0.00    -0.171 NA
HETATM    3  C   UNL     1      41.742 -15.278   2.896  1.00  0.00     0.104 A 
HETATM    4  C   UNL     1      41.096 -15.590   1.655  1.00  0.00     0.080 A 
HETATM    5  C   UNL     1      41.851 -16.619   1.121  1.00  0.00     0.132 A 
ENDROOT
BRANCH   4   6
HETATM    6  C   UNL     1      39.940 -15.031   0.967  1.00  0.00     0.255 C 
HETATM    7  N   UNL     1      40.194 -14.582  -0.306  1.00  0.00    -0.352 N 
HETATM    8  H   UNL     1      41.134 -14.727  -0.654  1.00  0.00     0.163 HD
HETATM    9  O   UNL     1      38.827 -15.065   1.474  1.00  0.00    -0.268 OA
BRANCH   7  10
HETATM   10  C   UNL     1      39.204 -14.195  -1.312  1.00  0.00     0.084 C 
HETATM   11  C   UNL     1      38.843 -12.704  -1.246  1.00  0.00     0.028 C 
HETATM   12  C   UNL     1      39.692 -11.806  -2.144  1.00  0.00     0.034 C 
HETATM   13  C   UNL     1      39.754 -12.325  -3.576  1.00  0.00     0.118 C 
HETATM   14  C   UNL     1      40.258 -13.762  -3.645  1.00  0.00     0.034 C 
HETATM   15  C   UNL     1      39.485 -14.713  -2.729  1.00  0.00     0.028 C 
BRANCH  13  16
HETATM   16  O   UNL     1      38.447 -12.273  -4.150  1.00  0.00    -0.396 OA
HETATM   17  H   UNL     1      38.343 -11.390  -4.545  1.00  0.00     0.210 HD
ENDBRANCH  13  16
ENDBRANCH   7  10
ENDBRANCH   4   6
BRANCH   3  18
HETATM   18  C   UNL     1      41.366 -14.337   3.963  1.00  0.00    -0.005 A 
HETATM   19  C   UNL     1      42.134 -13.179   4.169  1.00  0.00     0.014 A 
HETATM   20  C   UNL     1      41.820 -12.275   5.187  1.00  0.00     0.007 A 
HETATM   21  C   UNL     1      40.728 -12.509   6.028  1.00  0.00    -0.062 A 
HETATM   22  C   UNL     1      40.392 -11.524   7.108  1.00  0.00     0.048 C 
HETATM   23  C   UNL     1      39.960 -13.661   5.832  1.00  0.00     0.007 A 
HETATM   24  C   UNL     1      40.284 -14.574   4.819  1.00  0.00     0.014 A 
ENDBRANCH   3  18
BRANCH   1  25
HETATM   25  C   UNL     1      44.097 -17.602   1.682  1.00  0.00     0.189 C 
BRANCH  25  26
HETATM   26  C   UNL     1      44.200 -18.823   2.560  1.00  0.00    -0.038 A 
HETATM   27  C   UNL     1      44.197 -20.107   1.997  1.00  0.00     0.009 A 
HETATM   28  C   UNL     1      44.373 -21.237   2.800  1.00  0.00     0.007 A 
HETATM   29  C   UNL     1      44.543 -21.107   4.182  1.00  0.00    -0.062 A 
HETATM   30  C   UNL     1      44.789 -22.313   5.039  1.00  0.00     0.048 C 
HETATM   31  C   UNL     1      44.547 -19.827   4.747  1.00  0.00     0.007 A 
HETATM   32  C   UNL     1      44.374 -18.697   3.945  1.00  0.00     0.009 A 
ENDBRANCH  25  26
ENDBRANCH   1  25
TORSDOF 6
ENDMDL
MODEL 8
REMARK VINA RESULT:      -8.3      3.514      4.904
REMARK  6 active torsions:
REMARK  status: ('A' for Active; 'I' for Inactive)
REMARK    1  A    between atoms: C_5  and  C_6 
REMARK    2  A    between atoms: C_6  and  N_7 
REMARK    3  A    between atoms: C_9  and  C_10 
REMARK    4  A    between atoms: C_17  and  C_18 
REMARK       I    between atoms: C_18  and  N_19 
REMARK    5  A    between atoms: N_19  and  C_20 
REMARK    6  A    between atoms: C_23  and  O_24 
ROOT
HETATM    1  N   UNL     1      42.899 -17.220   1.890  1.00  0.00    -0.275 N 
HETATM    2  N   UNL     1      41.979 -16.629   1.109  1.00  0.00    -0.171 NA
HETATM    3  C   UNL     1      41.289 -15.813   1.929  1.00  0.00     0.104 A 
HETATM    4  C   UNL     1      41.734 -15.975   3.282  1.00  0.00     0.080 A 
HETATM    5  C   UNL     1      42.812 -16.838   3.192  1.00  0.00     0.132 A 
ENDROOT
BRANCH   4   6
HETATM    6  C   UNL     1      41.254 -15.455   4.555  1.00  0.00     0.255 C 
HETATM    7  N   UNL     1      41.260 -14.085   4.652  1.00  0.00    -0.352 N 
HETATM    8  H   UNL     1      41.546 -13.578   3.823  1.00  0.00     0.163 HD
HETATM    9  O   UNL     1      40.797 -16.201   5.410  1.00  0.00    -0.268 OA
BRANCH   7  10
HETATM   10  C   UNL     1      40.628 -13.278   5.695  1.00  0.00     0.084 C 
HETATM   11  C   UNL     1      41.464 -12.051   6.086  1.00  0.00     0.028 C 
HETATM   12  C   UNL     1      41.135 -10.783   5.299  1.00  0.00     0.034 C 
HETATM   13  C   UNL     1      39.640 -10.487   5.294  1.00  0.00     0.118 C 
HETATM   14  C   UNL     1      38.824 -11.660   4.762  1.00  0.00     0.034 C 
HETATM   15  C   UNL     1      39.139 -12.980   5.470  1.00  0.00     0.028 C 
BRANCH  13  16
HETATM   16  O   UNL     1      39.212 -10.203   6.627  1.00  0.00    -0.396 OA
HETATM   17  H   UNL     1      39.775 -10.725   7.225  1.00  0.00     0.210 HD
ENDBRANCH  13  16
ENDBRANCH   7  10
ENDBRANCH   4   6
BRANCH   3  18
HETATM   18  C   UNL     1      40.241 -14.952   1.360  1.00  0.00    -0.005 A 
HETATM   19  C   UNL     1      40.592 -13.939   0.453  1.00  0.00     0.014 A 
HETATM   20  C   UNL     1      39.626 -13.087  -0.090  1.00  0.00     0.007 A 
HETATM   21  C   UNL     1      38.281 -13.228   0.265  1.00  0.00    -0.062 A 
HETATM   22  C   UNL     1      37.251 -12.318  -0.336  1.00  0.00     0.048 C 
HETATM   23  C   UNL     1      37.923 -14.232   1.170  1.00  0.00     0.007 A 
HETATM   24  C   UNL     1      38.895 -15.076   1.725  1.00  0.00     0.014 A 
ENDBRANCH   3  18
BRANCH   1  25
HETATM   25  C   UNL     1      43.724 -18.297   1.357  1.00  0.00     0.189 C 
BRANCH  25  26
HETATM   26  C   UNL     1      44.011 -19.380   2.366  1.00  0.00    -0.038 A 
HETATM   27  C   UNL     1      43.927 -20.731   2.003  1.00  0.00     0.009 A 
HETATM   28  C   UNL     1      44.270 -21.735   2.913  1.00  0.00     0.007 A 
HETATM   29  C   UNL     1      44.693 -21.408   4.206  1.00  0.00    -0.062 A 
HETATM   30  C   UNL     1      45.116 -22.480   5.166  1.00  0.00     0.048 C 
HETATM   31  C   UNL     1      44.777 -20.060   4.571  1.00  0.00     0.007 A 
HETATM   32  C   UNL     1      44.437 -19.056   3.662  1.00  0.00     0.009 A 
ENDBRANCH  25  26
ENDBRANCH   1  25
TORSDOF 6
ENDMDL
MODEL 9
REMARK VINA RESULT:      -8.3      2.547      8.072
REMARK  6 active torsions:
REMARK  status: ('A' for Active; 'I' for Inactive)
REMARK    1  A    between atoms: C_5  and  C_6 
REMARK    2  A    between atoms: C_6  and  N_7 
REMARK    3  A    between atoms: C_9  and  C_10 
REMARK    4  A    between atoms: C_17  and  C_18 
REMARK       I    between atoms: C_18  and  N_19 
REMARK    5  A    between atoms: N_19  and  C_20 
REMARK    6  A    between atoms: C_23  and  O_24 
ROOT
HETATM    1  N   UNL     1      44.639 -13.685   7.305  1.00  0.00    -0.275 N 
HETATM    2  N   UNL     1      44.897 -14.994   7.452  1.00  0.00    -0.171 NA
HETATM    3  C   UNL     1      43.947 -15.625   6.734  1.00  0.00     0.104 A 
HETATM    4  C   UNL     1      43.012 -14.676   6.203  1.00  0.00     0.080 A 
HETATM    5  C   UNL     1      43.540 -13.443   6.542  1.00  0.00     0.132 A 
ENDROOT
BRANCH   4   6
HETATM    6  C   UNL     1      41.751 -14.817   5.488  1.00  0.00     0.255 C 
HETATM    7  N   UNL     1      40.892 -13.753   5.628  1.00  0.00    -0.352 N 
HETATM    8  H   UNL     1      41.236 -12.968   6.167  1.00  0.00     0.163 HD
HETATM    9  O   UNL     1      41.547 -15.771   4.749  1.00  0.00    -0.268 OA
BRANCH   7  10
HETATM   10  C   UNL     1      39.676 -13.502   4.856  1.00  0.00     0.084 C 
HETATM   11  C   UNL     1      38.832 -12.357   5.434  1.00  0.00     0.028 C 
HETATM   12  C   UNL     1      39.148 -10.980   4.851  1.00  0.00     0.034 C 
HETATM   13  C   UNL     1      39.145 -10.992   3.327  1.00  0.00     0.118 C 
HETATM   14  C   UNL     1      40.101 -12.034   2.757  1.00  0.00     0.034 C 
HETATM   15  C   UNL     1      39.877 -13.433   3.336  1.00  0.00     0.028 C 
BRANCH  13  16
HETATM   16  O   UNL     1      37.826 -11.283   2.862  1.00  0.00    -0.396 OA
HETATM   17  H   UNL     1      37.482 -10.471   2.451  1.00  0.00     0.210 HD
ENDBRANCH  13  16
ENDBRANCH   7  10
ENDBRANCH   4   6
BRANCH   3  18
HETATM   18  C   UNL     1      43.993 -17.091   6.625  1.00  0.00    -0.005 A 
HETATM   19  C   UNL     1      44.320 -17.686   5.395  1.00  0.00     0.014 A 
HETATM   20  C   UNL     1      44.351 -19.075   5.248  1.00  0.00     0.007 A 
HETATM   21  C   UNL     1      44.051 -19.906   6.332  1.00  0.00    -0.062 A 
HETATM   22  C   UNL     1      44.102 -21.396   6.166  1.00  0.00     0.048 C 
HETATM   23  C   UNL     1      43.720 -19.323   7.559  1.00  0.00     0.007 A 
HETATM   24  C   UNL     1      43.677 -17.929   7.701  1.00  0.00     0.014 A 
ENDBRANCH   3  18
BRANCH   1  25
HETATM   25  C   UNL     1      45.383 -12.704   8.086  1.00  0.00     0.189 C 
BRANCH  25  26
HETATM   26  C   UNL     1      44.638 -12.228   9.307  1.00  0.00    -0.038 A 
HETATM   27  C   UNL     1      44.785 -12.890  10.533  1.00  0.00     0.009 A 
HETATM   28  C   UNL     1      44.159 -12.403  11.684  1.00  0.00     0.007 A 
HETATM   29  C   UNL     1      43.365 -11.253  11.629  1.00  0.00    -0.062 A 
HETATM   30  C   UNL     1      42.739 -10.696  12.873  1.00  0.00     0.048 C 
HETATM   31  C   UNL     1      43.217 -10.589  10.407  1.00  0.00     0.007 A 
HETATM   32  C   UNL     1      43.844 -11.073   9.256  1.00  0.00     0.009 A 
ENDBRANCH  25  26
ENDBRANCH   1  25
TORSDOF 6
ENDMDL
MODEL 10
REMARK VINA RESULT:      -8.2      3.646      5.204
REMARK  6 active torsions:
REMARK  status: ('A' for Active; 'I' for Inactive)
REMARK    1  A    between atoms: C_5  and  C_6 
REMARK    2  A    between atoms: C_6  and  N_7 
REMARK    3  A    between atoms: C_9  and  C_10 
REMARK    4  A    between atoms: C_17  and  C_18 
REMARK       I    between atoms: C_18  and  N_19 
REMARK    5  A    between atoms: N_19  and  C_20 
REMARK    6  A    between atoms: C_23  and  O_24 
ROOT
HETATM    1  N   UNL     1      43.428 -17.306   1.758  1.00  0.00    -0.275 N 
HETATM    2  N   UNL     1      42.359 -17.017   0.999  1.00  0.00    -0.171 NA
HETATM    3  C   UNL     1      42.083 -15.723   1.253  1.00  0.00     0.104 A 
HETATM    4  C   UNL     1      42.953 -15.221   2.276  1.00  0.00     0.080 A 
HETATM    5  C   UNL     1      43.840 -16.256   2.517  1.00  0.00     0.132 A 
ENDROOT
BRANCH   4   6
HETATM    6  C   UNL     1      43.002 -13.964   3.011  1.00  0.00     0.255 C 
HETATM    7  N   UNL     1      41.775 -13.393   3.249  1.00  0.00    -0.352 N 
HETATM    8  H   UNL     1      40.967 -13.918   2.938  1.00  0.00     0.163 HD
HETATM    9  O   UNL     1      44.057 -13.532   3.453  1.00  0.00    -0.268 OA
BRANCH   7  10
HETATM   10  C   UNL     1      41.489 -12.275   4.148  1.00  0.00     0.084 C 
HETATM   11  C   UNL     1      40.357 -11.374   3.635  1.00  0.00     0.028 C 
HETATM   12  C   UNL     1      38.964 -11.761   4.130  1.00  0.00     0.034 C 
HETATM   13  C   UNL     1      38.926 -11.935   5.644  1.00  0.00     0.118 C 
HETATM   14  C   UNL     1      39.956 -12.947   6.133  1.00  0.00     0.034 C 
HETATM   15  C   UNL     1      41.371 -12.652   5.631  1.00  0.00     0.028 C 
BRANCH  13  16
HETATM   16  O   UNL     1      39.191 -10.678   6.268  1.00  0.00    -0.396 OA
HETATM   17  H   UNL     1      40.158 -10.570   6.294  1.00  0.00     0.210 HD
ENDBRANCH  13  16
ENDBRANCH   7  10
ENDBRANCH   4   6
BRANCH   3  18
HETATM   18  C   UNL     1      40.995 -15.068   0.512  1.00  0.00    -0.005 A 
HETATM   19  C   UNL     1      41.190 -14.705  -0.831  1.00  0.00     0.014 A 
HETATM   20  C   UNL     1      40.187 -14.060  -1.560  1.00  0.00     0.007 A 
HETATM   21  C   UNL     1      38.961 -13.759  -0.959  1.00  0.00    -0.062 A 
HETATM   22  C   UNL     1      37.886 -13.081  -1.755  1.00  0.00     0.048 C 
HETATM   23  C   UNL     1      38.758 -14.114   0.379  1.00  0.00     0.007 A 
HETATM   24  C   UNL     1      39.771 -14.748   1.112  1.00  0.00     0.014 A 
ENDBRANCH   3  18
BRANCH   1  25
HETATM   25  C   UNL     1      43.903 -18.681   1.854  1.00  0.00     0.189 C 
BRANCH  25  26
HETATM   26  C   UNL     1      43.946 -19.198   3.269  1.00  0.00    -0.038 A 
HETATM   27  C   UNL     1      43.150 -18.614   4.265  1.00  0.00     0.009 A 
HETATM   28  C   UNL     1      43.128 -19.141   5.559  1.00  0.00     0.007 A 
HETATM   29  C   UNL     1      43.909 -20.254   5.886  1.00  0.00    -0.062 A 
HETATM   30  C   UNL     1      43.844 -20.857   7.258  1.00  0.00     0.048 C 
HETATM   31  C   UNL     1      44.704 -20.839   4.895  1.00  0.00     0.007 A 
HETATM   32  C   UNL     1      44.726 -20.315   3.601  1.00  0.00     0.009 A 
ENDBRANCH  25  26
ENDBRANCH   1  25
TORSDOF 6
ENDMDL
