MODEL 1
REMARK VINA RESULT:      -8.6      0.000      0.000
REMARK  7 active torsions:
REMARK  status: ('A' for Active; 'I' for Inactive)
REMARK    1  A    between atoms: O_2  and  C_3 
REMARK    2  A    between atoms: C_3  and  C_4 
REMARK    3  A    between atoms: C_4  and  N_5 
REMARK    4  A    between atoms: C_4  and  C_21 
REMARK    5  A    between atoms: N_5  and  C_6 
REMARK    6  A    between atoms: C_21  and  C_22 
REMARK    7  A    between atoms: C_25  and  O_26 
ROOT
HETATM    1  N   UNL     1      43.967 -17.259   3.180  1.00  0.00    -0.277 NA
HETATM    2  H   UNL     1      44.570 -16.487   3.473  1.00  0.00     0.128 HD
ENDROOT
BRANCH   1   3
HETATM    3  C   UNL     1      42.606 -16.712   2.856  1.00  0.00     0.164 C 
BRANCH   3   4
HETATM    4  C   UNL     1      42.060 -17.177   1.495  1.00  0.00     0.276 C 
HETATM    5  O   UNL     1      41.403 -18.191   1.300  1.00  0.00    -0.263 OA
BRANCH   4   6
HETATM    6  O   UNL     1      42.381 -16.265   0.530  1.00  0.00    -0.325 OA
HETATM    7  C   UNL     1      41.323 -15.983  -0.389  1.00  0.00     0.213 C 
ENDBRANCH   4   6
ENDBRANCH   3   4
BRANCH   3   8
HETATM    8  C   UNL     1      42.674 -15.173   2.866  1.00  0.00     0.068 C 
BRANCH   8   9
HETATM    9  C   UNL     1      41.835 -14.579   3.974  1.00  0.00    -0.056 A 
HETATM   10  C   UNL     1      42.267 -13.423   4.644  1.00  0.00     0.010 A 
HETATM   11  C   UNL     1      41.515 -12.886   5.691  1.00  0.00     0.037 A 
HETATM   12  C   UNL     1      40.333 -13.508   6.071  1.00  0.00     0.065 A 
HETATM   13  C   UNL     1      39.890 -14.654   5.420  1.00  0.00     0.037 A 
HETATM   14  C   UNL     1      40.638 -15.190   4.371  1.00  0.00     0.010 A 
BRANCH  12  15
HETATM   15  O   UNL     1      39.568 -13.021   7.088  1.00  0.00    -0.361 OA
HETATM   16  H   UNL     1      40.141 -12.565   7.726  1.00  0.00     0.217 HD
ENDBRANCH  12  15
ENDBRANCH   8   9
ENDBRANCH   3   8
ENDBRANCH   1   3
BRANCH   1  17
HETATM   17  C   UNL     1      44.029 -18.311   4.125  1.00  0.00     0.034 A 
HETATM   18  C   UNL     1      43.917 -17.975   5.502  1.00  0.00     0.013 A 
HETATM   19  C   UNL     1      44.011 -19.002   6.461  1.00  0.00     0.044 A 
HETATM   20  C   UNL     1      43.706 -16.663   5.977  1.00  0.00     0.015 A 
HETATM   21  C   UNL     1      43.891 -18.726   7.833  1.00  0.00     0.030 A 
HETATM   22  N   UNL     1      44.216 -20.263   6.053  1.00  0.00    -0.355 N 
HETATM   23  C   UNL     1      43.675 -17.421   8.270  1.00  0.00     0.002 A 
HETATM   24  C   UNL     1      43.585 -16.389   7.342  1.00  0.00     0.001 A 
HETATM   25  H   UNL     1      44.292 -20.984   6.766  1.00  0.00     0.166 HD
HETATM   26  C   UNL     1      44.312 -20.638   4.766  1.00  0.00     0.044 A 
HETATM   27  C   UNL     1      44.201 -19.670   3.745  1.00  0.00     0.013 A 
HETATM   28  C   UNL     1      44.511 -21.995   4.461  1.00  0.00     0.030 A 
HETATM   29  C   UNL     1      44.261 -20.133   2.409  1.00  0.00     0.015 A 
HETATM   30  C   UNL     1      44.461 -21.483   2.112  1.00  0.00     0.001 A 
HETATM   31  C   UNL     1      44.592 -22.413   3.135  1.00  0.00     0.002 A 
ENDBRANCH   1  17
TORSDOF 7
ENDMDL
MODEL 2
REMARK VINA RESULT:      -8.6      0.087      3.438
REMARK  7 active torsions:
REMARK  status: ('A' for Active; 'I' for Inactive)
REMARK    1  A    between atoms: O_2  and  C_3 
REMARK    2  A    between atoms: C_3  and  C_4 
REMARK    3  A    between atoms: C_4  and  N_5 
REMARK    4  A    between atoms: C_4  and  C_21 
REMARK    5  A    between atoms: N_5  and  C_6 
REMARK    6  A    between atoms: C_21  and  C_22 
REMARK    7  A    between atoms: C_25  and  O_26 
ROOT
HETATM    1  N   UNL     1      43.956 -17.370   3.126  1.00  0.00    -0.277 NA
HETATM    2  H   UNL     1      44.632 -16.620   3.285  1.00  0.00     0.128 HD
ENDROOT
BRANCH   1   3
HETATM    3  C   UNL     1      42.610 -16.758   2.856  1.00  0.00     0.164 C 
BRANCH   3   4
HETATM    4  C   UNL     1      42.011 -17.156   1.497  1.00  0.00     0.276 C 
HETATM    5  O   UNL     1      41.304 -18.134   1.289  1.00  0.00    -0.263 OA
BRANCH   4   6
HETATM    6  O   UNL     1      42.347 -16.229   0.552  1.00  0.00    -0.325 OA
HETATM    7  C   UNL     1      41.300 -15.921  -0.371  1.00  0.00     0.213 C 
ENDBRANCH   4   6
ENDBRANCH   3   4
BRANCH   3   8
HETATM    8  C   UNL     1      42.743 -15.224   2.913  1.00  0.00     0.068 C 
BRANCH   8   9
HETATM    9  C   UNL     1      41.885 -14.626   4.005  1.00  0.00    -0.056 A 
HETATM   10  C   UNL     1      42.269 -13.425   4.624  1.00  0.00     0.010 A 
HETATM   11  C   UNL     1      41.501 -12.881   5.656  1.00  0.00     0.037 A 
HETATM   12  C   UNL     1      40.351 -13.540   6.070  1.00  0.00     0.065 A 
HETATM   13  C   UNL     1      39.956 -14.729   5.470  1.00  0.00     0.037 A 
HETATM   14  C   UNL     1      40.720 -15.273   4.436  1.00  0.00     0.010 A 
BRANCH  12  15
HETATM   15  O   UNL     1      39.572 -13.048   7.074  1.00  0.00    -0.361 OA
HETATM   16  H   UNL     1      39.454 -12.092   6.945  1.00  0.00     0.217 HD
ENDBRANCH  12  15
ENDBRANCH   8   9
ENDBRANCH   3   8
ENDBRANCH   1   3
BRANCH   1  17
HETATM   17  C   UNL     1      44.031 -18.324   4.170  1.00  0.00     0.034 A 
HETATM   18  C   UNL     1      44.220 -19.687   3.812  1.00  0.00     0.013 A 
HETATM   19  C   UNL     1      44.262 -20.656   4.832  1.00  0.00     0.044 A 
HETATM   20  C   UNL     1      44.380 -20.136   2.483  1.00  0.00     0.015 A 
HETATM   21  C   UNL     1      44.463 -22.014   4.533  1.00  0.00     0.030 A 
HETATM   22  N   UNL     1      44.110 -20.273   6.108  1.00  0.00    -0.355 N 
HETATM   23  C   UNL     1      44.626 -22.426   3.212  1.00  0.00     0.002 A 
HETATM   24  C   UNL     1      44.582 -21.487   2.188  1.00  0.00     0.001 A 
HETATM   25  H   UNL     1      44.132 -20.994   6.824  1.00  0.00     0.166 HD
HETATM   26  C   UNL     1      43.946 -18.999   6.503  1.00  0.00     0.044 A 
HETATM   27  C   UNL     1      43.919 -17.966   5.541  1.00  0.00     0.013 A 
HETATM   28  C   UNL     1      43.812 -18.718   7.873  1.00  0.00     0.030 A 
HETATM   29  C   UNL     1      43.792 -16.642   6.021  1.00  0.00     0.015 A 
HETATM   30  C   UNL     1      43.659 -16.368   7.386  1.00  0.00     0.001 A 
HETATM   31  C   UNL     1      43.663 -17.405   8.310  1.00  0.00     0.002 A 
ENDBRANCH   1  17
TORSDOF 7
ENDMDL
MODEL 3
REMARK VINA RESULT:      -7.8      1.451      3.919
REMARK  7 active torsions:
REMARK  status: ('A' for Active; 'I' for Inactive)
REMARK    1  A    between atoms: O_2  and  C_3 
REMARK    2  A    between atoms: C_3  and  C_4 
REMARK    3  A    between atoms: C_4  and  N_5 
REMARK    4  A    between atoms: C_4  and  C_21 
REMARK    5  A    between atoms: N_5  and  C_6 
REMARK    6  A    between atoms: C_21  and  C_22 
REMARK    7  A    between atoms: C_25  and  O_26 
ROOT
HETATM    1  N   UNL     1      43.143 -15.612   2.260  1.00  0.00    -0.277 NA
HETATM    2  H   UNL     1      43.566 -14.683   2.309  1.00  0.00     0.128 HD
ENDROOT
BRANCH   1   3
HETATM    3  C   UNL     1      41.669 -15.459   2.014  1.00  0.00     0.164 C 
BRANCH   3   4
HETATM    4  C   UNL     1      41.221 -15.938   0.623  1.00  0.00     0.276 C 
HETATM    5  O   UNL     1      41.065 -17.105   0.287  1.00  0.00    -0.263 OA
BRANCH   4   6
HETATM    6  O   UNL     1      40.976 -14.861  -0.182  1.00  0.00    -0.325 OA
HETATM    7  C   UNL     1      41.016 -15.150  -1.581  1.00  0.00     0.213 C 
ENDBRANCH   4   6
ENDBRANCH   3   4
BRANCH   3   8
HETATM    8  C   UNL     1      41.291 -13.975   2.177  1.00  0.00     0.068 C 
BRANCH   8   9
HETATM    9  C   UNL     1      40.739 -13.682   3.553  1.00  0.00    -0.056 A 
HETATM   10  C   UNL     1      40.786 -12.376   4.069  1.00  0.00     0.010 A 
HETATM   11  C   UNL     1      40.310 -12.102   5.352  1.00  0.00     0.037 A 
HETATM   12  C   UNL     1      39.789 -13.135   6.122  1.00  0.00     0.065 A 
HETATM   13  C   UNL     1      39.735 -14.433   5.629  1.00  0.00     0.037 A 
HETATM   14  C   UNL     1      40.207 -14.709   4.345  1.00  0.00     0.010 A 
BRANCH  12  15
HETATM   15  O   UNL     1      39.314 -12.914   7.380  1.00  0.00    -0.361 OA
HETATM   16  H   UNL     1      38.771 -13.673   7.651  1.00  0.00     0.217 HD
ENDBRANCH  12  15
ENDBRANCH   8   9
ENDBRANCH   3   8
ENDBRANCH   1   3
BRANCH   1  17
HETATM   17  C   UNL     1      43.532 -16.385   3.381  1.00  0.00     0.034 A 
HETATM   18  C   UNL     1      43.731 -17.779   3.190  1.00  0.00     0.013 A 
HETATM   19  C   UNL     1      44.082 -18.573   4.299  1.00  0.00     0.044 A 
HETATM   20  C   UNL     1      43.606 -18.428   1.943  1.00  0.00     0.015 A 
HETATM   21  C   UNL     1      44.306 -19.953   4.161  1.00  0.00     0.030 A 
HETATM   22  N   UNL     1      44.207 -17.997   5.504  1.00  0.00    -0.355 N 
HETATM   23  C   UNL     1      44.183 -20.563   2.915  1.00  0.00     0.002 A 
HETATM   24  C   UNL     1      43.830 -19.801   1.806  1.00  0.00     0.001 A 
HETATM   25  H   UNL     1      44.450 -18.594   6.290  1.00  0.00     0.166 HD
HETATM   26  C   UNL     1      44.047 -16.683   5.737  1.00  0.00     0.044 A 
HETATM   27  C   UNL     1      43.720 -15.818   4.671  1.00  0.00     0.013 A 
HETATM   28  C   UNL     1      44.220 -16.193   7.042  1.00  0.00     0.030 A 
HETATM   29  C   UNL     1      43.613 -14.439   4.970  1.00  0.00     0.015 A 
HETATM   30  C   UNL     1      43.785 -13.958   6.271  1.00  0.00     0.001 A 
HETATM   31  C   UNL     1      44.082 -14.833   7.307  1.00  0.00     0.002 A 
ENDBRANCH   1  17
TORSDOF 7
ENDMDL
MODEL 4
REMARK VINA RESULT:      -7.7      2.231      5.208
REMARK  7 active torsions:
REMARK  status: ('A' for Active; 'I' for Inactive)
REMARK    1  A    between atoms: O_2  and  C_3 
REMARK    2  A    between atoms: C_3  and  C_4 
REMARK    3  A    between atoms: C_4  and  N_5 
REMARK    4  A    between atoms: C_4  and  C_21 
REMARK    5  A    between atoms: N_5  and  C_6 
REMARK    6  A    between atoms: C_21  and  C_22 
REMARK    7  A    between atoms: C_25  and  O_26 
ROOT
HETATM    1  N   UNL     1      41.622 -15.383   4.794  1.00  0.00    -0.277 NA
HETATM    2  H   UNL     1      40.786 -15.556   4.232  1.00  0.00     0.128 HD
ENDROOT
BRANCH   1   3
HETATM    3  C   UNL     1      42.179 -14.036   4.429  1.00  0.00     0.164 C 
BRANCH   3   4
HETATM    4  C   UNL     1      42.969 -13.364   5.564  1.00  0.00     0.276 C 
HETATM    5  O   UNL     1      42.487 -12.690   6.465  1.00  0.00    -0.263 OA
BRANCH   4   6
HETATM    6  O   UNL     1      44.296 -13.666   5.448  1.00  0.00    -0.325 OA
HETATM    7  C   UNL     1      44.952 -13.926   6.690  1.00  0.00     0.213 C 
ENDBRANCH   4   6
ENDBRANCH   3   4
BRANCH   3   8
HETATM    8  C   UNL     1      41.015 -13.114   4.016  1.00  0.00     0.068 C 
BRANCH   8   9
HETATM    9  C   UNL     1      40.484 -13.458   2.644  1.00  0.00    -0.056 A 
HETATM   10  C   UNL     1      39.297 -14.197   2.513  1.00  0.00     0.010 A 
HETATM   11  C   UNL     1      38.815 -14.548   1.250  1.00  0.00     0.037 A 
HETATM   12  C   UNL     1      39.523 -14.162   0.118  1.00  0.00     0.065 A 
HETATM   13  C   UNL     1      40.698 -13.430   0.229  1.00  0.00     0.037 A 
HETATM   14  C   UNL     1      41.180 -13.075   1.490  1.00  0.00     0.010 A 
BRANCH  12  15
HETATM   15  O   UNL     1      39.092 -14.483  -1.134  1.00  0.00    -0.361 OA
HETATM   16  H   UNL     1      38.710 -13.693  -1.551  1.00  0.00     0.217 HD
ENDBRANCH  12  15
ENDBRANCH   8   9
ENDBRANCH   3   8
ENDBRANCH   1   3
BRANCH   1  17
HETATM   17  C   UNL     1      42.504 -16.487   4.711  1.00  0.00     0.034 A 
HETATM   18  C   UNL     1      42.847 -16.967   3.418  1.00  0.00     0.013 A 
HETATM   19  C   UNL     1      43.694 -18.087   3.312  1.00  0.00     0.044 A 
HETATM   20  C   UNL     1      42.395 -16.381   2.216  1.00  0.00     0.015 A 
HETATM   21  C   UNL     1      44.077 -18.591   2.058  1.00  0.00     0.030 A 
HETATM   22  N   UNL     1      44.143 -18.677   4.430  1.00  0.00    -0.355 N 
HETATM   23  C   UNL     1      43.621 -17.986   0.889  1.00  0.00     0.002 A 
HETATM   24  C   UNL     1      42.778 -16.883   0.968  1.00  0.00     0.001 A 
HETATM   25  H   UNL     1      44.743 -19.491   4.326  1.00  0.00     0.166 HD
HETATM   26  C   UNL     1      43.864 -18.256   5.675  1.00  0.00     0.044 A 
HETATM   27  C   UNL     1      43.042 -17.123   5.862  1.00  0.00     0.013 A 
HETATM   28  C   UNL     1      44.406 -18.947   6.771  1.00  0.00     0.030 A 
HETATM   29  C   UNL     1      42.825 -16.699   7.194  1.00  0.00     0.015 A 
HETATM   30  C   UNL     1      43.366 -17.392   8.281  1.00  0.00     0.001 A 
HETATM   31  C   UNL     1      44.151 -18.518   8.070  1.00  0.00     0.002 A 
ENDBRANCH   1  17
TORSDOF 7
ENDMDL
MODEL 5
REMARK VINA RESULT:      -7.7      2.345      6.820
REMARK  7 active torsions:
REMARK  status: ('A' for Active; 'I' for Inactive)
REMARK    1  A    between atoms: O_2  and  C_3 
REMARK    2  A    between atoms: C_3  and  C_4 
REMARK    3  A    between atoms: C_4  and  N_5 
REMARK    4  A    between atoms: C_4  and  C_21 
REMARK    5  A    between atoms: N_5  and  C_6 
REMARK    6  A    between atoms: C_21  and  C_22 
REMARK    7  A    between atoms: C_25  and  O_26 
ROOT
HETATM    1  N   UNL     1      42.887 -15.614   4.445  1.00  0.00    -0.277 NA
HETATM    2  H   UNL     1      43.803 -15.527   4.001  1.00  0.00     0.128 HD
ENDROOT
BRANCH   1   3
HETATM    3  C   UNL     1      42.646 -17.059   4.777  1.00  0.00     0.164 C 
BRANCH   3   4
HETATM    4  C   UNL     1      41.946 -17.276   6.129  1.00  0.00     0.276 C 
HETATM    5  O   UNL     1      40.790 -16.970   6.390  1.00  0.00    -0.263 OA
BRANCH   4   6
HETATM    6  O   UNL     1      42.795 -17.904   6.996  1.00  0.00    -0.325 OA
HETATM    7  C   UNL     1      43.202 -17.103   8.107  1.00  0.00     0.213 C 
ENDBRANCH   4   6
ENDBRANCH   3   4
BRANCH   3   8
HETATM    8  C   UNL     1      43.998 -17.797   4.791  1.00  0.00     0.068 C 
BRANCH   8   9
HETATM    9  C   UNL     1      43.984 -19.016   3.897  1.00  0.00    -0.056 A 
HETATM   10  C   UNL     1      44.731 -20.153   4.243  1.00  0.00     0.010 A 
HETATM   11  C   UNL     1      44.750 -21.272   3.407  1.00  0.00     0.037 A 
HETATM   12  C   UNL     1      44.025 -21.251   2.223  1.00  0.00     0.065 A 
HETATM   13  C   UNL     1      43.281 -20.134   1.863  1.00  0.00     0.037 A 
HETATM   14  C   UNL     1      43.257 -19.016   2.699  1.00  0.00     0.010 A 
BRANCH  12  15
HETATM   15  O   UNL     1      44.016 -22.318   1.375  1.00  0.00    -0.361 OA
HETATM   16  H   UNL     1      43.594 -22.057   0.540  1.00  0.00     0.217 HD
ENDBRANCH  12  15
ENDBRANCH   8   9
ENDBRANCH   3   8
ENDBRANCH   1   3
BRANCH   1  17
HETATM   17  C   UNL     1      41.903 -14.960   3.665  1.00  0.00     0.034 A 
HETATM   18  C   UNL     1      41.085 -13.989   4.305  1.00  0.00     0.013 A 
HETATM   19  C   UNL     1      40.077 -13.353   3.557  1.00  0.00     0.044 A 
HETATM   20  C   UNL     1      41.226 -13.610   5.657  1.00  0.00     0.015 A 
HETATM   21  C   UNL     1      39.252 -12.374   4.137  1.00  0.00     0.030 A 
HETATM   22  N   UNL     1      39.905 -13.686   2.269  1.00  0.00    -0.355 N 
HETATM   23  C   UNL     1      39.421 -12.015   5.472  1.00  0.00     0.002 A 
HETATM   24  C   UNL     1      40.406 -12.635   6.233  1.00  0.00     0.001 A 
HETATM   25  H   UNL     1      39.162 -13.220   1.755  1.00  0.00     0.166 HD
HETATM   26  C   UNL     1      40.659 -14.583   1.611  1.00  0.00     0.044 A 
HETATM   27  C   UNL     1      41.708 -15.245   2.287  1.00  0.00     0.013 A 
HETATM   28  C   UNL     1      40.395 -14.838   0.256  1.00  0.00     0.030 A 
HETATM   29  C   UNL     1      42.498 -16.141   1.528  1.00  0.00     0.015 A 
HETATM   30  C   UNL     1      42.228 -16.392   0.180  1.00  0.00     0.001 A 
HETATM   31  C   UNL     1      41.175 -15.746  -0.455  1.00  0.00     0.002 A 
ENDBRANCH   1  17
TORSDOF 7
ENDMDL
MODEL 6
REMARK VINA RESULT:      -7.6      1.532      2.120
REMARK  7 active torsions:
REMARK  status: ('A' for Active; 'I' for Inactive)
REMARK    1  A    between atoms: O_2  and  C_3 
REMARK    2  A    between atoms: C_3  and  C_4 
REMARK    3  A    between atoms: C_4  and  N_5 
REMARK    4  A    between atoms: C_4  and  C_21 
REMARK    5  A    between atoms: N_5  and  C_6 
REMARK    6  A    between atoms: C_21  and  C_22 
REMARK    7  A    between atoms: C_25  and  O_26 
ROOT
HETATM    1  N   UNL     1      43.084 -15.317   2.260  1.00  0.00    -0.277 NA
HETATM    2  H   UNL     1      43.434 -14.381   2.477  1.00  0.00     0.128 HD
ENDROOT
BRANCH   1   3
HETATM    3  C   UNL     1      41.627 -15.217   1.909  1.00  0.00     0.164 C 
BRANCH   3   4
HETATM    4  C   UNL     1      41.310 -15.629   0.462  1.00  0.00     0.276 C 
HETATM    5  O   UNL     1      41.356 -16.769   0.018  1.00  0.00    -0.263 OA
BRANCH   4   6
HETATM    6  O   UNL     1      40.922 -14.534  -0.258  1.00  0.00    -0.325 OA
HETATM    7  C   UNL     1      40.844 -14.753  -1.668  1.00  0.00     0.213 C 
ENDBRANCH   4   6
ENDBRANCH   3   4
BRANCH   3   8
HETATM    8  C   UNL     1      41.162 -13.765   2.128  1.00  0.00     0.068 C 
BRANCH   8   9
HETATM    9  C   UNL     1      40.637 -13.547   3.529  1.00  0.00    -0.056 A 
HETATM   10  C   UNL     1      40.659 -12.264   4.099  1.00  0.00     0.010 A 
HETATM   11  C   UNL     1      40.207 -12.058   5.404  1.00  0.00     0.037 A 
HETATM   12  C   UNL     1      39.737 -13.138   6.141  1.00  0.00     0.065 A 
HETATM   13  C   UNL     1      39.708 -14.415   5.594  1.00  0.00     0.037 A 
HETATM   14  C   UNL     1      40.156 -14.622   4.288  1.00  0.00     0.010 A 
BRANCH  12  15
HETATM   15  O   UNL     1      39.287 -12.985   7.418  1.00  0.00    -0.361 OA
HETATM   16  H   UNL     1      39.906 -13.422   8.027  1.00  0.00     0.217 HD
ENDBRANCH  12  15
ENDBRANCH   8   9
ENDBRANCH   3   8
ENDBRANCH   1   3
BRANCH   1  17
HETATM   17  C   UNL     1      43.437 -16.220   3.292  1.00  0.00     0.034 A 
HETATM   18  C   UNL     1      43.645 -15.692   4.595  1.00  0.00     0.013 A 
HETATM   19  C   UNL     1      44.032 -16.567   5.628  1.00  0.00     0.044 A 
HETATM   20  C   UNL     1      43.479 -14.330   4.928  1.00  0.00     0.015 A 
HETATM   21  C   UNL     1      44.234 -16.099   6.937  1.00  0.00     0.030 A 
HETATM   22  N   UNL     1      44.205 -17.869   5.354  1.00  0.00    -0.355 N 
HETATM   23  C   UNL     1      44.054 -14.751   7.236  1.00  0.00     0.002 A 
HETATM   24  C   UNL     1      43.679 -13.866   6.231  1.00  0.00     0.001 A 
HETATM   25  H   UNL     1      44.495 -18.477   6.115  1.00  0.00     0.166 HD
HETATM   26  C   UNL     1      44.005 -18.423   4.147  1.00  0.00     0.044 A 
HETATM   27  C   UNL     1      43.592 -17.615   3.065  1.00  0.00     0.013 A 
HETATM   28  C   UNL     1      44.204 -19.804   3.985  1.00  0.00     0.030 A 
HETATM   29  C   UNL     1      43.351 -18.264   1.831  1.00  0.00     0.015 A 
HETATM   30  C   UNL     1      43.552 -19.638   1.676  1.00  0.00     0.001 A 
HETATM   31  C   UNL     1      43.984 -20.407   2.750  1.00  0.00     0.002 A 
ENDBRANCH   1  17
TORSDOF 7
ENDMDL
MODEL 7
REMARK VINA RESULT:      -7.6      2.342      7.612
REMARK  7 active torsions:
REMARK  status: ('A' for Active; 'I' for Inactive)
REMARK    1  A    between atoms: O_2  and  C_3 
REMARK    2  A    between atoms: C_3  and  C_4 
REMARK    3  A    between atoms: C_4  and  N_5 
REMARK    4  A    between atoms: C_4  and  C_21 
REMARK    5  A    between atoms: N_5  and  C_6 
REMARK    6  A    between atoms: C_21  and  C_22 
REMARK    7  A    between atoms: C_25  and  O_26 
ROOT
HETATM    1  N   UNL     1      42.939 -15.615   4.477  1.00  0.00    -0.277 NA
HETATM    2  H   UNL     1      43.825 -15.522   3.978  1.00  0.00     0.128 HD
ENDROOT
BRANCH   1   3
HETATM    3  C   UNL     1      42.723 -17.063   4.813  1.00  0.00     0.164 C 
BRANCH   3   4
HETATM    4  C   UNL     1      41.987 -17.288   6.144  1.00  0.00     0.276 C 
HETATM    5  O   UNL     1      40.812 -17.021   6.363  1.00  0.00    -0.263 OA
BRANCH   4   6
HETATM    6  O   UNL     1      42.829 -17.873   7.048  1.00  0.00    -0.325 OA
HETATM    7  C   UNL     1      43.244 -17.013   8.110  1.00  0.00     0.213 C 
ENDBRANCH   4   6
ENDBRANCH   3   4
BRANCH   3   8
HETATM    8  C   UNL     1      44.092 -17.768   4.875  1.00  0.00     0.068 C 
BRANCH   8   9
HETATM    9  C   UNL     1      44.116 -19.027   4.039  1.00  0.00    -0.056 A 
HETATM   10  C   UNL     1      44.689 -20.202   4.551  1.00  0.00     0.010 A 
HETATM   11  C   UNL     1      44.745 -21.362   3.775  1.00  0.00     0.037 A 
HETATM   12  C   UNL     1      44.231 -21.344   2.485  1.00  0.00     0.065 A 
HETATM   13  C   UNL     1      43.660 -20.191   1.961  1.00  0.00     0.037 A 
HETATM   14  C   UNL     1      43.600 -19.032   2.736  1.00  0.00     0.010 A 
BRANCH  12  15
HETATM   15  O   UNL     1      44.265 -22.451   1.691  1.00  0.00    -0.361 OA
HETATM   16  H   UNL     1      44.058 -22.193   0.777  1.00  0.00     0.217 HD
ENDBRANCH  12  15
ENDBRANCH   8   9
ENDBRANCH   3   8
ENDBRANCH   1   3
BRANCH   1  17
HETATM   17  C   UNL     1      41.906 -14.959   3.764  1.00  0.00     0.034 A 
HETATM   18  C   UNL     1      41.739 -15.284   2.390  1.00  0.00     0.013 A 
HETATM   19  C   UNL     1      40.741 -14.618   1.653  1.00  0.00     0.044 A 
HETATM   20  C   UNL     1      42.512 -16.249   1.710  1.00  0.00     0.015 A 
HETATM   21  C   UNL     1      40.524 -14.913   0.296  1.00  0.00     0.030 A 
HETATM   22  N   UNL     1      39.987 -13.689   2.259  1.00  0.00    -0.355 N 
HETATM   23  C   UNL     1      41.297 -15.877  -0.345  1.00  0.00     0.002 A 
HETATM   24  C   UNL     1      42.293 -16.543   0.361  1.00  0.00     0.001 A 
HETATM   25  H   UNL     1      39.281 -13.215   1.701  1.00  0.00     0.166 HD
HETATM   26  C   UNL     1      40.091 -13.357   3.557  1.00  0.00     0.044 A 
HETATM   27  C   UNL     1      41.051 -14.000   4.369  1.00  0.00     0.013 A 
HETATM   28  C   UNL     1      39.232 -12.378   4.085  1.00  0.00     0.030 A 
HETATM   29  C   UNL     1      41.079 -13.642   5.738  1.00  0.00     0.015 A 
HETATM   30  C   UNL     1      40.223 -12.666   6.257  1.00  0.00     0.001 A 
HETATM   31  C   UNL     1      39.304 -12.031   5.431  1.00  0.00     0.002 A 
ENDBRANCH   1  17
TORSDOF 7
ENDMDL
MODEL 8
REMARK VINA RESULT:      -7.5      2.444      4.933
REMARK  7 active torsions:
REMARK  status: ('A' for Active; 'I' for Inactive)
REMARK    1  A    between atoms: O_2  and  C_3 
REMARK    2  A    between atoms: C_3  and  C_4 
REMARK    3  A    between atoms: C_4  and  N_5 
REMARK    4  A    between atoms: C_4  and  C_21 
REMARK    5  A    between atoms: N_5  and  C_6 
REMARK    6  A    between atoms: C_21  and  C_22 
REMARK    7  A    between atoms: C_25  and  O_26 
ROOT
HETATM    1  N   UNL     1      41.659 -17.381   5.279  1.00  0.00    -0.277 NA
HETATM    2  H   UNL     1      40.637 -17.388   5.267  1.00  0.00     0.128 HD
ENDROOT
BRANCH   1   3
HETATM    3  C   UNL     1      42.126 -16.078   5.864  1.00  0.00     0.164 C 
BRANCH   3   4
HETATM    4  C   UNL     1      43.072 -16.243   7.065  1.00  0.00     0.276 C 
HETATM    5  O   UNL     1      43.986 -15.485   7.361  1.00  0.00    -0.263 OA
BRANCH   4   6
HETATM    6  O   UNL     1      42.716 -17.345   7.790  1.00  0.00    -0.325 OA
HETATM    7  C   UNL     1      43.814 -18.039   8.385  1.00  0.00     0.213 C 
ENDBRANCH   4   6
ENDBRANCH   3   4
BRANCH   3   8
HETATM    8  C   UNL     1      40.895 -15.264   6.306  1.00  0.00     0.068 C 
BRANCH   8   9
HETATM    9  C   UNL     1      40.785 -13.957   5.555  1.00  0.00    -0.056 A 
HETATM   10  C   UNL     1      41.929 -13.369   4.993  1.00  0.00     0.010 A 
HETATM   11  C   UNL     1      41.844 -12.145   4.326  1.00  0.00     0.037 A 
HETATM   12  C   UNL     1      40.614 -11.508   4.224  1.00  0.00     0.065 A 
HETATM   13  C   UNL     1      39.471 -12.074   4.774  1.00  0.00     0.037 A 
HETATM   14  C   UNL     1      39.553 -13.299   5.439  1.00  0.00     0.010 A 
BRANCH  12  15
HETATM   15  O   UNL     1      40.483 -10.312   3.584  1.00  0.00    -0.361 OA
HETATM   16  H   UNL     1      41.354 -10.028   3.260  1.00  0.00     0.217 HD
ENDBRANCH  12  15
ENDBRANCH   8   9
ENDBRANCH   3   8
ENDBRANCH   1   3
BRANCH   1  17
HETATM   17  C   UNL     1      42.165 -17.731   4.004  1.00  0.00     0.034 A 
HETATM   18  C   UNL     1      43.157 -18.747   3.939  1.00  0.00     0.013 A 
HETATM   19  C   UNL     1      43.700 -19.086   2.685  1.00  0.00     0.044 A 
HETATM   20  C   UNL     1      43.634 -19.454   5.064  1.00  0.00     0.015 A 
HETATM   21  C   UNL     1      44.671 -20.094   2.564  1.00  0.00     0.030 A 
HETATM   22  N   UNL     1      43.278 -18.437   1.590  1.00  0.00    -0.355 N 
HETATM   23  C   UNL     1      45.116 -20.780   3.692  1.00  0.00     0.002 A 
HETATM   24  C   UNL     1      44.599 -20.458   4.942  1.00  0.00     0.001 A 
HETATM   25  H   UNL     1      43.694 -18.692   0.699  1.00  0.00     0.166 HD
HETATM   26  C   UNL     1      42.332 -17.482   1.592  1.00  0.00     0.044 A 
HETATM   27  C   UNL     1      41.721 -17.105   2.808  1.00  0.00     0.013 A 
HETATM   28  C   UNL     1      41.960 -16.883   0.377  1.00  0.00     0.030 A 
HETATM   29  C   UNL     1      40.698 -16.130   2.739  1.00  0.00     0.015 A 
HETATM   30  C   UNL     1      40.334 -15.536   1.528  1.00  0.00     0.001 A 
HETATM   31  C   UNL     1      40.967 -15.907   0.349  1.00  0.00     0.002 A 
ENDBRANCH   1  17
TORSDOF 7
ENDMDL
MODEL 9
REMARK VINA RESULT:      -7.5      2.281      4.432
REMARK  7 active torsions:
REMARK  status: ('A' for Active; 'I' for Inactive)
REMARK    1  A    between atoms: O_2  and  C_3 
REMARK    2  A    between atoms: C_3  and  C_4 
REMARK    3  A    between atoms: C_4  and  N_5 
REMARK    4  A    between atoms: C_4  and  C_21 
REMARK    5  A    between atoms: N_5  and  C_6 
REMARK    6  A    between atoms: C_21  and  C_22 
REMARK    7  A    between atoms: C_25  and  O_26 
ROOT
HETATM    1  N   UNL     1      40.797 -15.969   4.676  1.00  0.00    -0.277 NA
HETATM    2  H   UNL     1      40.027 -16.340   4.116  1.00  0.00     0.128 HD
ENDROOT
BRANCH   1   3
HETATM    3  C   UNL     1      40.914 -14.493   4.418  1.00  0.00     0.164 C 
BRANCH   3   4
HETATM    4  C   UNL     1      40.936 -13.641   5.697  1.00  0.00     0.276 C 
HETATM    5  O   UNL     1      39.977 -13.426   6.427  1.00  0.00    -0.263 OA
BRANCH   4   6
HETATM    6  O   UNL     1      42.204 -13.186   5.930  1.00  0.00    -0.325 OA
HETATM    7  C   UNL     1      43.132 -13.464   4.881  1.00  0.00     0.213 C 
ENDBRANCH   4   6
ENDBRANCH   3   4
BRANCH   3   8
HETATM    8  C   UNL     1      39.727 -14.048   3.542  1.00  0.00     0.068 C 
BRANCH   8   9
HETATM    9  C   UNL     1      40.132 -13.864   2.097  1.00  0.00    -0.056 A 
HETATM   10  C   UNL     1      41.335 -13.213   1.779  1.00  0.00     0.010 A 
HETATM   11  C   UNL     1      41.702 -13.009   0.447  1.00  0.00     0.037 A 
HETATM   12  C   UNL     1      40.863 -13.452  -0.567  1.00  0.00     0.065 A 
HETATM   13  C   UNL     1      39.668 -14.098  -0.272  1.00  0.00     0.037 A 
HETATM   14  C   UNL     1      39.302 -14.306   1.059  1.00  0.00     0.010 A 
BRANCH  12  15
HETATM   15  O   UNL     1      41.179 -13.274  -1.880  1.00  0.00    -0.361 OA
HETATM   16  H   UNL     1      40.780 -13.990  -2.403  1.00  0.00     0.217 HD
ENDBRANCH  12  15
ENDBRANCH   8   9
ENDBRANCH   3   8
ENDBRANCH   1   3
BRANCH   1  17
HETATM   17  C   UNL     1      41.962 -16.750   4.483  1.00  0.00     0.034 A 
HETATM   18  C   UNL     1      42.674 -17.177   5.637  1.00  0.00     0.013 A 
HETATM   19  C   UNL     1      43.855 -17.924   5.467  1.00  0.00     0.044 A 
HETATM   20  C   UNL     1      42.264 -16.904   6.960  1.00  0.00     0.015 A 
HETATM   21  C   UNL     1      44.587 -18.385   6.574  1.00  0.00     0.030 A 
HETATM   22  N   UNL     1      44.283 -18.202   4.227  1.00  0.00    -0.355 N 
HETATM   23  C   UNL     1      44.153 -18.107   7.868  1.00  0.00     0.002 A 
HETATM   24  C   UNL     1      42.993 -17.364   8.061  1.00  0.00     0.001 A 
HETATM   25  H   UNL     1      45.144 -18.734   4.132  1.00  0.00     0.166 HD
HETATM   26  C   UNL     1      43.640 -17.839   3.104  1.00  0.00     0.044 A 
HETATM   27  C   UNL     1      42.435 -17.109   3.192  1.00  0.00     0.013 A 
HETATM   28  C   UNL     1      44.178 -18.202   1.858  1.00  0.00     0.030 A 
HETATM   29  C   UNL     1      41.780 -16.798   1.977  1.00  0.00     0.015 A 
HETATM   30  C   UNL     1      42.321 -17.161   0.741  1.00  0.00     0.001 A 
HETATM   31  C   UNL     1      43.522 -17.857   0.680  1.00  0.00     0.002 A 
ENDBRANCH   1  17
TORSDOF 7
ENDMDL
MODEL 10
REMARK VINA RESULT:      -7.4      2.600      5.821
REMARK  7 active torsions:
REMARK  status: ('A' for Active; 'I' for Inactive)
REMARK    1  A    between atoms: O_2  and  C_3 
REMARK    2  A    between atoms: C_3  and  C_4 
REMARK    3  A    between atoms: C_4  and  N_5 
REMARK    4  A    between atoms: C_4  and  C_21 
REMARK    5  A    between atoms: N_5  and  C_6 
REMARK    6  A    between atoms: C_21  and  C_22 
REMARK    7  A    between atoms: C_25  and  O_26 
ROOT
HETATM    1  N   UNL     1      43.311 -14.336   3.403  1.00  0.00    -0.277 NA
HETATM    2  H   UNL     1      44.290 -14.550   3.601  1.00  0.00     0.128 HD
ENDROOT
BRANCH   1   3
HETATM    3  C   UNL     1      42.552 -14.302   4.699  1.00  0.00     0.164 C 
BRANCH   3   4
HETATM    4  C   UNL     1      41.726 -13.021   4.900  1.00  0.00     0.276 C 
HETATM    5  O   UNL     1      42.089 -11.887   4.615  1.00  0.00    -0.263 OA
BRANCH   4   6
HETATM    6  O   UNL     1      40.497 -13.335   5.409  1.00  0.00    -0.325 OA
HETATM    7  C   UNL     1      39.857 -14.438   4.765  1.00  0.00     0.213 C 
ENDBRANCH   4   6
ENDBRANCH   3   4
BRANCH   3   8
HETATM    8  C   UNL     1      43.553 -14.438   5.863  1.00  0.00     0.068 C 
BRANCH   8   9
HETATM    9  C   UNL     1      43.582 -15.843   6.420  1.00  0.00    -0.056 A 
HETATM   10  C   UNL     1      42.384 -16.488   6.767  1.00  0.00     0.010 A 
HETATM   11  C   UNL     1      42.402 -17.773   7.313  1.00  0.00     0.037 A 
HETATM   12  C   UNL     1      43.619 -18.411   7.515  1.00  0.00     0.065 A 
HETATM   13  C   UNL     1      44.814 -17.789   7.178  1.00  0.00     0.037 A 
HETATM   14  C   UNL     1      44.798 -16.505   6.629  1.00  0.00     0.010 A 
BRANCH  12  15
HETATM   15  O   UNL     1      43.685 -19.665   8.046  1.00  0.00    -0.361 OA
HETATM   16  H   UNL     1      43.906 -19.598   8.990  1.00  0.00     0.217 HD
ENDBRANCH  12  15
ENDBRANCH   8   9
ENDBRANCH   3   8
ENDBRANCH   1   3
BRANCH   1  17
HETATM   17  C   UNL     1      42.817 -15.195   2.392  1.00  0.00     0.034 A 
HETATM   18  C   UNL     1      42.100 -14.609   1.313  1.00  0.00     0.013 A 
HETATM   19  C   UNL     1      41.570 -15.448   0.315  1.00  0.00     0.044 A 
HETATM   20  C   UNL     1      41.888 -13.220   1.172  1.00  0.00     0.015 A 
HETATM   21  C   UNL     1      40.867 -14.919  -0.780  1.00  0.00     0.030 A 
HETATM   22  N   UNL     1      41.744 -16.775   0.413  1.00  0.00    -0.355 N 
HETATM   23  C   UNL     1      40.682 -13.543  -0.896  1.00  0.00     0.002 A 
HETATM   24  C   UNL     1      41.190 -12.694   0.081  1.00  0.00     0.001 A 
HETATM   25  H   UNL     1      41.341 -17.359  -0.315  1.00  0.00     0.166 HD
HETATM   26  C   UNL     1      42.427 -17.379   1.400  1.00  0.00     0.044 A 
HETATM   27  C   UNL     1      43.011 -16.602   2.425  1.00  0.00     0.013 A 
HETATM   28  C   UNL     1      42.556 -18.778   1.387  1.00  0.00     0.030 A 
HETATM   29  C   UNL     1      43.759 -17.292   3.408  1.00  0.00     0.015 A 
HETATM   30  C   UNL     1      43.882 -18.684   3.391  1.00  0.00     0.001 A 
HETATM   31  C   UNL     1      43.277 -19.427   2.386  1.00  0.00     0.002 A 
ENDBRANCH   1  17
TORSDOF 7
ENDMDL
