MODEL 1
REMARK VINA RESULT:      -8.2      0.000      0.000
REMARK  13 active torsions:
REMARK  status: ('A' for Active; 'I' for Inactive)
REMARK    1  A    between atoms: O_2  and  C_3 
REMARK    2  A    between atoms: C_6  and  C_7 
REMARK    3  A    between atoms: C_7  and  C_8 
REMARK    4  A    between atoms: C_9  and  C_10 
REMARK    5  A    between atoms: N_17  and  C_18 
REMARK    6  A    between atoms: C_18  and  C_19 
REMARK    7  A    between atoms: C_19  and  O_20 
REMARK    8  A    between atoms: C_19  and  C_21 
REMARK    9  A    between atoms: C_21  and  N_22 
REMARK   10  A    between atoms: N_22  and  C_25 
REMARK   11  A    between atoms: C_25  and  C_26 
REMARK   12  A    between atoms: C_26  and  C_27 
REMARK   13  A    between atoms: C_32  and  O_33 
ROOT
HETATM    1  C   UNL     1      40.905 -15.594  -3.506  1.00  0.00     0.162 C 
ENDROOT
BRANCH   1   2
HETATM    2  N   UNL     1      41.263 -15.064  -2.199  1.00  0.00    -0.353 N 
HETATM    3  C   UNL     1      41.586 -13.753  -1.917  1.00  0.00     0.045 A 
HETATM    4  C   UNL     1      41.727 -13.661  -0.526  1.00  0.00     0.002 A 
HETATM    5  C   UNL     1      41.756 -12.638  -2.755  1.00  0.00     0.030 A 
HETATM    6  C   UNL     1      41.565 -14.980   0.002  1.00  0.00    -0.008 A 
HETATM    7  C   UNL     1      41.984 -12.390   0.038  1.00  0.00     0.014 A 
HETATM    8  C   UNL     1      41.258 -15.813  -1.051  1.00  0.00     0.103 A 
HETATM    9  C   UNL     1      42.138 -11.275  -0.790  1.00  0.00     0.001 A 
HETATM   10  C   UNL     1      42.036 -11.402  -2.169  1.00  0.00     0.002 A 
BRANCH   6  11
HETATM   11  C   UNL     1      41.680 -15.447   1.347  1.00  0.00     0.018 C 
HETATM   12  C   UNL     1      41.136 -16.584   1.813  1.00  0.00     0.056 C 
BRANCH  12  13
HETATM   13  C   UNL     1      41.332 -16.986   3.231  1.00  0.00     0.182 C 
HETATM   14  O   UNL     1      40.652 -16.485   4.123  1.00  0.00    -0.288 OA
BRANCH  13  15
HETATM   15  C   UNL     1      42.411 -17.967   3.564  1.00  0.00     0.014 A 
HETATM   16  C   UNL     1      42.888 -18.192   4.863  1.00  0.00     0.018 A 
HETATM   17  C   UNL     1      43.858 -19.176   5.109  1.00  0.00     0.037 A 
HETATM   18  C   UNL     1      44.369 -19.940   4.061  1.00  0.00     0.068 A 
HETATM   19  C   UNL     1      43.929 -19.689   2.761  1.00  0.00     0.037 A 
HETATM   20  C   UNL     1      42.957 -18.714   2.513  1.00  0.00     0.018 A 
BRANCH  18  21
HETATM   21  O   UNL     1      45.298 -20.935   4.177  1.00  0.00    -0.356 OA
HETATM   22  C   UNL     1      44.987 -22.000   5.069  1.00  0.00     0.210 C 
ENDBRANCH  18  21
ENDBRANCH  13  15
ENDBRANCH  12  13
ENDBRANCH   6  11
ENDBRANCH   1   2
BRANCH   1  23
HETATM   23  C   UNL     1      39.402 -15.881  -3.686  1.00  0.00     0.162 C 
BRANCH  23  24
HETATM   24  O   UNL     1      39.088 -16.437  -4.979  1.00  0.00    -0.392 OA
HETATM   25  H   UNL     1      39.319 -15.774  -5.661  1.00  0.00     0.210 HD
ENDBRANCH  23  24
BRANCH  23  26
HETATM   26  C   UNL     1      38.487 -14.657  -3.486  1.00  0.00     0.265 C 
BRANCH  26  27
HETATM   27  N   UNL     1      37.884 -14.766  -2.107  1.00  0.00    -0.072 N 
HETATM   28  H   UNL     1      36.880 -14.975  -2.259  1.00  0.00     0.277 HD
HETATM   29  H   UNL     1      38.248 -15.608  -1.647  1.00  0.00     0.277 HD
BRANCH  27  30
HETATM   30  C   UNL     1      38.068 -13.597  -1.199  1.00  0.00     0.237 C 
BRANCH  30  31
HETATM   31  C   UNL     1      37.949 -13.980   0.277  1.00  0.00     0.068 C 
BRANCH  31  32
HETATM   32  C   UNL     1      37.833 -12.762   1.134  1.00  0.00    -0.029 A 
HETATM   33  C   UNL     1      38.626 -12.460   2.287  1.00  0.00     0.001 A 
HETATM   34  C   UNL     1      38.163 -11.254   2.808  1.00  0.00     0.043 A 
HETATM   35  C   UNL     1      39.691 -13.108   2.944  1.00  0.00     0.051 A 
HETATM   36  C   UNL     1      38.708 -10.671   3.958  1.00  0.00     0.033 A 
HETATM   37  N   UNL     1      37.148 -10.819   1.988  1.00  0.00    -0.365 N 
HETATM   38  C   UNL     1      39.759 -11.342   4.597  1.00  0.00     0.039 A 
HETATM   39  C   UNL     1      40.253 -12.545   4.099  1.00  0.00     0.069 A 
HETATM   40  H   UNL     1      36.639  -9.953   2.118  1.00  0.00     0.165 HD
HETATM   41  C   UNL     1      36.935 -11.725   0.981  1.00  0.00     0.096 A 
BRANCH  39  42
HETATM   42  O   UNL     1      41.270 -13.285   4.641  1.00  0.00    -0.356 OA
HETATM   43  C   UNL     1      42.582 -13.033   4.146  1.00  0.00     0.210 C 
ENDBRANCH  39  42
ENDBRANCH  31  32
ENDBRANCH  30  31
ENDBRANCH  27  30
ENDBRANCH  26  27
ENDBRANCH  23  26
ENDBRANCH   1  23
TORSDOF 13
ENDMDL
MODEL 2
REMARK VINA RESULT:      -8.0      1.450      2.013
REMARK  13 active torsions:
REMARK  status: ('A' for Active; 'I' for Inactive)
REMARK    1  A    between atoms: O_2  and  C_3 
REMARK    2  A    between atoms: C_6  and  C_7 
REMARK    3  A    between atoms: C_7  and  C_8 
REMARK    4  A    between atoms: C_9  and  C_10 
REMARK    5  A    between atoms: N_17  and  C_18 
REMARK    6  A    between atoms: C_18  and  C_19 
REMARK    7  A    between atoms: C_19  and  O_20 
REMARK    8  A    between atoms: C_19  and  C_21 
REMARK    9  A    between atoms: C_21  and  N_22 
REMARK   10  A    between atoms: N_22  and  C_25 
REMARK   11  A    between atoms: C_25  and  C_26 
REMARK   12  A    between atoms: C_26  and  C_27 
REMARK   13  A    between atoms: C_32  and  O_33 
ROOT
HETATM    1  C   UNL     1      40.578 -15.165  -3.886  1.00  0.00     0.162 C 
ENDROOT
BRANCH   1   2
HETATM    2  N   UNL     1      41.152 -14.723  -2.625  1.00  0.00    -0.353 N 
HETATM    3  C   UNL     1      41.671 -13.472  -2.363  1.00  0.00     0.045 A 
HETATM    4  C   UNL     1      41.986 -13.440  -0.998  1.00  0.00     0.002 A 
HETATM    5  C   UNL     1      41.881 -12.362  -3.199  1.00  0.00     0.030 A 
HETATM    6  C   UNL     1      41.721 -14.744  -0.475  1.00  0.00    -0.008 A 
HETATM    7  C   UNL     1      42.467 -12.229  -0.451  1.00  0.00     0.014 A 
HETATM    8  C   UNL     1      41.188 -15.501  -1.496  1.00  0.00     0.103 A 
HETATM    9  C   UNL     1      42.662 -11.117  -1.275  1.00  0.00     0.001 A 
HETATM   10  C   UNL     1      42.383 -11.189  -2.632  1.00  0.00     0.002 A 
BRANCH   6  11
HETATM   11  C   UNL     1      41.934 -15.262   0.839  1.00  0.00     0.018 C 
HETATM   12  C   UNL     1      42.012 -16.568   1.144  1.00  0.00     0.056 C 
BRANCH  12  13
HETATM   13  C   UNL     1      42.254 -16.999   2.547  1.00  0.00     0.182 C 
HETATM   14  O   UNL     1      41.940 -16.275   3.488  1.00  0.00    -0.288 OA
BRANCH  13  15
HETATM   15  C   UNL     1      42.941 -18.305   2.796  1.00  0.00     0.014 A 
HETATM   16  C   UNL     1      43.099 -19.303   1.825  1.00  0.00     0.018 A 
HETATM   17  C   UNL     1      43.811 -20.476   2.114  1.00  0.00     0.037 A 
HETATM   18  C   UNL     1      44.367 -20.671   3.377  1.00  0.00     0.068 A 
HETATM   19  C   UNL     1      44.175 -19.700   4.360  1.00  0.00     0.037 A 
HETATM   20  C   UNL     1      43.472 -18.526   4.073  1.00  0.00     0.018 A 
BRANCH  18  21
HETATM   21  O   UNL     1      45.095 -21.758   3.771  1.00  0.00    -0.356 OA
HETATM   22  C   UNL     1      44.838 -22.261   5.077  1.00  0.00     0.210 C 
ENDBRANCH  18  21
ENDBRANCH  13  15
ENDBRANCH  12  13
ENDBRANCH   6  11
ENDBRANCH   1   2
BRANCH   1  23
HETATM   23  C   UNL     1      39.193 -15.826  -3.757  1.00  0.00     0.162 C 
BRANCH  23  24
HETATM   24  O   UNL     1      38.857 -16.651  -4.891  1.00  0.00    -0.392 OA
HETATM   25  H   UNL     1      39.047 -17.582  -4.659  1.00  0.00     0.210 HD
ENDBRANCH  23  24
BRANCH  23  26
HETATM   26  C   UNL     1      38.027 -14.838  -3.556  1.00  0.00     0.265 C 
BRANCH  26  27
HETATM   27  N   UNL     1      37.739 -14.776  -2.076  1.00  0.00    -0.072 N 
HETATM   28  H   UNL     1      36.721 -14.942  -1.984  1.00  0.00     0.277 HD
HETATM   29  H   UNL     1      38.168 -15.589  -1.616  1.00  0.00     0.277 HD
BRANCH  27  30
HETATM   30  C   UNL     1      38.159 -13.536  -1.361  1.00  0.00     0.237 C 
BRANCH  30  31
HETATM   31  C   UNL     1      37.401 -13.333  -0.048  1.00  0.00     0.068 C 
BRANCH  31  32
HETATM   32  C   UNL     1      38.261 -13.687   1.120  1.00  0.00    -0.029 A 
HETATM   33  C   UNL     1      39.166 -12.811   1.801  1.00  0.00     0.001 A 
HETATM   34  C   UNL     1      39.793 -13.552   2.800  1.00  0.00     0.043 A 
HETATM   35  C   UNL     1      39.520 -11.455   1.653  1.00  0.00     0.051 A 
HETATM   36  C   UNL     1      40.761 -13.005   3.649  1.00  0.00     0.033 A 
HETATM   37  N   UNL     1      39.269 -14.823   2.754  1.00  0.00    -0.365 N 
HETATM   38  C   UNL     1      41.101 -11.657   3.473  1.00  0.00     0.039 A 
HETATM   39  C   UNL     1      40.488 -10.883   2.490  1.00  0.00     0.069 A 
HETATM   40  H   UNL     1      39.529 -15.572   3.383  1.00  0.00     0.165 HD
HETATM   41  C   UNL     1      38.351 -14.918   1.739  1.00  0.00     0.096 A 
BRANCH  39  42
HETATM   42  O   UNL     1      40.742  -9.564   2.227  1.00  0.00    -0.356 OA
HETATM   43  C   UNL     1      39.868  -8.911   1.312  1.00  0.00     0.210 C 
ENDBRANCH  39  42
ENDBRANCH  31  32
ENDBRANCH  30  31
ENDBRANCH  27  30
ENDBRANCH  26  27
ENDBRANCH  23  26
ENDBRANCH   1  23
TORSDOF 13
ENDMDL
MODEL 3
REMARK VINA RESULT:      -7.9      1.966      3.383
REMARK  13 active torsions:
REMARK  status: ('A' for Active; 'I' for Inactive)
REMARK    1  A    between atoms: O_2  and  C_3 
REMARK    2  A    between atoms: C_6  and  C_7 
REMARK    3  A    between atoms: C_7  and  C_8 
REMARK    4  A    between atoms: C_9  and  C_10 
REMARK    5  A    between atoms: N_17  and  C_18 
REMARK    6  A    between atoms: C_18  and  C_19 
REMARK    7  A    between atoms: C_19  and  O_20 
REMARK    8  A    between atoms: C_19  and  C_21 
REMARK    9  A    between atoms: C_21  and  N_22 
REMARK   10  A    between atoms: N_22  and  C_25 
REMARK   11  A    between atoms: C_25  and  C_26 
REMARK   12  A    between atoms: C_26  and  C_27 
REMARK   13  A    between atoms: C_32  and  O_33 
ROOT
HETATM    1  C   UNL     1      40.165 -14.597  -2.584  1.00  0.00     0.162 C 
ENDROOT
BRANCH   1   2
HETATM    2  N   UNL     1      40.448 -14.961  -1.204  1.00  0.00    -0.353 N 
HETATM    3  C   UNL     1      39.775 -14.502  -0.091  1.00  0.00     0.045 A 
HETATM    4  C   UNL     1      40.282 -15.207   1.009  1.00  0.00     0.002 A 
HETATM    5  C   UNL     1      38.761 -13.540   0.049  1.00  0.00     0.030 A 
HETATM    6  C   UNL     1      41.340 -16.037   0.524  1.00  0.00    -0.008 A 
HETATM    7  C   UNL     1      39.700 -14.979   2.276  1.00  0.00     0.014 A 
HETATM    8  C   UNL     1      41.400 -15.878  -0.843  1.00  0.00     0.103 A 
HETATM    9  C   UNL     1      38.679 -14.035   2.418  1.00  0.00     0.001 A 
HETATM   10  C   UNL     1      38.225 -13.318   1.320  1.00  0.00     0.002 A 
BRANCH   6  11
HETATM   11  C   UNL     1      42.225 -16.901   1.240  1.00  0.00     0.018 C 
HETATM   12  C   UNL     1      41.971 -18.188   1.531  1.00  0.00     0.056 C 
BRANCH  12  13
HETATM   13  C   UNL     1      42.972 -19.004   2.268  1.00  0.00     0.182 C 
HETATM   14  O   UNL     1      43.592 -19.899   1.698  1.00  0.00    -0.288 OA
BRANCH  13  15
HETATM   15  C   UNL     1      43.173 -18.760   3.730  1.00  0.00     0.014 A 
HETATM   16  C   UNL     1      42.247 -18.095   4.546  1.00  0.00     0.018 A 
HETATM   17  C   UNL     1      42.474 -17.959   5.923  1.00  0.00     0.037 A 
HETATM   18  C   UNL     1      43.632 -18.478   6.502  1.00  0.00     0.068 A 
HETATM   19  C   UNL     1      44.577 -19.102   5.686  1.00  0.00     0.037 A 
HETATM   20  C   UNL     1      44.350 -19.245   4.314  1.00  0.00     0.018 A 
BRANCH  18  21
HETATM   21  O   UNL     1      43.955 -18.426   7.828  1.00  0.00    -0.356 OA
HETATM   22  C   UNL     1      43.441 -17.325   8.569  1.00  0.00     0.210 C 
ENDBRANCH  18  21
ENDBRANCH  13  15
ENDBRANCH  12  13
ENDBRANCH   6  11
ENDBRANCH   1   2
BRANCH   1  23
HETATM   23  C   UNL     1      41.391 -14.097  -3.373  1.00  0.00     0.162 C 
BRANCH  23  24
HETATM   24  O   UNL     1      42.309 -15.156  -3.713  1.00  0.00    -0.392 OA
HETATM   25  H   UNL     1      42.688 -14.962  -4.594  1.00  0.00     0.210 HD
ENDBRANCH  23  24
BRANCH  23  26
HETATM   26  C   UNL     1      42.209 -13.002  -2.662  1.00  0.00     0.265 C 
BRANCH  26  27
HETATM   27  N   UNL     1      41.294 -11.819  -2.457  1.00  0.00    -0.072 N 
HETATM   28  H   UNL     1      41.409 -11.230  -3.301  1.00  0.00     0.277 HD
HETATM   29  H   UNL     1      40.318 -12.136  -2.505  1.00  0.00     0.277 HD
BRANCH  27  30
HETATM   30  C   UNL     1      41.488 -11.029  -1.206  1.00  0.00     0.237 C 
BRANCH  30  31
HETATM   31  C   UNL     1      42.106 -11.859  -0.081  1.00  0.00     0.068 C 
BRANCH  31  32
HETATM   32  C   UNL     1      41.529 -11.475   1.242  1.00  0.00    -0.029 A 
HETATM   33  C   UNL     1      41.823 -12.085   2.503  1.00  0.00     0.001 A 
HETATM   34  C   UNL     1      41.042 -11.451   3.467  1.00  0.00     0.043 A 
HETATM   35  C   UNL     1      42.675 -13.130   2.915  1.00  0.00     0.051 A 
HETATM   36  C   UNL     1      41.066 -11.817   4.817  1.00  0.00     0.033 A 
HETATM   37  N   UNL     1      40.323 -10.469   2.826  1.00  0.00    -0.365 N 
HETATM   38  C   UNL     1      41.915 -12.866   5.196  1.00  0.00     0.039 A 
HETATM   39  C   UNL     1      42.716 -13.517   4.262  1.00  0.00     0.069 A 
HETATM   40  H   UNL     1      39.684  -9.835   3.287  1.00  0.00     0.165 HD
HETATM   41  C   UNL     1      40.602 -10.481   1.483  1.00  0.00     0.096 A 
BRANCH  39  42
HETATM   42  O   UNL     1      43.577 -14.551   4.518  1.00  0.00    -0.356 OA
HETATM   43  C   UNL     1      43.953 -14.751   5.877  1.00  0.00     0.210 C 
ENDBRANCH  39  42
ENDBRANCH  31  32
ENDBRANCH  30  31
ENDBRANCH  27  30
ENDBRANCH  26  27
ENDBRANCH  23  26
ENDBRANCH   1  23
TORSDOF 13
ENDMDL
MODEL 4
REMARK VINA RESULT:      -7.8      1.679      2.972
REMARK  13 active torsions:
REMARK  status: ('A' for Active; 'I' for Inactive)
REMARK    1  A    between atoms: O_2  and  C_3 
REMARK    2  A    between atoms: C_6  and  C_7 
REMARK    3  A    between atoms: C_7  and  C_8 
REMARK    4  A    between atoms: C_9  and  C_10 
REMARK    5  A    between atoms: N_17  and  C_18 
REMARK    6  A    between atoms: C_18  and  C_19 
REMARK    7  A    between atoms: C_19  and  O_20 
REMARK    8  A    between atoms: C_19  and  C_21 
REMARK    9  A    between atoms: C_21  and  N_22 
REMARK   10  A    between atoms: N_22  and  C_25 
REMARK   11  A    between atoms: C_25  and  C_26 
REMARK   12  A    between atoms: C_26  and  C_27 
REMARK   13  A    between atoms: C_32  and  O_33 
ROOT
HETATM    1  C   UNL     1      40.809 -14.378  -2.974  1.00  0.00     0.162 C 
ENDROOT
BRANCH   1   2
HETATM    2  N   UNL     1      40.578 -14.509  -1.544  1.00  0.00    -0.353 N 
HETATM    3  C   UNL     1      39.473 -14.053  -0.855  1.00  0.00     0.045 A 
HETATM    4  C   UNL     1      39.600 -14.508   0.464  1.00  0.00     0.002 A 
HETATM    5  C   UNL     1      38.368 -13.292  -1.274  1.00  0.00     0.030 A 
HETATM    6  C   UNL     1      40.861 -15.175   0.559  1.00  0.00    -0.008 A 
HETATM    7  C   UNL     1      38.547 -14.240   1.368  1.00  0.00     0.014 A 
HETATM    8  C   UNL     1      41.425 -15.177  -0.698  1.00  0.00     0.103 A 
HETATM    9  C   UNL     1      37.438 -13.497   0.952  1.00  0.00     0.001 A 
HETATM   10  C   UNL     1      37.358 -13.021  -0.348  1.00  0.00     0.002 A 
BRANCH   6  11
HETATM   11  C   UNL     1      41.502 -15.759   1.694  1.00  0.00     0.018 C 
HETATM   12  C   UNL     1      42.740 -16.282   1.689  1.00  0.00     0.056 C 
BRANCH  12  13
HETATM   13  C   UNL     1      43.321 -16.851   2.934  1.00  0.00     0.182 C 
HETATM   14  O   UNL     1      43.596 -16.124   3.886  1.00  0.00    -0.288 OA
BRANCH  13  15
HETATM   15  C   UNL     1      43.620 -18.316   2.992  1.00  0.00     0.014 A 
HETATM   16  C   UNL     1      43.549 -19.172   1.885  1.00  0.00     0.018 A 
HETATM   17  C   UNL     1      43.907 -20.523   2.001  1.00  0.00     0.037 A 
HETATM   18  C   UNL     1      44.331 -21.038   3.225  1.00  0.00     0.068 A 
HETATM   19  C   UNL     1      44.360 -20.200   4.340  1.00  0.00     0.037 A 
HETATM   20  C   UNL     1      44.011 -18.850   4.226  1.00  0.00     0.018 A 
BRANCH  18  21
HETATM   21  O   UNL     1      44.721 -22.326   3.459  1.00  0.00    -0.356 OA
HETATM   22  C   UNL     1      45.094 -22.649   4.794  1.00  0.00     0.210 C 
ENDBRANCH  18  21
ENDBRANCH  13  15
ENDBRANCH  12  13
ENDBRANCH   6  11
ENDBRANCH   1   2
BRANCH   1  23
HETATM   23  C   UNL     1      41.811 -13.273  -3.357  1.00  0.00     0.162 C 
BRANCH  23  24
HETATM   24  O   UNL     1      43.182 -13.651  -3.116  1.00  0.00    -0.392 OA
HETATM   25  H   UNL     1      43.499 -14.159  -3.889  1.00  0.00     0.210 HD
ENDBRANCH  23  24
BRANCH  23  26
HETATM   26  C   UNL     1      41.583 -11.924  -2.647  1.00  0.00     0.265 C 
BRANCH  26  27
HETATM   27  N   UNL     1      42.847 -11.593  -1.893  1.00  0.00    -0.072 N 
HETATM   28  H   UNL     1      43.331 -12.498  -1.751  1.00  0.00     0.277 HD
HETATM   29  H   UNL     1      43.478 -11.067  -2.510  1.00  0.00     0.277 HD
BRANCH  27  30
HETATM   30  C   UNL     1      42.689 -10.848  -0.610  1.00  0.00     0.237 C 
BRANCH  30  31
HETATM   31  C   UNL     1      42.114 -11.722   0.505  1.00  0.00     0.068 C 
BRANCH  31  32
HETATM   32  C   UNL     1      40.850 -11.135   1.042  1.00  0.00    -0.029 A 
HETATM   33  C   UNL     1      40.305 -11.351   2.348  1.00  0.00     0.001 A 
HETATM   34  C   UNL     1      39.102 -10.651   2.420  1.00  0.00     0.043 A 
HETATM   35  C   UNL     1      40.719 -12.086   3.477  1.00  0.00     0.051 A 
HETATM   36  C   UNL     1      38.291 -10.662   3.560  1.00  0.00     0.033 A 
HETATM   37  N   UNL     1      38.934 -10.008   1.216  1.00  0.00    -0.365 N 
HETATM   38  C   UNL     1      38.722 -11.410   4.663  1.00  0.00     0.039 A 
HETATM   39  C   UNL     1      39.923 -12.114   4.631  1.00  0.00     0.069 A 
HETATM   40  H   UNL     1      38.150  -9.407   0.993  1.00  0.00     0.165 HD
HETATM   41  C   UNL     1      39.977 -10.300   0.375  1.00  0.00     0.096 A 
BRANCH  39  42
HETATM   42  O   UNL     1      40.439 -12.876   5.645  1.00  0.00    -0.356 OA
HETATM   43  C   UNL     1      41.489 -13.775   5.302  1.00  0.00     0.210 C 
ENDBRANCH  39  42
ENDBRANCH  31  32
ENDBRANCH  30  31
ENDBRANCH  27  30
ENDBRANCH  26  27
ENDBRANCH  23  26
ENDBRANCH   1  23
TORSDOF 13
ENDMDL
MODEL 5
REMARK VINA RESULT:      -7.7      2.964      8.051
REMARK  13 active torsions:
REMARK  status: ('A' for Active; 'I' for Inactive)
REMARK    1  A    between atoms: O_2  and  C_3 
REMARK    2  A    between atoms: C_6  and  C_7 
REMARK    3  A    between atoms: C_7  and  C_8 
REMARK    4  A    between atoms: C_9  and  C_10 
REMARK    5  A    between atoms: N_17  and  C_18 
REMARK    6  A    between atoms: C_18  and  C_19 
REMARK    7  A    between atoms: C_19  and  O_20 
REMARK    8  A    between atoms: C_19  and  C_21 
REMARK    9  A    between atoms: C_21  and  N_22 
REMARK   10  A    between atoms: N_22  and  C_25 
REMARK   11  A    between atoms: C_25  and  C_26 
REMARK   12  A    between atoms: C_26  and  C_27 
REMARK   13  A    between atoms: C_32  and  O_33 
ROOT
HETATM    1  C   UNL     1      42.163 -17.568   6.351  1.00  0.00     0.162 C 
ENDROOT
BRANCH   1   2
HETATM    2  N   UNL     1      42.397 -17.759   4.928  1.00  0.00    -0.353 N 
HETATM    3  C   UNL     1      43.253 -18.683   4.364  1.00  0.00     0.045 A 
HETATM    4  C   UNL     1      43.067 -18.614   2.977  1.00  0.00     0.002 A 
HETATM    5  C   UNL     1      44.165 -19.579   4.946  1.00  0.00     0.030 A 
HETATM    6  C   UNL     1      42.137 -17.557   2.730  1.00  0.00    -0.008 A 
HETATM    7  C   UNL     1      43.777 -19.524   2.161  1.00  0.00     0.014 A 
HETATM    8  C   UNL     1      41.728 -17.069   3.951  1.00  0.00     0.103 A 
HETATM    9  C   UNL     1      44.672 -20.430   2.736  1.00  0.00     0.001 A 
HETATM   10  C   UNL     1      44.871 -20.447   4.109  1.00  0.00     0.002 A 
BRANCH   6  11
HETATM   11  C   UNL     1      41.659 -17.032   1.490  1.00  0.00     0.018 C 
HETATM   12  C   UNL     1      41.066 -15.835   1.343  1.00  0.00     0.056 C 
BRANCH  12  13
HETATM   13  C   UNL     1      40.621 -15.376   0.000  1.00  0.00     0.182 C 
HETATM   14  O   UNL     1      41.215 -15.737  -1.013  1.00  0.00    -0.288 OA
BRANCH  13  15
HETATM   15  C   UNL     1      39.473 -14.421  -0.097  1.00  0.00     0.014 A 
HETATM   16  C   UNL     1      38.533 -14.223   0.924  1.00  0.00     0.018 A 
HETATM   17  C   UNL     1      37.520 -13.262   0.787  1.00  0.00     0.037 A 
HETATM   18  C   UNL     1      37.428 -12.494  -0.373  1.00  0.00     0.068 A 
HETATM   19  C   UNL     1      38.335 -12.719  -1.409  1.00  0.00     0.037 A 
HETATM   20  C   UNL     1      39.350 -13.671  -1.273  1.00  0.00     0.018 A 
BRANCH  18  21
HETATM   21  O   UNL     1      36.502 -11.520  -0.615  1.00  0.00    -0.356 OA
HETATM   22  C   UNL     1      36.996 -10.270  -1.085  1.00  0.00     0.210 C 
ENDBRANCH  18  21
ENDBRANCH  13  15
ENDBRANCH  12  13
ENDBRANCH   6  11
ENDBRANCH   1   2
BRANCH   1  23
HETATM   23  C   UNL     1      43.433 -17.261   7.168  1.00  0.00     0.162 C 
BRANCH  23  24
HETATM   24  O   UNL     1      43.319 -17.657   8.550  1.00  0.00    -0.392 OA
HETATM   25  H   UNL     1      43.493 -16.872   9.109  1.00  0.00     0.210 HD
ENDBRANCH  23  24
BRANCH  23  26
HETATM   26  C   UNL     1      43.862 -15.781   7.156  1.00  0.00     0.265 C 
BRANCH  26  27
HETATM   27  N   UNL     1      42.668 -14.969   6.718  1.00  0.00    -0.072 N 
HETATM   28  H   UNL     1      42.047 -15.635   6.222  1.00  0.00     0.277 HD
HETATM   29  H   UNL     1      42.127 -14.694   7.547  1.00  0.00     0.277 HD
BRANCH  27  30
HETATM   30  C   UNL     1      42.945 -13.757   5.893  1.00  0.00     0.237 C 
BRANCH  30  31
HETATM   31  C   UNL     1      42.634 -13.977   4.412  1.00  0.00     0.068 C 
BRANCH  31  32
HETATM   32  C   UNL     1      41.572 -13.035   3.947  1.00  0.00    -0.029 A 
HETATM   33  C   UNL     1      41.517 -12.384   2.674  1.00  0.00     0.001 A 
HETATM   34  C   UNL     1      40.388 -11.567   2.670  1.00  0.00     0.043 A 
HETATM   35  C   UNL     1      42.331 -12.404   1.523  1.00  0.00     0.051 A 
HETATM   36  C   UNL     1      40.042 -10.765   1.577  1.00  0.00     0.033 A 
HETATM   37  N   UNL     1      39.760 -11.736   3.882  1.00  0.00    -0.365 N 
HETATM   38  C   UNL     1      40.874 -10.797   0.451  1.00  0.00     0.039 A 
HETATM   39  C   UNL     1      42.006 -11.609   0.415  1.00  0.00     0.069 A 
HETATM   40  H   UNL     1      38.899 -11.277   4.149  1.00  0.00     0.165 HD
HETATM   41  C   UNL     1      40.470 -12.612   4.662  1.00  0.00     0.096 A 
BRANCH  39  42
HETATM   42  O   UNL     1      42.888 -11.717  -0.627  1.00  0.00    -0.356 OA
HETATM   43  C   UNL     1      43.304 -10.504  -1.245  1.00  0.00     0.210 C 
ENDBRANCH  39  42
ENDBRANCH  31  32
ENDBRANCH  30  31
ENDBRANCH  27  30
ENDBRANCH  26  27
ENDBRANCH  23  26
ENDBRANCH   1  23
TORSDOF 13
ENDMDL
MODEL 6
REMARK VINA RESULT:      -7.7      4.261      7.051
REMARK  13 active torsions:
REMARK  status: ('A' for Active; 'I' for Inactive)
REMARK    1  A    between atoms: O_2  and  C_3 
REMARK    2  A    between atoms: C_6  and  C_7 
REMARK    3  A    between atoms: C_7  and  C_8 
REMARK    4  A    between atoms: C_9  and  C_10 
REMARK    5  A    between atoms: N_17  and  C_18 
REMARK    6  A    between atoms: C_18  and  C_19 
REMARK    7  A    between atoms: C_19  and  O_20 
REMARK    8  A    between atoms: C_19  and  C_21 
REMARK    9  A    between atoms: C_21  and  N_22 
REMARK   10  A    between atoms: N_22  and  C_25 
REMARK   11  A    between atoms: C_25  and  C_26 
REMARK   12  A    between atoms: C_26  and  C_27 
REMARK   13  A    between atoms: C_32  and  O_33 
ROOT
HETATM    1  C   UNL     1      39.501 -12.320   4.475  1.00  0.00     0.162 C 
ENDROOT
BRANCH   1   2
HETATM    2  N   UNL     1      40.018 -13.679   4.438  1.00  0.00    -0.353 N 
HETATM    3  C   UNL     1      40.094 -14.489   3.324  1.00  0.00     0.045 A 
HETATM    4  C   UNL     1      40.776 -15.650   3.712  1.00  0.00     0.002 A 
HETATM    5  C   UNL     1      39.636 -14.302   2.009  1.00  0.00     0.030 A 
HETATM    6  C   UNL     1      41.025 -15.543   5.115  1.00  0.00    -0.008 A 
HETATM    7  C   UNL     1      41.058 -16.621   2.724  1.00  0.00     0.014 A 
HETATM    8  C   UNL     1      40.567 -14.310   5.525  1.00  0.00     0.103 A 
HETATM    9  C   UNL     1      40.620 -16.432   1.410  1.00  0.00     0.001 A 
HETATM   10  C   UNL     1      39.908 -15.293   1.063  1.00  0.00     0.002 A 
BRANCH   6  11
HETATM   11  C   UNL     1      41.625 -16.480   6.011  1.00  0.00     0.018 C 
HETATM   12  C   UNL     1      42.848 -16.346   6.553  1.00  0.00     0.056 C 
BRANCH  12  13
HETATM   13  C   UNL     1      43.371 -17.375   7.491  1.00  0.00     0.182 C 
HETATM   14  O   UNL     1      43.551 -17.108   8.676  1.00  0.00    -0.288 OA
BRANCH  13  15
HETATM   15  C   UNL     1      43.732 -18.726   6.958  1.00  0.00     0.014 A 
HETATM   16  C   UNL     1      43.538 -19.921   7.664  1.00  0.00     0.018 A 
HETATM   17  C   UNL     1      43.841 -21.157   7.074  1.00  0.00     0.037 A 
HETATM   18  C   UNL     1      44.348 -21.215   5.777  1.00  0.00     0.068 A 
HETATM   19  C   UNL     1      44.585 -20.025   5.088  1.00  0.00     0.037 A 
HETATM   20  C   UNL     1      44.277 -18.791   5.670  1.00  0.00     0.018 A 
BRANCH  18  21
HETATM   21  O   UNL     1      44.663 -22.354   5.091  1.00  0.00    -0.356 OA
HETATM   22  C   UNL     1      44.640 -22.272   3.671  1.00  0.00     0.210 C 
ENDBRANCH  18  21
ENDBRANCH  13  15
ENDBRANCH  12  13
ENDBRANCH   6  11
ENDBRANCH   1   2
BRANCH   1  23
HETATM   23  C   UNL     1      40.580 -11.226   4.372  1.00  0.00     0.162 C 
BRANCH  23  24
HETATM   24  O   UNL     1      41.751 -11.659   3.651  1.00  0.00    -0.392 OA
HETATM   25  H   UNL     1      41.974 -12.565   3.946  1.00  0.00     0.210 HD
ENDBRANCH  23  24
BRANCH  23  26
HETATM   26  C   UNL     1      41.064 -10.672   5.726  1.00  0.00     0.265 C 
BRANCH  26  27
HETATM   27  N   UNL     1      39.908 -10.770   6.692  1.00  0.00    -0.072 N 
HETATM   28  H   UNL     1      39.054 -10.699   6.109  1.00  0.00     0.277 HD
HETATM   29  H   UNL     1      39.871 -11.721   7.076  1.00  0.00     0.277 HD
BRANCH  27  30
HETATM   30  C   UNL     1      39.887  -9.790   7.817  1.00  0.00     0.237 C 
BRANCH  30  31
HETATM   31  C   UNL     1      41.287  -9.297   8.188  1.00  0.00     0.068 C 
BRANCH  31  32
HETATM   32  C   UNL     1      41.658  -9.744   9.564  1.00  0.00    -0.029 A 
HETATM   33  C   UNL     1      42.691 -10.677   9.900  1.00  0.00     0.001 A 
HETATM   34  C   UNL     1      42.674 -10.838  11.284  1.00  0.00     0.043 A 
HETATM   35  C   UNL     1      43.635 -11.410   9.153  1.00  0.00     0.051 A 
HETATM   36  C   UNL     1      43.547 -11.703  11.953  1.00  0.00     0.033 A 
HETATM   37  N   UNL     1      41.691 -10.012  11.778  1.00  0.00    -0.365 N 
HETATM   38  C   UNL     1      44.469 -12.426  11.184  1.00  0.00     0.039 A 
HETATM   39  C   UNL     1      44.521 -12.283   9.800  1.00  0.00     0.069 A 
HETATM   40  H   UNL     1      41.469  -9.911  12.760  1.00  0.00     0.165 HD
HETATM   41  C   UNL     1      41.067  -9.356  10.749  1.00  0.00     0.096 A 
BRANCH  39  42
HETATM   42  O   UNL     1      45.374 -12.939   8.953  1.00  0.00    -0.356 OA
HETATM   43  C   UNL     1      44.813 -13.455   7.750  1.00  0.00     0.210 C 
ENDBRANCH  39  42
ENDBRANCH  31  32
ENDBRANCH  30  31
ENDBRANCH  27  30
ENDBRANCH  26  27
ENDBRANCH  23  26
ENDBRANCH   1  23
TORSDOF 13
ENDMDL
MODEL 7
REMARK VINA RESULT:      -7.7      4.837      7.808
REMARK  13 active torsions:
REMARK  status: ('A' for Active; 'I' for Inactive)
REMARK    1  A    between atoms: O_2  and  C_3 
REMARK    2  A    between atoms: C_6  and  C_7 
REMARK    3  A    between atoms: C_7  and  C_8 
REMARK    4  A    between atoms: C_9  and  C_10 
REMARK    5  A    between atoms: N_17  and  C_18 
REMARK    6  A    between atoms: C_18  and  C_19 
REMARK    7  A    between atoms: C_19  and  O_20 
REMARK    8  A    between atoms: C_19  and  C_21 
REMARK    9  A    between atoms: C_21  and  N_22 
REMARK   10  A    between atoms: N_22  and  C_25 
REMARK   11  A    between atoms: C_25  and  C_26 
REMARK   12  A    between atoms: C_26  and  C_27 
REMARK   13  A    between atoms: C_32  and  O_33 
ROOT
HETATM    1  C   UNL     1      39.696 -11.659   5.820  1.00  0.00     0.162 C 
ENDROOT
BRANCH   1   2
HETATM    2  N   UNL     1      40.398 -12.777   5.209  1.00  0.00    -0.353 N 
HETATM    3  C   UNL     1      40.177 -13.280   3.944  1.00  0.00     0.045 A 
HETATM    4  C   UNL     1      41.157 -14.256   3.718  1.00  0.00     0.002 A 
HETATM    5  C   UNL     1      39.213 -12.958   2.973  1.00  0.00     0.030 A 
HETATM    6  C   UNL     1      41.912 -14.379   4.925  1.00  0.00    -0.008 A 
HETATM    7  C   UNL     1      41.201 -14.877   2.449  1.00  0.00     0.014 A 
HETATM    8  C   UNL     1      41.434 -13.441   5.813  1.00  0.00     0.103 A 
HETATM    9  C   UNL     1      40.255 -14.548   1.474  1.00  0.00     0.001 A 
HETATM   10  C   UNL     1      39.268 -13.609   1.739  1.00  0.00     0.002 A 
BRANCH   6  11
HETATM   11  C   UNL     1      42.978 -15.275   5.248  1.00  0.00     0.018 C 
HETATM   12  C   UNL     1      42.836 -16.598   5.434  1.00  0.00     0.056 C 
BRANCH  12  13
HETATM   13  C   UNL     1      44.018 -17.444   5.751  1.00  0.00     0.182 C 
HETATM   14  O   UNL     1      44.804 -17.114   6.635  1.00  0.00    -0.288 OA
BRANCH  13  15
HETATM   15  C   UNL     1      44.269 -18.674   4.937  1.00  0.00     0.014 A 
HETATM   16  C   UNL     1      44.819 -19.855   5.456  1.00  0.00     0.018 A 
HETATM   17  C   UNL     1      44.966 -20.991   4.647  1.00  0.00     0.037 A 
HETATM   18  C   UNL     1      44.573 -20.961   3.310  1.00  0.00     0.068 A 
HETATM   19  C   UNL     1      44.066 -19.775   2.779  1.00  0.00     0.037 A 
HETATM   20  C   UNL     1      43.912 -18.642   3.584  1.00  0.00     0.018 A 
BRANCH  18  21
HETATM   21  O   UNL     1      44.649 -22.004   2.431  1.00  0.00    -0.356 OA
HETATM   22  C   UNL     1      43.830 -21.922   1.269  1.00  0.00     0.210 C 
ENDBRANCH  18  21
ENDBRANCH  13  15
ENDBRANCH  12  13
ENDBRANCH   6  11
ENDBRANCH   1   2
BRANCH   1  23
HETATM   23  C   UNL     1      39.810 -11.599   7.356  1.00  0.00     0.162 C 
BRANCH  23  24
HETATM   24  O   UNL     1      39.052 -12.634   8.014  1.00  0.00    -0.392 OA
HETATM   25  H   UNL     1      38.564 -13.138   7.332  1.00  0.00     0.210 HD
ENDBRANCH  23  24
BRANCH  23  26
HETATM   26  C   UNL     1      39.379 -10.258   7.980  1.00  0.00     0.265 C 
BRANCH  26  27
HETATM   27  N   UNL     1      38.611 -10.574   9.240  1.00  0.00    -0.072 N 
HETATM   28  H   UNL     1      37.683 -10.907   8.922  1.00  0.00     0.277 HD
HETATM   29  H   UNL     1      39.030 -11.394   9.693  1.00  0.00     0.277 HD
BRANCH  27  30
HETATM   30  C   UNL     1      38.485  -9.476  10.243  1.00  0.00     0.237 C 
BRANCH  30  31
HETATM   31  C   UNL     1      39.833  -8.840  10.585  1.00  0.00     0.068 C 
BRANCH  31  32
HETATM   32  C   UNL     1      40.621  -9.723  11.495  1.00  0.00    -0.029 A 
HETATM   33  C   UNL     1      41.852 -10.382  11.178  1.00  0.00     0.001 A 
HETATM   34  C   UNL     1      42.223 -11.133  12.292  1.00  0.00     0.043 A 
HETATM   35  C   UNL     1      42.683 -10.418  10.040  1.00  0.00     0.051 A 
HETATM   36  C   UNL     1      43.377 -11.924  12.316  1.00  0.00     0.033 A 
HETATM   37  N   UNL     1      41.273 -10.917  13.263  1.00  0.00    -0.365 N 
HETATM   38  C   UNL     1      44.179 -11.949  11.168  1.00  0.00     0.039 A 
HETATM   39  C   UNL     1      43.844 -11.204  10.040  1.00  0.00     0.069 A 
HETATM   40  H   UNL     1      41.299 -11.325  14.189  1.00  0.00     0.165 HD
HETATM   41  C   UNL     1      40.299 -10.077  12.790  1.00  0.00     0.096 A 
BRANCH  39  42
HETATM   42  O   UNL     1      44.549 -11.156   8.867  1.00  0.00    -0.356 OA
HETATM   43  C   UNL     1      45.826 -11.785   8.859  1.00  0.00     0.210 C 
ENDBRANCH  39  42
ENDBRANCH  31  32
ENDBRANCH  30  31
ENDBRANCH  27  30
ENDBRANCH  26  27
ENDBRANCH  23  26
ENDBRANCH   1  23
TORSDOF 13
ENDMDL
MODEL 8
REMARK VINA RESULT:      -7.6      4.475      7.148
REMARK  13 active torsions:
REMARK  status: ('A' for Active; 'I' for Inactive)
REMARK    1  A    between atoms: O_2  and  C_3 
REMARK    2  A    between atoms: C_6  and  C_7 
REMARK    3  A    between atoms: C_7  and  C_8 
REMARK    4  A    between atoms: C_9  and  C_10 
REMARK    5  A    between atoms: N_17  and  C_18 
REMARK    6  A    between atoms: C_18  and  C_19 
REMARK    7  A    between atoms: C_19  and  O_20 
REMARK    8  A    between atoms: C_19  and  C_21 
REMARK    9  A    between atoms: C_21  and  N_22 
REMARK   10  A    between atoms: N_22  and  C_25 
REMARK   11  A    between atoms: C_25  and  C_26 
REMARK   12  A    between atoms: C_26  and  C_27 
REMARK   13  A    between atoms: C_32  and  O_33 
ROOT
HETATM    1  C   UNL     1      39.301 -12.463   4.971  1.00  0.00     0.162 C 
ENDROOT
BRANCH   1   2
HETATM    2  N   UNL     1      39.609 -13.275   3.804  1.00  0.00    -0.353 N 
HETATM    3  C   UNL     1      39.163 -13.051   2.519  1.00  0.00     0.045 A 
HETATM    4  C   UNL     1      39.805 -13.986   1.696  1.00  0.00     0.002 A 
HETATM    5  C   UNL     1      38.262 -12.104   2.002  1.00  0.00     0.030 A 
HETATM    6  C   UNL     1      40.581 -14.832   2.549  1.00  0.00    -0.008 A 
HETATM    7  C   UNL     1      39.578 -13.918   0.303  1.00  0.00     0.014 A 
HETATM    8  C   UNL     1      40.455 -14.353   3.834  1.00  0.00     0.103 A 
HETATM    9  C   UNL     1      38.696 -12.968  -0.218  1.00  0.00     0.001 A 
HETATM   10  C   UNL     1      38.039 -12.081   0.623  1.00  0.00     0.002 A 
BRANCH   6  11
HETATM   11  C   UNL     1      41.368 -15.980   2.226  1.00  0.00     0.018 C 
HETATM   12  C   UNL     1      42.689 -15.959   1.982  1.00  0.00     0.056 C 
BRANCH  12  13
HETATM   13  C   UNL     1      43.417 -17.218   1.672  1.00  0.00     0.182 C 
HETATM   14  O   UNL     1      43.681 -17.518   0.510  1.00  0.00    -0.288 OA
BRANCH  13  15
HETATM   15  C   UNL     1      43.773 -18.146   2.790  1.00  0.00     0.014 A 
HETATM   16  C   UNL     1      43.841 -17.757   4.136  1.00  0.00     0.018 A 
HETATM   17  C   UNL     1      44.118 -18.698   5.138  1.00  0.00     0.037 A 
HETATM   18  C   UNL     1      44.338 -20.035   4.811  1.00  0.00     0.068 A 
HETATM   19  C   UNL     1      44.315 -20.417   3.469  1.00  0.00     0.037 A 
HETATM   20  C   UNL     1      44.032 -19.483   2.467  1.00  0.00     0.018 A 
BRANCH  18  21
HETATM   21  O   UNL     1      44.598 -21.043   5.696  1.00  0.00    -0.356 OA
HETATM   22  C   UNL     1      45.105 -22.257   5.152  1.00  0.00     0.210 C 
ENDBRANCH  18  21
ENDBRANCH  13  15
ENDBRANCH  12  13
ENDBRANCH   6  11
ENDBRANCH   1   2
BRANCH   1  23
HETATM   23  C   UNL     1      40.179 -12.760   6.202  1.00  0.00     0.162 C 
BRANCH  23  24
HETATM   24  O   UNL     1      39.469 -13.464   7.241  1.00  0.00    -0.392 OA
HETATM   25  H   UNL     1      39.241 -12.823   7.944  1.00  0.00     0.210 HD
ENDBRANCH  23  24
BRANCH  23  26
HETATM   26  C   UNL     1      40.814 -11.515   6.853  1.00  0.00     0.265 C 
BRANCH  26  27
HETATM   27  N   UNL     1      40.267 -11.413   8.255  1.00  0.00    -0.072 N 
HETATM   28  H   UNL     1      39.493 -12.100   8.302  1.00  0.00     0.277 HD
HETATM   29  H   UNL     1      40.964 -11.776   8.916  1.00  0.00     0.277 HD
BRANCH  27  30
HETATM   30  C   UNL     1      39.827 -10.060   8.708  1.00  0.00     0.237 C 
BRANCH  30  31
HETATM   31  C   UNL     1      40.883  -9.359   9.564  1.00  0.00     0.068 C 
BRANCH  31  32
HETATM   32  C   UNL     1      41.516 -10.318  10.516  1.00  0.00    -0.029 A 
HETATM   33  C   UNL     1      42.868 -10.787  10.472  1.00  0.00     0.001 A 
HETATM   34  C   UNL     1      43.031 -11.694  11.516  1.00  0.00     0.043 A 
HETATM   35  C   UNL     1      43.970 -10.530   9.631  1.00  0.00     0.051 A 
HETATM   36  C   UNL     1      44.237 -12.363  11.752  1.00  0.00     0.033 A 
HETATM   37  N   UNL     1      41.835 -11.755  12.192  1.00  0.00    -0.365 N 
HETATM   38  C   UNL     1      45.313 -12.096  10.895  1.00  0.00     0.039 A 
HETATM   39  C   UNL     1      45.190 -11.188   9.846  1.00  0.00     0.069 A 
HETATM   40  H   UNL     1      41.670 -12.325  13.013  1.00  0.00     0.165 HD
HETATM   41  C   UNL     1      40.913 -10.937  11.593  1.00  0.00     0.096 A 
BRANCH  39  42
HETATM   42  O   UNL     1      46.168 -10.853   8.949  1.00  0.00    -0.356 OA
HETATM   43  C   UNL     1      46.654 -11.897   8.110  1.00  0.00     0.210 C 
ENDBRANCH  39  42
ENDBRANCH  31  32
ENDBRANCH  30  31
ENDBRANCH  27  30
ENDBRANCH  26  27
ENDBRANCH  23  26
ENDBRANCH   1  23
TORSDOF 13
ENDMDL
MODEL 9
REMARK VINA RESULT:      -7.6      2.253      4.837
REMARK  13 active torsions:
REMARK  status: ('A' for Active; 'I' for Inactive)
REMARK    1  A    between atoms: O_2  and  C_3 
REMARK    2  A    between atoms: C_6  and  C_7 
REMARK    3  A    between atoms: C_7  and  C_8 
REMARK    4  A    between atoms: C_9  and  C_10 
REMARK    5  A    between atoms: N_17  and  C_18 
REMARK    6  A    between atoms: C_18  and  C_19 
REMARK    7  A    between atoms: C_19  and  O_20 
REMARK    8  A    between atoms: C_19  and  C_21 
REMARK    9  A    between atoms: C_21  and  N_22 
REMARK   10  A    between atoms: N_22  and  C_25 
REMARK   11  A    between atoms: C_25  and  C_26 
REMARK   12  A    between atoms: C_26  and  C_27 
REMARK   13  A    between atoms: C_32  and  O_33 
ROOT
HETATM    1  C   UNL     1      41.451 -10.842   0.024  1.00  0.00     0.162 C 
ENDROOT
BRANCH   1   2
HETATM    2  N   UNL     1      41.427 -11.588   1.273  1.00  0.00    -0.353 N 
HETATM    3  C   UNL     1      40.484 -11.467   2.272  1.00  0.00     0.045 A 
HETATM    4  C   UNL     1      40.767 -12.460   3.220  1.00  0.00     0.002 A 
HETATM    5  C   UNL     1      39.402 -10.584   2.425  1.00  0.00     0.030 A 
HETATM    6  C   UNL     1      41.963 -13.118   2.795  1.00  0.00    -0.008 A 
HETATM    7  C   UNL     1      39.891 -12.605   4.320  1.00  0.00     0.014 A 
HETATM    8  C   UNL     1      42.329 -12.573   1.584  1.00  0.00     0.103 A 
HETATM    9  C   UNL     1      38.803 -11.739   4.467  1.00  0.00     0.001 A 
HETATM   10  C   UNL     1      38.571 -10.736   3.537  1.00  0.00     0.002 A 
BRANCH   6  11
HETATM   11  C   UNL     1      42.713 -14.153   3.433  1.00  0.00     0.018 C 
HETATM   12  C   UNL     1      42.212 -15.342   3.809  1.00  0.00     0.056 C 
BRANCH  12  13
HETATM   13  C   UNL     1      43.087 -16.357   4.453  1.00  0.00     0.182 C 
HETATM   14  O   UNL     1      43.627 -16.124   5.531  1.00  0.00    -0.288 OA
BRANCH  13  15
HETATM   15  C   UNL     1      43.349 -17.646   3.740  1.00  0.00     0.014 A 
HETATM   16  C   UNL     1      43.202 -17.818   2.356  1.00  0.00     0.018 A 
HETATM   17  C   UNL     1      43.528 -19.039   1.748  1.00  0.00     0.037 A 
HETATM   18  C   UNL     1      43.998 -20.105   2.514  1.00  0.00     0.068 A 
HETATM   19  C   UNL     1      44.104 -19.952   3.896  1.00  0.00     0.037 A 
HETATM   20  C   UNL     1      43.787 -18.734   4.505  1.00  0.00     0.018 A 
BRANCH  18  21
HETATM   21  O   UNL     1      44.364 -21.332   2.036  1.00  0.00    -0.356 OA
HETATM   22  C   UNL     1      44.627 -22.342   3.004  1.00  0.00     0.210 C 
ENDBRANCH  18  21
ENDBRANCH  13  15
ENDBRANCH  12  13
ENDBRANCH   6  11
ENDBRANCH   1   2
BRANCH   1  23
HETATM   23  C   UNL     1      42.841 -10.748  -0.633  1.00  0.00     0.162 C 
BRANCH  23  24
HETATM   24  O   UNL     1      43.594  -9.601  -0.189  1.00  0.00    -0.392 OA
HETATM   25  H   UNL     1      44.273  -9.908   0.445  1.00  0.00     0.210 HD
ENDBRANCH  23  24
BRANCH  23  26
HETATM   26  C   UNL     1      42.821 -10.706  -2.174  1.00  0.00     0.265 C 
BRANCH  26  27
HETATM   27  N   UNL     1      41.911 -11.815  -2.643  1.00  0.00    -0.072 N 
HETATM   28  H   UNL     1      41.039 -11.709  -2.093  1.00  0.00     0.277 HD
HETATM   29  H   UNL     1      41.621 -11.626  -3.610  1.00  0.00     0.277 HD
BRANCH  27  30
HETATM   30  C   UNL     1      42.447 -13.205  -2.558  1.00  0.00     0.237 C 
BRANCH  30  31
HETATM   31  C   UNL     1      41.354 -14.263  -2.723  1.00  0.00     0.068 C 
BRANCH  31  32
HETATM   32  C   UNL     1      40.777 -14.640  -1.399  1.00  0.00    -0.029 A 
HETATM   33  C   UNL     1      39.611 -14.074  -0.791  1.00  0.00     0.001 A 
HETATM   34  C   UNL     1      39.450 -14.682   0.452  1.00  0.00     0.043 A 
HETATM   35  C   UNL     1      38.680 -13.090  -1.180  1.00  0.00     0.051 A 
HETATM   36  C   UNL     1      38.411 -14.346   1.326  1.00  0.00     0.033 A 
HETATM   37  N   UNL     1      40.459 -15.606   0.587  1.00  0.00    -0.365 N 
HETATM   38  C   UNL     1      37.505 -13.357   0.918  1.00  0.00     0.039 A 
HETATM   39  C   UNL     1      37.630 -12.735  -0.321  1.00  0.00     0.069 A 
HETATM   40  H   UNL     1      40.578 -16.211   1.389  1.00  0.00     0.165 HD
HETATM   41  C   UNL     1      41.270 -15.583  -0.519  1.00  0.00     0.096 A 
BRANCH  39  42
HETATM   42  O   UNL     1      36.809 -11.759  -0.820  1.00  0.00    -0.356 OA
HETATM   43  C   UNL     1      37.293 -11.023  -1.939  1.00  0.00     0.210 C 
ENDBRANCH  39  42
ENDBRANCH  31  32
ENDBRANCH  30  31
ENDBRANCH  27  30
ENDBRANCH  26  27
ENDBRANCH  23  26
ENDBRANCH   1  23
TORSDOF 13
ENDMDL
MODEL 10
REMARK VINA RESULT:      -7.5      2.755      8.282
REMARK  13 active torsions:
REMARK  status: ('A' for Active; 'I' for Inactive)
REMARK    1  A    between atoms: O_2  and  C_3 
REMARK    2  A    between atoms: C_6  and  C_7 
REMARK    3  A    between atoms: C_7  and  C_8 
REMARK    4  A    between atoms: C_9  and  C_10 
REMARK    5  A    between atoms: N_17  and  C_18 
REMARK    6  A    between atoms: C_18  and  C_19 
REMARK    7  A    between atoms: C_19  and  O_20 
REMARK    8  A    between atoms: C_19  and  C_21 
REMARK    9  A    between atoms: C_21  and  N_22 
REMARK   10  A    between atoms: N_22  and  C_25 
REMARK   11  A    between atoms: C_25  and  C_26 
REMARK   12  A    between atoms: C_26  and  C_27 
REMARK   13  A    between atoms: C_32  and  O_33 
ROOT
HETATM    1  C   UNL     1      43.408 -13.790   5.590  1.00  0.00     0.162 C 
ENDROOT
BRANCH   1   2
HETATM    2  N   UNL     1      42.513 -13.202   4.606  1.00  0.00    -0.353 N 
HETATM    3  C   UNL     1      41.365 -12.487   4.878  1.00  0.00     0.045 A 
HETATM    4  C   UNL     1      40.892 -11.997   3.653  1.00  0.00     0.002 A 
HETATM    5  C   UNL     1      40.705 -12.217   6.089  1.00  0.00     0.030 A 
HETATM    6  C   UNL     1      41.748 -12.518   2.634  1.00  0.00    -0.008 A 
HETATM    7  C   UNL     1      39.756 -11.155   3.664  1.00  0.00     0.014 A 
HETATM    8  C   UNL     1      42.746 -13.235   3.255  1.00  0.00     0.103 A 
HETATM    9  C   UNL     1      39.106 -10.870   4.868  1.00  0.00     0.001 A 
HETATM   10  C   UNL     1      39.569 -11.405   6.061  1.00  0.00     0.002 A 
BRANCH   6  11
HETATM   11  C   UNL     1      41.667 -12.379   1.214  1.00  0.00     0.018 C 
HETATM   12  C   UNL     1      42.159 -13.262   0.329  1.00  0.00     0.056 C 
BRANCH  12  13
HETATM   13  C   UNL     1      42.004 -13.028  -1.132  1.00  0.00     0.182 C 
HETATM   14  O   UNL     1      42.781 -12.290  -1.733  1.00  0.00    -0.288 OA
BRANCH  13  15
HETATM   15  C   UNL     1      40.853 -13.659  -1.850  1.00  0.00     0.014 A 
HETATM   16  C   UNL     1      40.993 -14.650  -2.831  1.00  0.00     0.018 A 
HETATM   17  C   UNL     1      39.864 -15.243  -3.416  1.00  0.00     0.037 A 
HETATM   18  C   UNL     1      38.583 -14.847  -3.035  1.00  0.00     0.068 A 
HETATM   19  C   UNL     1      38.440 -13.830  -2.091  1.00  0.00     0.037 A 
HETATM   20  C   UNL     1      39.563 -13.243  -1.500  1.00  0.00     0.018 A 
BRANCH  18  21
HETATM   21  O   UNL     1      37.412 -15.360  -3.516  1.00  0.00    -0.356 OA
HETATM   22  C   UNL     1      36.649 -14.518  -4.374  1.00  0.00     0.210 C 
ENDBRANCH  18  21
ENDBRANCH  13  15
ENDBRANCH  12  13
ENDBRANCH   6  11
ENDBRANCH   1   2
BRANCH   1  23
HETATM   23  C   UNL     1      43.033 -15.223   6.015  1.00  0.00     0.162 C 
BRANCH  23  24
HETATM   24  O   UNL     1      41.654 -15.344   6.421  1.00  0.00    -0.392 OA
HETATM   25  H   UNL     1      41.629 -15.425   7.396  1.00  0.00     0.210 HD
ENDBRANCH  23  24
BRANCH  23  26
HETATM   26  C   UNL     1      43.892 -15.801   7.156  1.00  0.00     0.265 C 
BRANCH  26  27
HETATM   27  N   UNL     1      43.827 -17.305   7.051  1.00  0.00    -0.072 N 
HETATM   28  H   UNL     1      44.395 -17.662   7.841  1.00  0.00     0.277 HD
HETATM   29  H   UNL     1      42.873 -17.616   7.268  1.00  0.00     0.277 HD
BRANCH  27  30
HETATM   30  C   UNL     1      44.252 -17.907   5.753  1.00  0.00     0.237 C 
BRANCH  30  31
HETATM   31  C   UNL     1      43.125 -18.689   5.077  1.00  0.00     0.068 C 
BRANCH  31  32
HETATM   32  C   UNL     1      43.142 -18.472   3.600  1.00  0.00    -0.029 A 
HETATM   33  C   UNL     1      42.263 -17.617   2.860  1.00  0.00     0.001 A 
HETATM   34  C   UNL     1      42.595 -17.740   1.513  1.00  0.00     0.043 A 
HETATM   35  C   UNL     1      41.205 -16.754   3.212  1.00  0.00     0.051 A 
HETATM   36  C   UNL     1      41.915 -17.051   0.503  1.00  0.00     0.033 A 
HETATM   37  N   UNL     1      43.656 -18.612   1.433  1.00  0.00    -0.365 N 
HETATM   38  C   UNL     1      40.861 -16.208   0.880  1.00  0.00     0.039 A 
HETATM   39  C   UNL     1      40.507 -16.053   2.218  1.00  0.00     0.069 A 
HETATM   40  H   UNL     1      44.119 -18.874   0.572  1.00  0.00     0.165 HD
HETATM   41  C   UNL     1      43.987 -19.066   2.684  1.00  0.00     0.096 A 
BRANCH  39  42
HETATM   42  O   UNL     1      39.498 -15.263   2.699  1.00  0.00    -0.356 OA
HETATM   43  C   UNL     1      38.656 -14.639   1.734  1.00  0.00     0.210 C 
ENDBRANCH  39  42
ENDBRANCH  31  32
ENDBRANCH  30  31
ENDBRANCH  27  30
ENDBRANCH  26  27
ENDBRANCH  23  26
ENDBRANCH   1  23
TORSDOF 13
ENDMDL
