MODEL 1
REMARK VINA RESULT:      -8.2      0.000      0.000
REMARK  7 active torsions:
REMARK  status: ('A' for Active; 'I' for Inactive)
REMARK    1  A    between atoms: C_2  and  N_3 
REMARK    2  A    between atoms: C_2  and  C_17 
REMARK       I    between atoms: N_3  and  C_4 
REMARK    3  A    between atoms: C_4  and  C_5 
REMARK    4  A    between atoms: C_7  and  N_8 
REMARK    5  A    between atoms: C_17  and  O_18 
REMARK    6  A    between atoms: C_17  and  C_19 
REMARK    7  A    between atoms: C_22  and  O_23 
ROOT
HETATM    1  N   UNL     1      43.162 -14.467   6.278  1.00  0.00    -0.349 N 
HETATM    2  C   UNL     1      44.329 -14.798   6.928  1.00  0.00     0.270 C 
HETATM    3  O   UNL     1      44.808 -15.926   6.947  1.00  0.00    -0.266 OA
HETATM    4  H   UNL     1      42.795 -13.533   6.445  1.00  0.00     0.163 HD
ENDROOT
BRANCH   1   5
HETATM    5  C   UNL     1      42.283 -15.451   5.641  1.00  0.00     0.114 C 
HETATM    6  C   UNL     1      40.824 -15.058   5.889  1.00  0.00     0.035 C 
BRANCH   5   7
HETATM    7  C   UNL     1      42.647 -15.568   4.136  1.00  0.00     0.173 C 
BRANCH   7   8
HETATM    8  O   UNL     1      41.531 -15.188   3.318  1.00  0.00    -0.389 OA
HETATM    9  H   UNL     1      41.813 -14.407   2.810  1.00  0.00     0.210 HD
ENDBRANCH   7   8
BRANCH   7  10
HETATM   10  C   UNL     1      43.180 -16.926   3.722  1.00  0.00    -0.028 A 
HETATM   11  C   UNL     1      43.340 -17.932   4.684  1.00  0.00     0.012 A 
HETATM   12  C   UNL     1      43.826 -19.190   4.320  1.00  0.00     0.037 A 
HETATM   13  C   UNL     1      44.150 -19.474   2.992  1.00  0.00     0.068 A 
HETATM   14  C   UNL     1      43.991 -18.480   2.028  1.00  0.00     0.037 A 
HETATM   15  C   UNL     1      43.512 -17.216   2.391  1.00  0.00     0.012 A 
BRANCH  13  16
HETATM   16  O   UNL     1      44.608 -20.743   2.774  1.00  0.00    -0.356 OA
HETATM   17  C   UNL     1      43.900 -21.528   1.823  1.00  0.00     0.210 C 
ENDBRANCH  13  16
ENDBRANCH   7  10
ENDBRANCH   5   7
ENDBRANCH   1   5
BRANCH   2  18
HETATM   18  C   UNL     1      44.986 -13.655   7.640  1.00  0.00     0.126 A 
HETATM   19  N   UNL     1      44.357 -13.200   8.760  1.00  0.00    -0.224 NA
HETATM   20  C   UNL     1      44.937 -12.151   9.405  1.00  0.00     0.151 A 
HETATM   21  C   UNL     1      46.128 -11.566   8.977  1.00  0.00     0.052 A 
HETATM   22  C   UNL     1      46.751 -12.064   7.834  1.00  0.00     0.006 A 
HETATM   23  C   UNL     1      46.169 -13.123   7.146  1.00  0.00     0.037 A 
BRANCH  20  24
HETATM   24  N   UNL     1      44.280 -11.623  10.558  1.00  0.00    -0.227 N 
HETATM   25  N   UNL     1      43.764 -12.420  11.535  1.00  0.00    -0.179 NA
HETATM   26  C   UNL     1      43.264 -11.566  12.430  1.00  0.00     0.141 A 
HETATM   27  C   UNL     1      43.441 -10.225  12.056  1.00  0.00     0.040 A 
HETATM   28  C   UNL     1      44.093 -10.288  10.849  1.00  0.00     0.122 A 
ENDBRANCH  20  24
ENDBRANCH   2  18
TORSDOF 7
ENDMDL
MODEL 2
REMARK VINA RESULT:      -7.8      5.413      8.302
REMARK  7 active torsions:
REMARK  status: ('A' for Active; 'I' for Inactive)
REMARK    1  A    between atoms: C_2  and  N_3 
REMARK    2  A    between atoms: C_2  and  C_17 
REMARK       I    between atoms: N_3  and  C_4 
REMARK    3  A    between atoms: C_4  and  C_5 
REMARK    4  A    between atoms: C_7  and  N_8 
REMARK    5  A    between atoms: C_17  and  O_18 
REMARK    6  A    between atoms: C_17  and  C_19 
REMARK    7  A    between atoms: C_22  and  O_23 
ROOT
HETATM    1  N   UNL     1      41.819 -16.015   0.834  1.00  0.00    -0.349 N 
HETATM    2  C   UNL     1      41.280 -16.893   1.748  1.00  0.00     0.270 C 
HETATM    3  O   UNL     1      40.085 -16.961   2.010  1.00  0.00    -0.266 OA
HETATM    4  H   UNL     1      42.835 -15.958   0.801  1.00  0.00     0.163 HD
ENDROOT
BRANCH   1   5
HETATM    5  C   UNL     1      41.045 -14.969   0.163  1.00  0.00     0.114 C 
HETATM    6  C   UNL     1      41.339 -13.621   0.828  1.00  0.00     0.035 C 
BRANCH   5   7
HETATM    7  C   UNL     1      41.360 -14.992  -1.358  1.00  0.00     0.173 C 
BRANCH   7   8
HETATM    8  O   UNL     1      42.195 -13.882  -1.715  1.00  0.00    -0.389 OA
HETATM    9  H   UNL     1      42.266 -13.890  -2.687  1.00  0.00     0.210 HD
ENDBRANCH   7   8
BRANCH   7  10
HETATM   10  C   UNL     1      40.135 -15.054  -2.251  1.00  0.00    -0.028 A 
HETATM   11  C   UNL     1      39.047 -14.209  -1.998  1.00  0.00     0.012 A 
HETATM   12  C   UNL     1      37.913 -14.250  -2.813  1.00  0.00     0.037 A 
HETATM   13  C   UNL     1      37.845 -15.122  -3.900  1.00  0.00     0.068 A 
HETATM   14  C   UNL     1      38.925 -15.965  -4.161  1.00  0.00     0.037 A 
HETATM   15  C   UNL     1      40.060 -15.932  -3.342  1.00  0.00     0.012 A 
BRANCH  13  16
HETATM   16  O   UNL     1      36.683 -15.056  -4.616  1.00  0.00    -0.356 OA
HETATM   17  C   UNL     1      36.086 -13.773  -4.754  1.00  0.00     0.210 C 
ENDBRANCH  13  16
ENDBRANCH   7  10
ENDBRANCH   5   7
ENDBRANCH   1   5
BRANCH   2  18
HETATM   18  C   UNL     1      42.284 -17.774   2.426  1.00  0.00     0.126 A 
HETATM   19  N   UNL     1      42.347 -17.682   3.785  1.00  0.00    -0.224 NA
HETATM   20  C   UNL     1      43.268 -18.466   4.409  1.00  0.00     0.151 A 
HETATM   21  C   UNL     1      44.101 -19.348   3.721  1.00  0.00     0.052 A 
HETATM   22  C   UNL     1      44.002 -19.424   2.333  1.00  0.00     0.006 A 
HETATM   23  C   UNL     1      43.083 -18.620   1.669  1.00  0.00     0.037 A 
BRANCH  20  24
HETATM   24  N   UNL     1      43.388 -18.363   5.829  1.00  0.00    -0.227 N 
HETATM   25  N   UNL     1      43.921 -19.357   6.592  1.00  0.00    -0.179 NA
HETATM   26  C   UNL     1      43.878 -18.878   7.837  1.00  0.00     0.141 A 
HETATM   27  C   UNL     1      43.324 -17.591   7.903  1.00  0.00     0.040 A 
HETATM   28  C   UNL     1      43.014 -17.283   6.601  1.00  0.00     0.122 A 
ENDBRANCH  20  24
ENDBRANCH   2  18
TORSDOF 7
ENDMDL
MODEL 3
REMARK VINA RESULT:      -7.8      5.802      9.190
REMARK  7 active torsions:
REMARK  status: ('A' for Active; 'I' for Inactive)
REMARK    1  A    between atoms: C_2  and  N_3 
REMARK    2  A    between atoms: C_2  and  C_17 
REMARK       I    between atoms: N_3  and  C_4 
REMARK    3  A    between atoms: C_4  and  C_5 
REMARK    4  A    between atoms: C_7  and  N_8 
REMARK    5  A    between atoms: C_17  and  O_18 
REMARK    6  A    between atoms: C_17  and  C_19 
REMARK    7  A    between atoms: C_22  and  O_23 
ROOT
HETATM    1  N   UNL     1      41.883 -15.184   1.116  1.00  0.00    -0.349 N 
HETATM    2  C   UNL     1      41.258 -16.033   2.001  1.00  0.00     0.270 C 
HETATM    3  O   UNL     1      40.045 -16.196   2.055  1.00  0.00    -0.266 OA
HETATM    4  H   UNL     1      42.880 -15.032   1.256  1.00  0.00     0.163 HD
ENDROOT
BRANCH   1   5
HETATM    5  C   UNL     1      41.163 -14.274   0.222  1.00  0.00     0.114 C 
HETATM    6  C   UNL     1      41.523 -12.829   0.579  1.00  0.00     0.035 C 
BRANCH   5   7
HETATM    7  C   UNL     1      41.479 -14.645  -1.252  1.00  0.00     0.173 C 
BRANCH   7   8
HETATM    8  O   UNL     1      42.386 -13.694  -1.827  1.00  0.00    -0.389 OA
HETATM    9  H   UNL     1      41.838 -13.004  -2.241  1.00  0.00     0.210 HD
ENDBRANCH   7   8
BRANCH   7  10
HETATM   10  C   UNL     1      40.255 -14.821  -2.131  1.00  0.00    -0.028 A 
HETATM   11  C   UNL     1      39.102 -14.067  -1.876  1.00  0.00     0.012 A 
HETATM   12  C   UNL     1      37.968 -14.213  -2.678  1.00  0.00     0.037 A 
HETATM   13  C   UNL     1      37.963 -15.102  -3.754  1.00  0.00     0.068 A 
HETATM   14  C   UNL     1      39.106 -15.854  -4.017  1.00  0.00     0.037 A 
HETATM   15  C   UNL     1      40.243 -15.716  -3.210  1.00  0.00     0.012 A 
BRANCH  13  16
HETATM   16  O   UNL     1      36.792 -15.142  -4.457  1.00  0.00    -0.356 OA
HETATM   17  C   UNL     1      36.137 -13.901  -4.686  1.00  0.00     0.210 C 
ENDBRANCH  13  16
ENDBRANCH   7  10
ENDBRANCH   5   7
ENDBRANCH   1   5
BRANCH   2  18
HETATM   18  C   UNL     1      42.189 -16.757   2.927  1.00  0.00     0.126 A 
HETATM   19  N   UNL     1      42.583 -18.001   2.534  1.00  0.00    -0.224 NA
HETATM   20  C   UNL     1      43.415 -18.673   3.376  1.00  0.00     0.151 A 
HETATM   21  C   UNL     1      43.876 -18.130   4.576  1.00  0.00     0.052 A 
HETATM   22  C   UNL     1      43.461 -16.851   4.940  1.00  0.00     0.006 A 
HETATM   23  C   UNL     1      42.597 -16.150   4.107  1.00  0.00     0.037 A 
BRANCH  20  24
HETATM   24  N   UNL     1      43.813 -19.996   3.015  1.00  0.00    -0.227 N 
HETATM   25  N   UNL     1      44.538 -20.795   3.847  1.00  0.00    -0.179 NA
HETATM   26  C   UNL     1      44.686 -21.933   3.167  1.00  0.00     0.141 A 
HETATM   27  C   UNL     1      44.075 -21.894   1.905  1.00  0.00     0.040 A 
HETATM   28  C   UNL     1      43.524 -20.638   1.829  1.00  0.00     0.122 A 
ENDBRANCH  20  24
ENDBRANCH   2  18
TORSDOF 7
ENDMDL
MODEL 4
REMARK VINA RESULT:      -7.6      5.632      9.337
REMARK  7 active torsions:
REMARK  status: ('A' for Active; 'I' for Inactive)
REMARK    1  A    between atoms: C_2  and  N_3 
REMARK    2  A    between atoms: C_2  and  C_17 
REMARK       I    between atoms: N_3  and  C_4 
REMARK    3  A    between atoms: C_4  and  C_5 
REMARK    4  A    between atoms: C_7  and  N_8 
REMARK    5  A    between atoms: C_17  and  O_18 
REMARK    6  A    between atoms: C_17  and  C_19 
REMARK    7  A    between atoms: C_22  and  O_23 
ROOT
HETATM    1  N   UNL     1      41.625 -14.322   1.369  1.00  0.00    -0.349 N 
HETATM    2  C   UNL     1      41.927 -13.103   0.807  1.00  0.00     0.270 C 
HETATM    3  O   UNL     1      42.230 -12.106   1.452  1.00  0.00    -0.266 OA
HETATM    4  H   UNL     1      41.259 -15.036   0.742  1.00  0.00     0.163 HD
ENDROOT
BRANCH   1   5
HETATM    5  C   UNL     1      41.501 -14.540   2.812  1.00  0.00     0.114 C 
HETATM    6  C   UNL     1      40.425 -15.599   3.071  1.00  0.00     0.035 C 
BRANCH   5   7
HETATM    7  C   UNL     1      42.890 -14.911   3.398  1.00  0.00     0.173 C 
BRANCH   7   8
HETATM    8  O   UNL     1      43.885 -13.972   2.966  1.00  0.00    -0.389 OA
HETATM    9  H   UNL     1      44.453 -14.443   2.330  1.00  0.00     0.210 HD
ENDBRANCH   7   8
BRANCH   7  10
HETATM   10  C   UNL     1      43.332 -16.333   3.111  1.00  0.00    -0.028 A 
HETATM   11  C   UNL     1      43.339 -17.281   4.143  1.00  0.00     0.012 A 
HETATM   12  C   UNL     1      43.738 -18.596   3.896  1.00  0.00     0.037 A 
HETATM   13  C   UNL     1      44.128 -18.996   2.617  1.00  0.00     0.068 A 
HETATM   14  C   UNL     1      44.122 -18.061   1.583  1.00  0.00     0.037 A 
HETATM   15  C   UNL     1      43.729 -16.740   1.829  1.00  0.00     0.012 A 
BRANCH  13  16
HETATM   16  O   UNL     1      44.489 -20.310   2.513  1.00  0.00    -0.356 OA
HETATM   17  C   UNL     1      43.593 -21.171   1.823  1.00  0.00     0.210 C 
ENDBRANCH  13  16
ENDBRANCH   7  10
ENDBRANCH   5   7
ENDBRANCH   1   5
BRANCH   2  18
HETATM   18  C   UNL     1      41.847 -13.074  -0.690  1.00  0.00     0.126 A 
HETATM   19  N   UNL     1      40.834 -13.791  -1.253  1.00  0.00    -0.224 NA
HETATM   20  C   UNL     1      40.764 -13.785  -2.612  1.00  0.00     0.151 A 
HETATM   21  C   UNL     1      41.655 -13.071  -3.413  1.00  0.00     0.052 A 
HETATM   22  C   UNL     1      42.672 -12.340  -2.802  1.00  0.00     0.006 A 
HETATM   23  C   UNL     1      42.778 -12.344  -1.416  1.00  0.00     0.037 A 
BRANCH  20  24
HETATM   24  N   UNL     1      39.739 -14.561  -3.236  1.00  0.00    -0.227 N 
HETATM   25  N   UNL     1      40.004 -15.711  -3.917  1.00  0.00    -0.179 NA
HETATM   26  C   UNL     1      38.807 -16.138  -4.323  1.00  0.00     0.141 A 
HETATM   27  C   UNL     1      37.764 -15.289  -3.924  1.00  0.00     0.040 A 
HETATM   28  C   UNL     1      38.388 -14.281  -3.230  1.00  0.00     0.122 A 
ENDBRANCH  20  24
ENDBRANCH   2  18
TORSDOF 7
ENDMDL
MODEL 5
REMARK VINA RESULT:      -7.5      6.273      8.754
REMARK  7 active torsions:
REMARK  status: ('A' for Active; 'I' for Inactive)
REMARK    1  A    between atoms: C_2  and  N_3 
REMARK    2  A    between atoms: C_2  and  C_17 
REMARK       I    between atoms: N_3  and  C_4 
REMARK    3  A    between atoms: C_4  and  C_5 
REMARK    4  A    between atoms: C_7  and  N_8 
REMARK    5  A    between atoms: C_17  and  O_18 
REMARK    6  A    between atoms: C_17  and  C_19 
REMARK    7  A    between atoms: C_22  and  O_23 
ROOT
HETATM    1  N   UNL     1      42.297 -15.714   0.603  1.00  0.00    -0.349 N 
HETATM    2  C   UNL     1      41.177 -15.036   0.175  1.00  0.00     0.270 C 
HETATM    3  O   UNL     1      40.098 -15.060   0.755  1.00  0.00    -0.266 OA
HETATM    4  H   UNL     1      43.092 -15.726  -0.032  1.00  0.00     0.163 HD
ENDROOT
BRANCH   1   5
HETATM    5  C   UNL     1      42.295 -16.650   1.728  1.00  0.00     0.114 C 
HETATM    6  C   UNL     1      41.509 -17.905   1.338  1.00  0.00     0.035 C 
BRANCH   5   7
HETATM    7  C   UNL     1      43.759 -16.944   2.156  1.00  0.00     0.173 C 
BRANCH   7   8
HETATM    8  O   UNL     1      44.571 -17.226   1.007  1.00  0.00    -0.389 OA
HETATM    9  H   UNL     1      43.979 -17.191   0.234  1.00  0.00     0.210 HD
ENDBRANCH   7   8
BRANCH   7  10
HETATM   10  C   UNL     1      43.901 -18.036   3.198  1.00  0.00    -0.028 A 
HETATM   11  C   UNL     1      44.390 -19.294   2.824  1.00  0.00     0.012 A 
HETATM   12  C   UNL     1      44.532 -20.311   3.772  1.00  0.00     0.037 A 
HETATM   13  C   UNL     1      44.201 -20.091   5.110  1.00  0.00     0.068 A 
HETATM   14  C   UNL     1      43.716 -18.841   5.492  1.00  0.00     0.037 A 
HETATM   15  C   UNL     1      43.566 -17.823   4.543  1.00  0.00     0.012 A 
BRANCH  13  16
HETATM   16  O   UNL     1      44.392 -21.167   5.930  1.00  0.00    -0.356 OA
HETATM   17  C   UNL     1      43.640 -21.197   7.137  1.00  0.00     0.210 C 
ENDBRANCH  13  16
ENDBRANCH   7  10
ENDBRANCH   5   7
ENDBRANCH   1   5
BRANCH   2  18
HETATM   18  C   UNL     1      41.372 -14.254  -1.089  1.00  0.00     0.126 A 
HETATM   19  N   UNL     1      41.980 -13.041  -0.960  1.00  0.00    -0.224 NA
HETATM   20  C   UNL     1      42.145 -12.316  -2.100  1.00  0.00     0.151 A 
HETATM   21  C   UNL     1      41.746 -12.777  -3.354  1.00  0.00     0.052 A 
HETATM   22  C   UNL     1      41.138 -14.027  -3.450  1.00  0.00     0.006 A 
HETATM   23  C   UNL     1      40.939 -14.780  -2.298  1.00  0.00     0.037 A 
BRANCH  20  24
HETATM   24  N   UNL     1      42.741 -11.022  -1.994  1.00  0.00    -0.227 N 
HETATM   25  N   UNL     1      43.616 -10.698  -1.001  1.00  0.00    -0.179 NA
HETATM   26  C   UNL     1      43.954  -9.433  -1.258  1.00  0.00     0.141 A 
HETATM   27  C   UNL     1      43.315  -8.922  -2.398  1.00  0.00     0.040 A 
HETATM   28  C   UNL     1      42.538  -9.960  -2.851  1.00  0.00     0.122 A 
ENDBRANCH  20  24
ENDBRANCH   2  18
TORSDOF 7
ENDMDL
MODEL 6
REMARK VINA RESULT:      -7.5      6.450      9.065
REMARK  7 active torsions:
REMARK  status: ('A' for Active; 'I' for Inactive)
REMARK    1  A    between atoms: C_2  and  N_3 
REMARK    2  A    between atoms: C_2  and  C_17 
REMARK       I    between atoms: N_3  and  C_4 
REMARK    3  A    between atoms: C_4  and  C_5 
REMARK    4  A    between atoms: C_7  and  N_8 
REMARK    5  A    between atoms: C_17  and  O_18 
REMARK    6  A    between atoms: C_17  and  C_19 
REMARK    7  A    between atoms: C_22  and  O_23 
ROOT
HETATM    1  N   UNL     1      41.930 -15.623   1.476  1.00  0.00    -0.349 N 
HETATM    2  C   UNL     1      42.072 -14.254   1.473  1.00  0.00     0.270 C 
HETATM    3  O   UNL     1      42.834 -13.642   2.212  1.00  0.00    -0.266 OA
HETATM    4  H   UNL     1      41.172 -16.004   0.914  1.00  0.00     0.163 HD
ENDROOT
BRANCH   1   5
HETATM    5  C   UNL     1      42.577 -16.502   2.453  1.00  0.00     0.114 C 
HETATM    6  C   UNL     1      41.521 -17.411   3.088  1.00  0.00     0.035 C 
BRANCH   5   7
HETATM    7  C   UNL     1      43.730 -17.279   1.761  1.00  0.00     0.173 C 
BRANCH   7   8
HETATM    8  O   UNL     1      43.540 -17.300   0.339  1.00  0.00    -0.389 OA
HETATM    9  H   UNL     1      42.621 -17.019   0.179  1.00  0.00     0.210 HD
ENDBRANCH   7   8
BRANCH   7  10
HETATM   10  C   UNL     1      43.951 -18.681   2.296  1.00  0.00    -0.028 A 
HETATM   11  C   UNL     1      44.516 -18.860   3.565  1.00  0.00     0.012 A 
HETATM   12  C   UNL     1      44.723 -20.143   4.075  1.00  0.00     0.037 A 
HETATM   13  C   UNL     1      44.361 -21.272   3.337  1.00  0.00     0.068 A 
HETATM   14  C   UNL     1      43.796 -21.104   2.074  1.00  0.00     0.037 A 
HETATM   15  C   UNL     1      43.594 -19.818   1.557  1.00  0.00     0.012 A 
BRANCH  13  16
HETATM   16  O   UNL     1      44.613 -22.465   3.956  1.00  0.00    -0.356 OA
HETATM   17  C   UNL     1      45.098 -22.406   5.291  1.00  0.00     0.210 C 
ENDBRANCH  13  16
ENDBRANCH   7  10
ENDBRANCH   5   7
ENDBRANCH   1   5
BRANCH   2  18
HETATM   18  C   UNL     1      41.197 -13.543   0.486  1.00  0.00     0.126 A 
HETATM   19  N   UNL     1      40.609 -14.319  -0.468  1.00  0.00    -0.224 NA
HETATM   20  C   UNL     1      39.826 -13.680  -1.379  1.00  0.00     0.151 A 
HETATM   21  C   UNL     1      39.599 -12.304  -1.350  1.00  0.00     0.052 A 
HETATM   22  C   UNL     1      40.208 -11.543  -0.354  1.00  0.00     0.006 A 
HETATM   23  C   UNL     1      41.027 -12.168   0.579  1.00  0.00     0.037 A 
BRANCH  20  24
HETATM   24  N   UNL     1      39.229 -14.459  -2.417  1.00  0.00    -0.227 N 
HETATM   25  N   UNL     1      37.885 -14.475  -2.639  1.00  0.00    -0.179 NA
HETATM   26  C   UNL     1      37.731 -15.289  -3.685  1.00  0.00     0.141 A 
HETATM   27  C   UNL     1      38.949 -15.808  -4.151  1.00  0.00     0.040 A 
HETATM   28  C   UNL     1      39.895 -15.264  -3.318  1.00  0.00     0.122 A 
ENDBRANCH  20  24
ENDBRANCH   2  18
TORSDOF 7
ENDMDL
MODEL 7
REMARK VINA RESULT:      -7.5      5.098      8.184
REMARK  7 active torsions:
REMARK  status: ('A' for Active; 'I' for Inactive)
REMARK    1  A    between atoms: C_2  and  N_3 
REMARK    2  A    between atoms: C_2  and  C_17 
REMARK       I    between atoms: N_3  and  C_4 
REMARK    3  A    between atoms: C_4  and  C_5 
REMARK    4  A    between atoms: C_7  and  N_8 
REMARK    5  A    between atoms: C_17  and  O_18 
REMARK    6  A    between atoms: C_17  and  C_19 
REMARK    7  A    between atoms: C_22  and  O_23 
ROOT
HETATM    1  N   UNL     1      41.306 -15.948   3.738  1.00  0.00    -0.349 N 
HETATM    2  C   UNL     1      41.546 -16.391   5.019  1.00  0.00     0.270 C 
HETATM    3  O   UNL     1      40.856 -16.095   5.988  1.00  0.00    -0.266 OA
HETATM    4  H   UNL     1      42.023 -16.150   3.044  1.00  0.00     0.163 HD
ENDROOT
BRANCH   1   5
HETATM    5  C   UNL     1      40.275 -14.964   3.402  1.00  0.00     0.114 C 
HETATM    6  C   UNL     1      40.935 -13.602   3.173  1.00  0.00     0.035 C 
BRANCH   5   7
HETATM    7  C   UNL     1      39.459 -15.471   2.182  1.00  0.00     0.173 C 
BRANCH   7   8
HETATM    8  O   UNL     1      39.517 -16.902   2.098  1.00  0.00    -0.389 OA
HETATM    9  H   UNL     1      39.661 -17.227   3.005  1.00  0.00     0.210 HD
ENDBRANCH   7   8
BRANCH   7  10
HETATM   10  C   UNL     1      39.848 -14.838   0.860  1.00  0.00    -0.028 A 
HETATM   11  C   UNL     1      40.975 -15.303   0.171  1.00  0.00     0.012 A 
HETATM   12  C   UNL     1      41.345 -14.735  -1.050  1.00  0.00     0.037 A 
HETATM   13  C   UNL     1      40.595 -13.701  -1.613  1.00  0.00     0.068 A 
HETATM   14  C   UNL     1      39.470 -13.232  -0.936  1.00  0.00     0.037 A 
HETATM   15  C   UNL     1      39.101 -13.795   0.292  1.00  0.00     0.012 A 
BRANCH  13  16
HETATM   16  O   UNL     1      41.065 -13.240  -2.811  1.00  0.00    -0.356 OA
HETATM   17  C   UNL     1      40.191 -12.414  -3.569  1.00  0.00     0.210 C 
ENDBRANCH  13  16
ENDBRANCH   7  10
ENDBRANCH   5   7
ENDBRANCH   1   5
BRANCH   2  18
HETATM   18  C   UNL     1      42.749 -17.275   5.153  1.00  0.00     0.126 A 
HETATM   19  N   UNL     1      42.855 -18.291   4.251  1.00  0.00    -0.224 NA
HETATM   20  C   UNL     1      43.935 -19.109   4.375  1.00  0.00     0.151 A 
HETATM   21  C   UNL     1      44.914 -18.927   5.352  1.00  0.00     0.052 A 
HETATM   22  C   UNL     1      44.780 -17.871   6.251  1.00  0.00     0.006 A 
HETATM   23  C   UNL     1      43.676 -17.031   6.158  1.00  0.00     0.037 A 
BRANCH  20  24
HETATM   24  N   UNL     1      44.053 -20.210   3.472  1.00  0.00    -0.227 N 
HETATM   25  N   UNL     1      44.667 -21.376   3.816  1.00  0.00    -0.179 NA
HETATM   26  C   UNL     1      44.554 -22.143   2.730  1.00  0.00     0.141 A 
HETATM   27  C   UNL     1      43.880 -21.499   1.680  1.00  0.00     0.040 A 
HETATM   28  C   UNL     1      43.572 -20.258   2.180  1.00  0.00     0.122 A 
ENDBRANCH  20  24
ENDBRANCH   2  18
TORSDOF 7
ENDMDL
MODEL 8
REMARK VINA RESULT:      -7.4      4.736      8.464
REMARK  7 active torsions:
REMARK  status: ('A' for Active; 'I' for Inactive)
REMARK    1  A    between atoms: C_2  and  N_3 
REMARK    2  A    between atoms: C_2  and  C_17 
REMARK       I    between atoms: N_3  and  C_4 
REMARK    3  A    between atoms: C_4  and  C_5 
REMARK    4  A    between atoms: C_7  and  N_8 
REMARK    5  A    between atoms: C_17  and  O_18 
REMARK    6  A    between atoms: C_17  and  C_19 
REMARK    7  A    between atoms: C_22  and  O_23 
ROOT
HETATM    1  N   UNL     1      41.905 -16.291   2.877  1.00  0.00    -0.349 N 
HETATM    2  C   UNL     1      42.960 -15.913   3.676  1.00  0.00     0.270 C 
HETATM    3  O   UNL     1      43.378 -14.765   3.761  1.00  0.00    -0.266 OA
HETATM    4  H   UNL     1      41.736 -17.291   2.787  1.00  0.00     0.163 HD
ENDROOT
BRANCH   1   5
HETATM    5  C   UNL     1      41.241 -15.390   1.932  1.00  0.00     0.114 C 
HETATM    6  C   UNL     1      41.372 -15.960   0.517  1.00  0.00     0.035 C 
BRANCH   5   7
HETATM    7  C   UNL     1      39.770 -15.170   2.378  1.00  0.00     0.173 C 
BRANCH   7   8
HETATM    8  O   UNL     1      38.917 -15.010   1.236  1.00  0.00    -0.389 OA
HETATM    9  H   UNL     1      39.208 -15.668   0.579  1.00  0.00     0.210 HD
ENDBRANCH   7   8
BRANCH   7  10
HETATM   10  C   UNL     1      39.576 -14.030   3.359  1.00  0.00    -0.028 A 
HETATM   11  C   UNL     1      39.803 -14.242   4.725  1.00  0.00     0.012 A 
HETATM   12  C   UNL     1      39.633 -13.202   5.643  1.00  0.00     0.037 A 
HETATM   13  C   UNL     1      39.245 -11.931   5.217  1.00  0.00     0.068 A 
HETATM   14  C   UNL     1      39.020 -11.709   3.860  1.00  0.00     0.037 A 
HETATM   15  C   UNL     1      39.182 -12.752   2.939  1.00  0.00     0.012 A 
BRANCH  13  16
HETATM   16  O   UNL     1      39.121 -11.006   6.216  1.00  0.00    -0.356 OA
HETATM   17  C   UNL     1      39.555 -11.399   7.512  1.00  0.00     0.210 C 
ENDBRANCH  13  16
ENDBRANCH   7  10
ENDBRANCH   5   7
ENDBRANCH   1   5
BRANCH   2  18
HETATM   18  C   UNL     1      43.585 -17.035   4.448  1.00  0.00     0.126 A 
HETATM   19  N   UNL     1      43.734 -18.215   3.782  1.00  0.00    -0.224 NA
HETATM   20  C   UNL     1      44.286 -19.246   4.480  1.00  0.00     0.151 A 
HETATM   21  C   UNL     1      44.709 -19.122   5.803  1.00  0.00     0.052 A 
HETATM   22  C   UNL     1      44.552 -17.897   6.449  1.00  0.00     0.006 A 
HETATM   23  C   UNL     1      43.974 -16.834   5.765  1.00  0.00     0.037 A 
BRANCH  20  24
HETATM   24  N   UNL     1      44.417 -20.508   3.825  1.00  0.00    -0.227 N 
HETATM   25  N   UNL     1      44.744 -21.649   4.494  1.00  0.00    -0.179 NA
HETATM   26  C   UNL     1      44.746 -22.595   3.553  1.00  0.00     0.141 A 
HETATM   27  C   UNL     1      44.431 -22.095   2.280  1.00  0.00     0.040 A 
HETATM   28  C   UNL     1      44.228 -20.752   2.480  1.00  0.00     0.122 A 
ENDBRANCH  20  24
ENDBRANCH   2  18
TORSDOF 7
ENDMDL
MODEL 9
REMARK VINA RESULT:      -7.3      5.152      8.873
REMARK  7 active torsions:
REMARK  status: ('A' for Active; 'I' for Inactive)
REMARK    1  A    between atoms: C_2  and  N_3 
REMARK    2  A    between atoms: C_2  and  C_17 
REMARK       I    between atoms: N_3  and  C_4 
REMARK    3  A    between atoms: C_4  and  C_5 
REMARK    4  A    between atoms: C_7  and  N_8 
REMARK    5  A    between atoms: C_17  and  O_18 
REMARK    6  A    between atoms: C_17  and  C_19 
REMARK    7  A    between atoms: C_22  and  O_23 
ROOT
HETATM    1  N   UNL     1      41.969 -15.976   2.945  1.00  0.00    -0.349 N 
HETATM    2  C   UNL     1      42.545 -15.787   4.180  1.00  0.00     0.270 C 
HETATM    3  O   UNL     1      42.421 -14.767   4.847  1.00  0.00    -0.266 OA
HETATM    4  H   UNL     1      42.254 -16.807   2.431  1.00  0.00     0.163 HD
ENDROOT
BRANCH   1   5
HETATM    5  C   UNL     1      41.246 -14.928   2.220  1.00  0.00     0.114 C 
HETATM    6  C   UNL     1      41.584 -15.022   0.730  1.00  0.00     0.035 C 
BRANCH   5   7
HETATM    7  C   UNL     1      39.727 -15.049   2.521  1.00  0.00     0.173 C 
BRANCH   7   8
HETATM    8  O   UNL     1      39.210 -16.284   2.004  1.00  0.00    -0.389 OA
HETATM    9  H   UNL     1      38.617 -16.049   1.268  1.00  0.00     0.210 HD
ENDBRANCH   7   8
BRANCH   7  10
HETATM   10  C   UNL     1      38.897 -13.875   2.040  1.00  0.00    -0.028 A 
HETATM   11  C   UNL     1      37.962 -14.058   1.013  1.00  0.00     0.012 A 
HETATM   12  C   UNL     1      37.186 -12.988   0.561  1.00  0.00     0.037 A 
HETATM   13  C   UNL     1      37.317 -11.720   1.129  1.00  0.00     0.068 A 
HETATM   14  C   UNL     1      38.243 -11.529   2.154  1.00  0.00     0.037 A 
HETATM   15  C   UNL     1      39.028 -12.597   2.604  1.00  0.00     0.012 A 
BRANCH  13  16
HETATM   16  O   UNL     1      36.494 -10.767   0.597  1.00  0.00    -0.356 OA
HETATM   17  C   UNL     1      35.135 -11.132   0.396  1.00  0.00     0.210 C 
ENDBRANCH  13  16
ENDBRANCH   7  10
ENDBRANCH   5   7
ENDBRANCH   1   5
BRANCH   2  18
HETATM   18  C   UNL     1      43.368 -16.943   4.663  1.00  0.00     0.126 A 
HETATM   19  N   UNL     1      43.414 -18.033   3.846  1.00  0.00    -0.224 NA
HETATM   20  C   UNL     1      44.144 -19.095   4.283  1.00  0.00     0.151 A 
HETATM   21  C   UNL     1      44.841 -19.087   5.491  1.00  0.00     0.052 A 
HETATM   22  C   UNL     1      44.781 -17.952   6.296  1.00  0.00     0.006 A 
HETATM   23  C   UNL     1      44.027 -16.860   5.882  1.00  0.00     0.037 A 
BRANCH  20  24
HETATM   24  N   UNL     1      44.179 -20.269   3.470  1.00  0.00    -0.227 N 
HETATM   25  N   UNL     1      43.665 -20.302   2.209  1.00  0.00    -0.179 NA
HETATM   26  C   UNL     1      43.906 -21.543   1.785  1.00  0.00     0.141 A 
HETATM   27  C   UNL     1      44.565 -22.326   2.745  1.00  0.00     0.040 A 
HETATM   28  C   UNL     1      44.726 -21.486   3.820  1.00  0.00     0.122 A 
ENDBRANCH  20  24
ENDBRANCH   2  18
TORSDOF 7
ENDMDL
MODEL 10
REMARK VINA RESULT:      -7.3      5.007      7.908
REMARK  7 active torsions:
REMARK  status: ('A' for Active; 'I' for Inactive)
REMARK    1  A    between atoms: C_2  and  N_3 
REMARK    2  A    between atoms: C_2  and  C_17 
REMARK       I    between atoms: N_3  and  C_4 
REMARK    3  A    between atoms: C_4  and  C_5 
REMARK    4  A    between atoms: C_7  and  N_8 
REMARK    5  A    between atoms: C_17  and  O_18 
REMARK    6  A    between atoms: C_17  and  C_19 
REMARK    7  A    between atoms: C_22  and  O_23 
ROOT
HETATM    1  N   UNL     1      42.393 -14.979   3.313  1.00  0.00    -0.349 N 
HETATM    2  C   UNL     1      42.088 -16.313   3.458  1.00  0.00     0.270 C 
HETATM    3  O   UNL     1      41.138 -16.863   2.913  1.00  0.00    -0.266 OA
HETATM    4  H   UNL     1      43.122 -14.609   3.919  1.00  0.00     0.163 HD
ENDROOT
BRANCH   1   5
HETATM    5  C   UNL     1      41.543 -14.028   2.594  1.00  0.00     0.114 C 
HETATM    6  C   UNL     1      41.047 -12.957   3.570  1.00  0.00     0.035 C 
BRANCH   5   7
HETATM    7  C   UNL     1      42.327 -13.448   1.385  1.00  0.00     0.173 C 
BRANCH   7   8
HETATM    8  O   UNL     1      42.368 -12.016   1.452  1.00  0.00    -0.389 OA
HETATM    9  H   UNL     1      42.645 -11.705   0.571  1.00  0.00     0.210 HD
ENDBRANCH   7   8
BRANCH   7  10
HETATM   10  C   UNL     1      41.824 -13.910   0.031  1.00  0.00    -0.028 A 
HETATM   11  C   UNL     1      41.771 -13.004  -1.037  1.00  0.00     0.012 A 
HETATM   12  C   UNL     1      41.314 -13.413  -2.292  1.00  0.00     0.037 A 
HETATM   13  C   UNL     1      40.913 -14.732  -2.511  1.00  0.00     0.068 A 
HETATM   14  C   UNL     1      40.964 -15.641  -1.456  1.00  0.00     0.037 A 
HETATM   15  C   UNL     1      41.414 -15.232  -0.194  1.00  0.00     0.012 A 
BRANCH  13  16
HETATM   16  O   UNL     1      40.493 -14.998  -3.785  1.00  0.00    -0.356 OA
HETATM   17  C   UNL     1      39.394 -15.889  -3.926  1.00  0.00     0.210 C 
ENDBRANCH  13  16
ENDBRANCH   7  10
ENDBRANCH   5   7
ENDBRANCH   1   5
BRANCH   2  18
HETATM   18  C   UNL     1      43.016 -17.065   4.364  1.00  0.00     0.126 A 
HETATM   19  N   UNL     1      43.297 -18.350   4.006  1.00  0.00    -0.224 NA
HETATM   20  C   UNL     1      44.125 -19.047   4.831  1.00  0.00     0.151 A 
HETATM   21  C   UNL     1      44.692 -18.492   5.979  1.00  0.00     0.052 A 
HETATM   22  C   UNL     1      44.391 -17.172   6.307  1.00  0.00     0.006 A 
HETATM   23  C   UNL     1      43.533 -16.443   5.492  1.00  0.00     0.037 A 
BRANCH  20  24
HETATM   24  N   UNL     1      44.406 -20.410   4.508  1.00  0.00    -0.227 N 
HETATM   25  N   UNL     1      44.664 -21.350   5.460  1.00  0.00    -0.179 NA
HETATM   26  C   UNL     1      44.852 -22.476   4.771  1.00  0.00     0.141 A 
HETATM   27  C   UNL     1      44.725 -22.292   3.386  1.00  0.00     0.040 A 
HETATM   28  C   UNL     1      44.442 -20.956   3.242  1.00  0.00     0.122 A 
ENDBRANCH  20  24
ENDBRANCH   2  18
TORSDOF 7
ENDMDL
