MODEL 1
REMARK VINA RESULT:      -8.4      0.000      0.000
REMARK  8 active torsions:
REMARK  status: ('A' for Active; 'I' for Inactive)
REMARK    1  A    between atoms: C_3  and  N_4 
REMARK       I    between atoms: N_4  and  C_5 
REMARK    2  A    between atoms: C_5  and  C_6 
REMARK    3  A    between atoms: C_7  and  C_8 
REMARK    4  A    between atoms: C_17  and  C_18 
REMARK    5  A    between atoms: C_20  and  O_21 
REMARK    6  A    between atoms: C_23  and  O_24 
REMARK    7  A    between atoms: O_24  and  C_25 
REMARK    8  A    between atoms: C_25  and  C_26 
REMARK       I    between atoms: C_26  and  N_27 
ROOT
HETATM    1  C   UNL     1      43.874 -14.672   5.829  1.00  0.00     0.062 C 
HETATM    2  C   UNL     1      43.143 -14.059   4.659  1.00  0.00     0.176 C 
HETATM    3  N   UNL     1      42.799 -15.106   3.710  1.00  0.00    -0.277 N 
HETATM    4  C   UNL     1      42.809 -16.414   4.075  1.00  0.00     0.177 C 
HETATM    5  S   UNL     1      42.155 -17.426   2.820  1.00  0.00    -0.046 SA
HETATM    6  C   UNL     1      41.798 -16.063   1.817  1.00  0.00     0.077 C 
HETATM    7  C   UNL     1      41.045 -16.148   0.711  1.00  0.00     0.036 C 
HETATM    8  C   UNL     1      42.358 -14.823   2.438  1.00  0.00     0.267 C 
HETATM    9  O   UNL     1      42.437 -13.739   1.883  1.00  0.00    -0.266 OA
HETATM   10  N   UNL     1      43.260 -16.887   5.186  1.00  0.00    -0.228 NA
HETATM   11  C   UNL     1      43.847 -16.001   6.064  1.00  0.00     0.047 C 
HETATM   12  C   UNL     1      44.411 -16.660   7.298  1.00  0.00     0.071 C 
ENDROOT
BRANCH   7  13
HETATM   13  C   UNL     1      40.562 -14.994  -0.049  1.00  0.00    -0.032 A 
HETATM   14  C   UNL     1      41.218 -14.635  -1.238  1.00  0.00     0.051 A 
HETATM   15  C   UNL     1      40.757 -13.564  -2.009  1.00  0.00     0.102 A 
HETATM   16  C   UNL     1      39.632 -12.848  -1.571  1.00  0.00     0.102 A 
HETATM   17  C   UNL     1      38.972 -13.205  -0.390  1.00  0.00     0.040 A 
HETATM   18  C   UNL     1      39.444 -14.273   0.375  1.00  0.00     0.014 A 
BRANCH  15  19
HETATM   19  O   UNL     1      41.328 -13.131  -3.179  1.00  0.00    -0.353 OA
HETATM   20  C   UNL     1      42.504 -12.340  -3.076  1.00  0.00     0.210 C 
ENDBRANCH  15  19
BRANCH  16  21
HETATM   21  O   UNL     1      39.162 -11.849  -2.384  1.00  0.00    -0.339 OA
BRANCH  21  22
HETATM   22  C   UNL     1      37.740 -11.832  -2.511  1.00  0.00     0.278 C 
BRANCH  22  23
HETATM   23  C   UNL     1      37.345 -12.554  -3.796  1.00  0.00     0.239 C 
HETATM   24  N   UNL     1      37.215 -11.757  -4.900  1.00  0.00    -0.368 N 
HETATM   25  H   UNL     1      37.589 -10.813  -4.871  1.00  0.00     0.159 HD
HETATM   26  H   UNL     1      37.037 -12.195  -5.792  1.00  0.00     0.159 HD
HETATM   27  O   UNL     1      37.101 -13.755  -3.848  1.00  0.00    -0.271 OA
ENDBRANCH  22  23
ENDBRANCH  21  22
ENDBRANCH  16  21
ENDBRANCH   7  13
BRANCH   2  28
HETATM   28  C   UNL     1      41.845 -13.354   5.033  1.00  0.00     0.011 A 
HETATM   29  S   UNL     1      41.588 -11.725   4.550  1.00  0.00    -0.104 SA
HETATM   30  C   UNL     1      40.038 -11.688   5.265  1.00  0.00     0.050 A 
HETATM   31  C   UNL     1      39.717 -12.881   5.870  1.00  0.00     0.008 A 
HETATM   32  C   UNL     1      40.760 -13.843   5.740  1.00  0.00     0.017 A 
ENDBRANCH   2  28
BRANCH   1  33
HETATM   33  C   UNL     1      44.581 -13.695   6.701  1.00  0.00     0.256 C 
HETATM   34  N   UNL     1      43.799 -13.223   7.735  1.00  0.00    -0.323 N 
HETATM   35  H   UNL     1      42.838 -13.536   7.758  1.00  0.00     0.169 HD
HETATM   36  O   UNL     1      45.754 -13.430   6.477  1.00  0.00    -0.267 OA
BRANCH  34  37
HETATM   37  C   UNL     1      44.177 -12.322   8.761  1.00  0.00     0.041 A 
HETATM   38  C   UNL     1      43.371 -11.188   9.007  1.00  0.00    -0.035 A 
HETATM   39  C   UNL     1      42.146 -10.875   8.191  1.00  0.00     0.050 C 
HETATM   40  C   UNL     1      43.732 -10.292  10.030  1.00  0.00     0.009 A 
HETATM   41  C   UNL     1      44.867 -10.511  10.806  1.00  0.00     0.001 A 
HETATM   42  C   UNL     1      45.658 -11.627  10.567  1.00  0.00     0.002 A 
HETATM   43  C   UNL     1      45.316 -12.524   9.551  1.00  0.00     0.030 A 
ENDBRANCH  34  37
ENDBRANCH   1  33
TORSDOF 8
ENDMDL
MODEL 2
REMARK VINA RESULT:      -8.3      1.127      1.535
REMARK  8 active torsions:
REMARK  status: ('A' for Active; 'I' for Inactive)
REMARK    1  A    between atoms: C_3  and  N_4 
REMARK       I    between atoms: N_4  and  C_5 
REMARK    2  A    between atoms: C_5  and  C_6 
REMARK    3  A    between atoms: C_7  and  C_8 
REMARK    4  A    between atoms: C_17  and  C_18 
REMARK    5  A    between atoms: C_20  and  O_21 
REMARK    6  A    between atoms: C_23  and  O_24 
REMARK    7  A    between atoms: O_24  and  C_25 
REMARK    8  A    between atoms: C_25  and  C_26 
REMARK       I    between atoms: C_26  and  N_27 
ROOT
HETATM    1  C   UNL     1      43.855 -14.623   5.835  1.00  0.00     0.062 C 
HETATM    2  C   UNL     1      43.111 -13.990   4.684  1.00  0.00     0.176 C 
HETATM    3  N   UNL     1      42.754 -15.022   3.722  1.00  0.00    -0.277 N 
HETATM    4  C   UNL     1      42.767 -16.335   4.067  1.00  0.00     0.177 C 
HETATM    5  S   UNL     1      42.097 -17.327   2.804  1.00  0.00    -0.046 SA
HETATM    6  C   UNL     1      41.730 -15.948   1.827  1.00  0.00     0.077 C 
HETATM    7  C   UNL     1      40.963 -16.015   0.729  1.00  0.00     0.036 C 
HETATM    8  C   UNL     1      42.298 -14.718   2.461  1.00  0.00     0.267 C 
HETATM    9  O   UNL     1      42.372 -13.626   1.922  1.00  0.00    -0.266 OA
HETATM   10  N   UNL     1      43.231 -16.826   5.164  1.00  0.00    -0.228 NA
HETATM   11  C   UNL     1      43.830 -15.955   6.049  1.00  0.00     0.047 C 
HETATM   12  C   UNL     1      44.408 -16.633   7.265  1.00  0.00     0.071 C 
ENDROOT
BRANCH   7  13
HETATM   13  C   UNL     1      40.472 -14.849  -0.007  1.00  0.00    -0.032 A 
HETATM   14  C   UNL     1      41.190 -14.394  -1.125  1.00  0.00     0.051 A 
HETATM   15  C   UNL     1      40.726 -13.308  -1.874  1.00  0.00     0.102 A 
HETATM   16  C   UNL     1      39.534 -12.676  -1.486  1.00  0.00     0.102 A 
HETATM   17  C   UNL     1      38.813 -13.129  -0.376  1.00  0.00     0.040 A 
HETATM   18  C   UNL     1      39.288 -14.210   0.368  1.00  0.00     0.014 A 
BRANCH  15  19
HETATM   19  O   UNL     1      41.353 -12.785  -2.976  1.00  0.00    -0.353 OA
HETATM   20  C   UNL     1      42.766 -12.643  -2.915  1.00  0.00     0.210 C 
ENDBRANCH  15  19
BRANCH  16  21
HETATM   21  O   UNL     1      39.069 -11.661  -2.280  1.00  0.00    -0.339 OA
BRANCH  21  22
HETATM   22  C   UNL     1      38.946 -10.410  -1.603  1.00  0.00     0.278 C 
BRANCH  22  23
HETATM   23  C   UNL     1      40.309  -9.725  -1.569  1.00  0.00     0.239 C 
HETATM   24  N   UNL     1      40.910  -9.556  -2.784  1.00  0.00    -0.368 N 
HETATM   25  H   UNL     1      40.357  -9.677  -3.628  1.00  0.00     0.159 HD
HETATM   26  H   UNL     1      41.774  -9.034  -2.827  1.00  0.00     0.159 HD
HETATM   27  O   UNL     1      40.870  -9.391  -0.530  1.00  0.00    -0.271 OA
ENDBRANCH  22  23
ENDBRANCH  21  22
ENDBRANCH  16  21
ENDBRANCH   7  13
BRANCH   2  28
HETATM   28  C   UNL     1      41.818 -13.291   5.085  1.00  0.00     0.011 A 
HETATM   29  S   UNL     1      41.560 -11.651   4.639  1.00  0.00    -0.104 SA
HETATM   30  C   UNL     1      40.017 -11.626   5.369  1.00  0.00     0.050 A 
HETATM   31  C   UNL     1      39.699 -12.831   5.951  1.00  0.00     0.008 A 
HETATM   32  C   UNL     1      40.738 -13.792   5.790  1.00  0.00     0.017 A 
ENDBRANCH   2  28
BRANCH   1  33
HETATM   33  C   UNL     1      44.574 -13.660   6.714  1.00  0.00     0.256 C 
HETATM   34  N   UNL     1      43.800 -13.194   7.758  1.00  0.00    -0.323 N 
HETATM   35  H   UNL     1      42.837 -13.501   7.783  1.00  0.00     0.169 HD
HETATM   36  O   UNL     1      45.747 -13.400   6.486  1.00  0.00    -0.267 OA
BRANCH  34  37
HETATM   37  C   UNL     1      44.190 -12.308   8.792  1.00  0.00     0.041 A 
HETATM   38  C   UNL     1      43.387 -11.177   9.062  1.00  0.00    -0.035 A 
HETATM   39  C   UNL     1      42.152 -10.853   8.264  1.00  0.00     0.050 C 
HETATM   40  C   UNL     1      43.760 -10.295  10.093  1.00  0.00     0.009 A 
HETATM   41  C   UNL     1      44.904 -10.525  10.853  1.00  0.00     0.001 A 
HETATM   42  C   UNL     1      45.692 -11.637  10.589  1.00  0.00     0.002 A 
HETATM   43  C   UNL     1      45.339 -12.520   9.565  1.00  0.00     0.030 A 
ENDBRANCH  34  37
ENDBRANCH   1  33
TORSDOF 8
ENDMDL
MODEL 3
REMARK VINA RESULT:      -8.3      3.849      9.134
REMARK  8 active torsions:
REMARK  status: ('A' for Active; 'I' for Inactive)
REMARK    1  A    between atoms: C_3  and  N_4 
REMARK       I    between atoms: N_4  and  C_5 
REMARK    2  A    between atoms: C_5  and  C_6 
REMARK    3  A    between atoms: C_7  and  C_8 
REMARK    4  A    between atoms: C_17  and  C_18 
REMARK    5  A    between atoms: C_20  and  O_21 
REMARK    6  A    between atoms: C_23  and  O_24 
REMARK    7  A    between atoms: O_24  and  C_25 
REMARK    8  A    between atoms: C_25  and  C_26 
REMARK       I    between atoms: C_26  and  N_27 
ROOT
HETATM    1  C   UNL     1      42.236 -16.005   2.095  1.00  0.00     0.062 C 
HETATM    2  C   UNL     1      42.243 -15.082   3.289  1.00  0.00     0.176 C 
HETATM    3  N   UNL     1      41.443 -13.905   2.988  1.00  0.00    -0.277 N 
HETATM    4  C   UNL     1      40.558 -13.905   1.957  1.00  0.00     0.177 C 
HETATM    5  S   UNL     1      39.589 -12.460   1.955  1.00  0.00    -0.046 SA
HETATM    6  C   UNL     1      40.337 -11.879   3.403  1.00  0.00     0.077 C 
HETATM    7  C   UNL     1      39.869 -10.831   4.095  1.00  0.00     0.036 C 
HETATM    8  C   UNL     1      41.470 -12.781   3.778  1.00  0.00     0.267 C 
HETATM    9  O   UNL     1      42.304 -12.533   4.634  1.00  0.00    -0.266 OA
HETATM   10  N   UNL     1      40.438 -14.823   1.061  1.00  0.00    -0.228 NA
HETATM   11  C   UNL     1      41.328 -15.876   1.104  1.00  0.00     0.047 C 
HETATM   12  C   UNL     1      41.157 -16.857  -0.028  1.00  0.00     0.071 C 
ENDROOT
BRANCH   7  13
HETATM   13  C   UNL     1      40.354 -10.434   5.419  1.00  0.00    -0.032 A 
HETATM   14  C   UNL     1      39.764 -10.998   6.561  1.00  0.00     0.051 A 
HETATM   15  C   UNL     1      40.231 -10.671   7.837  1.00  0.00     0.102 A 
HETATM   16  C   UNL     1      41.295  -9.763   7.959  1.00  0.00     0.102 A 
HETATM   17  C   UNL     1      41.888  -9.202   6.824  1.00  0.00     0.040 A 
HETATM   18  C   UNL     1      41.411  -9.531   5.554  1.00  0.00     0.014 A 
BRANCH  15  19
HETATM   19  O   UNL     1      39.722 -11.162   9.014  1.00  0.00    -0.353 OA
HETATM   20  C   UNL     1      38.586 -10.502   9.556  1.00  0.00     0.210 C 
ENDBRANCH  15  19
BRANCH  16  21
HETATM   21  O   UNL     1      41.776  -9.517   9.219  1.00  0.00    -0.339 OA
BRANCH  21  22
HETATM   22  C   UNL     1      42.902 -10.322   9.571  1.00  0.00     0.278 C 
BRANCH  22  23
HETATM   23  C   UNL     1      42.755 -10.778  11.019  1.00  0.00     0.239 C 
HETATM   24  N   UNL     1      41.668 -11.566  11.279  1.00  0.00    -0.368 N 
HETATM   25  H   UNL     1      41.163 -11.978  10.500  1.00  0.00     0.159 HD
HETATM   26  H   UNL     1      41.570 -11.963  12.202  1.00  0.00     0.159 HD
HETATM   27  O   UNL     1      43.516 -10.429  11.917  1.00  0.00    -0.271 OA
ENDBRANCH  22  23
ENDBRANCH  21  22
ENDBRANCH  16  21
ENDBRANCH   7  13
BRANCH   2  28
HETATM   28  C   UNL     1      41.667 -15.697   4.558  1.00  0.00     0.011 A 
HETATM   29  S   UNL     1      42.627 -15.775   5.982  1.00  0.00    -0.104 SA
HETATM   30  C   UNL     1      41.365 -16.503   6.873  1.00  0.00     0.050 A 
HETATM   31  C   UNL     1      40.237 -16.697   6.110  1.00  0.00     0.008 A 
HETATM   32  C   UNL     1      40.410 -16.235   4.773  1.00  0.00     0.017 A 
ENDBRANCH   2  28
BRANCH   1  33
HETATM   33  C   UNL     1      43.276 -17.070   2.126  1.00  0.00     0.256 C 
HETATM   34  N   UNL     1      42.813 -18.267   2.634  1.00  0.00    -0.323 N 
HETATM   35  H   UNL     1      41.861 -18.279   2.975  1.00  0.00     0.169 HD
HETATM   36  O   UNL     1      44.391 -16.833   1.683  1.00  0.00    -0.267 OA
BRANCH  34  37
HETATM   37  C   UNL     1      43.527 -19.484   2.760  1.00  0.00     0.041 A 
HETATM   38  C   UNL     1      44.310 -19.700   3.916  1.00  0.00    -0.035 A 
HETATM   39  C   UNL     1      44.450 -18.667   5.003  1.00  0.00     0.050 C 
HETATM   40  C   UNL     1      45.016 -20.908   4.056  1.00  0.00     0.009 A 
HETATM   41  C   UNL     1      44.949 -21.895   3.077  1.00  0.00     0.001 A 
HETATM   42  C   UNL     1      44.177 -21.685   1.942  1.00  0.00     0.002 A 
HETATM   43  C   UNL     1      43.474 -20.487   1.784  1.00  0.00     0.030 A 
ENDBRANCH  34  37
ENDBRANCH   1  33
TORSDOF 8
ENDMDL
MODEL 4
REMARK VINA RESULT:      -8.2      3.738      9.677
REMARK  8 active torsions:
REMARK  status: ('A' for Active; 'I' for Inactive)
REMARK    1  A    between atoms: C_3  and  N_4 
REMARK       I    between atoms: N_4  and  C_5 
REMARK    2  A    between atoms: C_5  and  C_6 
REMARK    3  A    between atoms: C_7  and  C_8 
REMARK    4  A    between atoms: C_17  and  C_18 
REMARK    5  A    between atoms: C_20  and  O_21 
REMARK    6  A    between atoms: C_23  and  O_24 
REMARK    7  A    between atoms: O_24  and  C_25 
REMARK    8  A    between atoms: C_25  and  C_26 
REMARK       I    between atoms: C_26  and  N_27 
ROOT
HETATM    1  C   UNL     1      42.463 -15.645   2.650  1.00  0.00     0.062 C 
HETATM    2  C   UNL     1      42.482 -15.053   4.038  1.00  0.00     0.176 C 
HETATM    3  N   UNL     1      41.827 -13.754   4.013  1.00  0.00    -0.277 N 
HETATM    4  C   UNL     1      41.019 -13.398   2.981  1.00  0.00     0.177 C 
HETATM    5  S   UNL     1      40.204 -11.895   3.306  1.00  0.00    -0.046 SA
HETATM    6  C   UNL     1      40.907 -11.780   4.882  1.00  0.00     0.077 C 
HETATM    7  C   UNL     1      40.501 -10.889   5.799  1.00  0.00     0.036 C 
HETATM    8  C   UNL     1      41.914 -12.871   5.063  1.00  0.00     0.267 C 
HETATM    9  O   UNL     1      42.709 -12.940   5.987  1.00  0.00    -0.266 OA
HETATM   10  N   UNL     1      40.868 -14.045   1.878  1.00  0.00    -0.228 NA
HETATM   11  C   UNL     1      41.642 -15.171   1.689  1.00  0.00     0.047 C 
HETATM   12  C   UNL     1      41.450 -15.815   0.339  1.00  0.00     0.071 C 
ENDROOT
BRANCH   7  13
HETATM   13  C   UNL     1      40.933 -10.890   7.198  1.00  0.00    -0.032 A 
HETATM   14  C   UNL     1      42.298 -10.742   7.493  1.00  0.00     0.051 A 
HETATM   15  C   UNL     1      42.737 -10.698   8.819  1.00  0.00     0.102 A 
HETATM   16  C   UNL     1      41.793 -10.811   9.851  1.00  0.00     0.102 A 
HETATM   17  C   UNL     1      40.432 -10.953   9.562  1.00  0.00     0.040 A 
HETATM   18  C   UNL     1      40.004 -11.002   8.235  1.00  0.00     0.014 A 
BRANCH  15  19
HETATM   19  O   UNL     1      44.045 -10.562   9.212  1.00  0.00    -0.353 OA
HETATM   20  C   UNL     1      44.881 -11.707   9.099  1.00  0.00     0.210 C 
ENDBRANCH  15  19
BRANCH  16  21
HETATM   21  O   UNL     1      42.246 -10.693  11.139  1.00  0.00    -0.339 OA
BRANCH  21  22
HETATM   22  C   UNL     1      41.372  -9.951  11.991  1.00  0.00     0.278 C 
BRANCH  22  23
HETATM   23  C   UNL     1      41.030 -10.797  13.214  1.00  0.00     0.239 C 
HETATM   24  N   UNL     1      41.483 -10.310  14.408  1.00  0.00    -0.368 N 
HETATM   25  H   UNL     1      41.808  -9.349  14.456  1.00  0.00     0.159 HD
HETATM   26  H   UNL     1      41.213 -10.787  15.257  1.00  0.00     0.159 HD
HETATM   27  O   UNL     1      40.440 -11.871  13.148  1.00  0.00    -0.271 OA
ENDBRANCH  22  23
ENDBRANCH  21  22
ENDBRANCH  16  21
ENDBRANCH   7  13
BRANCH   2  28
HETATM   28  C   UNL     1      41.762 -15.892   5.086  1.00  0.00     0.011 A 
HETATM   29  S   UNL     1      42.592 -16.374   6.512  1.00  0.00    -0.104 SA
HETATM   30  C   UNL     1      41.214 -17.180   7.121  1.00  0.00     0.050 A 
HETATM   31  C   UNL     1      40.144 -17.098   6.261  1.00  0.00     0.008 A 
HETATM   32  C   UNL     1      40.459 -16.358   5.085  1.00  0.00     0.017 A 
ENDBRANCH   2  28
BRANCH   1  33
HETATM   33  C   UNL     1      43.385 -16.796   2.453  1.00  0.00     0.256 C 
HETATM   34  N   UNL     1      42.879 -17.987   2.935  1.00  0.00    -0.323 N 
HETATM   35  H   UNL     1      41.988 -17.943   3.410  1.00  0.00     0.169 HD
HETATM   36  O   UNL     1      44.446 -16.622   1.870  1.00  0.00    -0.267 OA
BRANCH  34  37
HETATM   37  C   UNL     1      43.479 -19.268   2.869  1.00  0.00     0.041 A 
HETATM   38  C   UNL     1      44.309 -19.691   3.931  1.00  0.00    -0.035 A 
HETATM   39  C   UNL     1      44.617 -18.814   5.115  1.00  0.00     0.050 C 
HETATM   40  C   UNL     1      44.902 -20.966   3.879  1.00  0.00     0.009 A 
HETATM   41  C   UNL     1      44.677 -21.817   2.801  1.00  0.00     0.001 A 
HETATM   42  C   UNL     1      43.859 -21.403   1.758  1.00  0.00     0.002 A 
HETATM   43  C   UNL     1      43.267 -20.138   1.791  1.00  0.00     0.030 A 
ENDBRANCH  34  37
ENDBRANCH   1  33
TORSDOF 8
ENDMDL
MODEL 5
REMARK VINA RESULT:      -8.1      4.200      9.536
REMARK  8 active torsions:
REMARK  status: ('A' for Active; 'I' for Inactive)
REMARK    1  A    between atoms: C_3  and  N_4 
REMARK       I    between atoms: N_4  and  C_5 
REMARK    2  A    between atoms: C_5  and  C_6 
REMARK    3  A    between atoms: C_7  and  C_8 
REMARK    4  A    between atoms: C_17  and  C_18 
REMARK    5  A    between atoms: C_20  and  O_21 
REMARK    6  A    between atoms: C_23  and  O_24 
REMARK    7  A    between atoms: O_24  and  C_25 
REMARK    8  A    between atoms: C_25  and  C_26 
REMARK       I    between atoms: C_26  and  N_27 
ROOT
HETATM    1  C   UNL     1      41.697 -10.571   0.622  1.00  0.00     0.062 C 
HETATM    2  C   UNL     1      42.090 -12.003   0.889  1.00  0.00     0.176 C 
HETATM    3  N   UNL     1      41.674 -12.370   2.234  1.00  0.00    -0.277 N 
HETATM    4  C   UNL     1      40.751 -11.634   2.906  1.00  0.00     0.177 C 
HETATM    5  S   UNL     1      40.284 -12.410   4.392  1.00  0.00    -0.046 SA
HETATM    6  C   UNL     1      41.292 -13.778   4.070  1.00  0.00     0.077 C 
HETATM    7  C   UNL     1      41.232 -14.912   4.783  1.00  0.00     0.036 C 
HETATM    8  C   UNL     1      42.115 -13.519   2.848  1.00  0.00     0.267 C 
HETATM    9  O   UNL     1      43.052 -14.208   2.478  1.00  0.00    -0.266 OA
HETATM   10  N   UNL     1      40.279 -10.493   2.540  1.00  0.00    -0.228 NA
HETATM   11  C   UNL     1      40.797  -9.926   1.394  1.00  0.00     0.047 C 
HETATM   12  C   UNL     1      40.237  -8.560   1.091  1.00  0.00     0.071 C 
ENDROOT
BRANCH   7  13
HETATM   13  C   UNL     1      41.924 -16.151   4.421  1.00  0.00    -0.032 A 
HETATM   14  C   UNL     1      43.089 -16.512   5.117  1.00  0.00     0.051 A 
HETATM   15  C   UNL     1      43.749 -17.709   4.824  1.00  0.00     0.102 A 
HETATM   16  C   UNL     1      43.233 -18.541   3.818  1.00  0.00     0.102 A 
HETATM   17  C   UNL     1      42.070 -18.188   3.126  1.00  0.00     0.040 A 
HETATM   18  C   UNL     1      41.421 -16.988   3.422  1.00  0.00     0.014 A 
BRANCH  15  19
HETATM   19  O   UNL     1      44.894 -18.150   5.440  1.00  0.00    -0.353 OA
HETATM   20  C   UNL     1      44.834 -18.371   6.843  1.00  0.00     0.210 C 
ENDBRANCH  15  19
BRANCH  16  21
HETATM   21  O   UNL     1      43.862 -19.740   3.603  1.00  0.00    -0.339 OA
BRANCH  21  22
HETATM   22  C   UNL     1      43.847 -20.160   2.239  1.00  0.00     0.278 C 
BRANCH  22  23
HETATM   23  C   UNL     1      44.098 -21.664   2.177  1.00  0.00     0.239 C 
HETATM   24  N   UNL     1      44.536 -22.233   3.340  1.00  0.00    -0.368 N 
HETATM   25  H   UNL     1      44.459 -21.705   4.205  1.00  0.00     0.159 HD
HETATM   26  H   UNL     1      44.638 -23.237   3.377  1.00  0.00     0.159 HD
HETATM   27  O   UNL     1      43.977 -22.327   1.151  1.00  0.00    -0.271 OA
ENDBRANCH  22  23
ENDBRANCH  21  22
ENDBRANCH  16  21
ENDBRANCH   7  13
BRANCH   2  28
HETATM   28  C   UNL     1      41.457 -13.012  -0.061  1.00  0.00     0.011 A 
HETATM   29  S   UNL     1      39.750 -13.046  -0.258  1.00  0.00    -0.104 SA
HETATM   30  C   UNL     1      39.840 -14.312  -1.401  1.00  0.00     0.050 A 
HETATM   31  C   UNL     1      41.136 -14.714  -1.627  1.00  0.00     0.008 A 
HETATM   32  C   UNL     1      42.070 -13.967  -0.853  1.00  0.00     0.017 A 
ENDBRANCH   2  28
BRANCH   1  33
HETATM   33  C   UNL     1      42.353  -9.958  -0.565  1.00  0.00     0.256 C 
HETATM   34  N   UNL     1      41.578 -10.018  -1.706  1.00  0.00    -0.323 N 
HETATM   35  H   UNL     1      40.697 -10.509  -1.632  1.00  0.00     0.169 HD
HETATM   36  O   UNL     1      43.451  -9.434  -0.441  1.00  0.00    -0.267 OA
BRANCH  34  37
HETATM   37  C   UNL     1      41.884  -9.494  -2.986  1.00  0.00     0.041 A 
HETATM   38  C   UNL     1      42.209 -10.387  -4.031  1.00  0.00    -0.035 A 
HETATM   39  C   UNL     1      42.284 -11.877  -3.827  1.00  0.00     0.050 C 
HETATM   40  C   UNL     1      42.506  -9.878  -5.308  1.00  0.00     0.009 A 
HETATM   41  C   UNL     1      42.478  -8.509  -5.558  1.00  0.00     0.001 A 
HETATM   42  C   UNL     1      42.156  -7.631  -4.532  1.00  0.00     0.002 A 
HETATM   43  C   UNL     1      41.864  -8.119  -3.255  1.00  0.00     0.030 A 
ENDBRANCH  34  37
ENDBRANCH   1  33
TORSDOF 8
ENDMDL
MODEL 6
REMARK VINA RESULT:      -7.7      2.773      5.622
REMARK  8 active torsions:
REMARK  status: ('A' for Active; 'I' for Inactive)
REMARK    1  A    between atoms: C_3  and  N_4 
REMARK       I    between atoms: N_4  and  C_5 
REMARK    2  A    between atoms: C_5  and  C_6 
REMARK    3  A    between atoms: C_7  and  C_8 
REMARK    4  A    between atoms: C_17  and  C_18 
REMARK    5  A    between atoms: C_20  and  O_21 
REMARK    6  A    between atoms: C_23  and  O_24 
REMARK    7  A    between atoms: O_24  and  C_25 
REMARK    8  A    between atoms: C_25  and  C_26 
REMARK       I    between atoms: C_26  and  N_27 
ROOT
HETATM    1  C   UNL     1      42.396 -16.097   5.500  1.00  0.00     0.062 C 
HETATM    2  C   UNL     1      41.630 -15.795   4.235  1.00  0.00     0.176 C 
HETATM    3  N   UNL     1      41.352 -14.368   4.175  1.00  0.00    -0.277 N 
HETATM    4  C   UNL     1      42.041 -13.487   4.946  1.00  0.00     0.177 C 
HETATM    5  S   UNL     1      41.661 -11.843   4.522  1.00  0.00    -0.046 SA
HETATM    6  C   UNL     1      40.614 -12.348   3.241  1.00  0.00     0.077 C 
HETATM    7  C   UNL     1      40.123 -11.501   2.324  1.00  0.00     0.036 C 
HETATM    8  C   UNL     1      40.458 -13.835   3.276  1.00  0.00     0.267 C 
HETATM    9  O   UNL     1      39.639 -14.466   2.628  1.00  0.00    -0.266 OA
HETATM   10  N   UNL     1      42.857 -13.789   5.896  1.00  0.00    -0.228 NA
HETATM   11  C   UNL     1      43.004 -15.124   6.211  1.00  0.00     0.047 C 
HETATM   12  C   UNL     1      43.919 -15.370   7.383  1.00  0.00     0.071 C 
ENDROOT
BRANCH   7  13
HETATM   13  C   UNL     1      39.399 -11.917   1.121  1.00  0.00    -0.032 A 
HETATM   14  C   UNL     1      40.120 -12.178  -0.055  1.00  0.00     0.051 A 
HETATM   15  C   UNL     1      39.463 -12.616  -1.209  1.00  0.00     0.102 A 
HETATM   16  C   UNL     1      38.070 -12.783  -1.174  1.00  0.00     0.102 A 
HETATM   17  C   UNL     1      37.348 -12.529  -0.004  1.00  0.00     0.040 A 
HETATM   18  C   UNL     1      38.013 -12.087   1.141  1.00  0.00     0.014 A 
BRANCH  15  19
HETATM   19  O   UNL     1      40.073 -12.893  -2.407  1.00  0.00    -0.353 OA
HETATM   20  C   UNL     1      41.439 -12.525  -2.541  1.00  0.00     0.210 C 
ENDBRANCH  15  19
BRANCH  16  21
HETATM   21  O   UNL     1      37.464 -13.281  -2.299  1.00  0.00    -0.339 OA
BRANCH  21  22
HETATM   22  C   UNL     1      37.582 -14.698  -2.436  1.00  0.00     0.278 C 
BRANCH  22  23
HETATM   23  C   UNL     1      37.766 -15.043  -3.910  1.00  0.00     0.239 C 
HETATM   24  N   UNL     1      39.040 -15.374  -4.280  1.00  0.00    -0.368 N 
HETATM   25  H   UNL     1      39.722 -15.588  -3.557  1.00  0.00     0.159 HD
HETATM   26  H   UNL     1      39.201 -15.691  -5.225  1.00  0.00     0.159 HD
HETATM   27  O   UNL     1      36.861 -14.979  -4.737  1.00  0.00    -0.271 OA
ENDBRANCH  22  23
ENDBRANCH  21  22
ENDBRANCH  16  21
ENDBRANCH   7  13
BRANCH   2  28
HETATM   28  C   UNL     1      42.370 -16.157   2.954  1.00  0.00     0.011 A 
HETATM   29  S   UNL     1      41.577 -17.084   1.742  1.00  0.00    -0.104 SA
HETATM   30  C   UNL     1      42.944 -17.038   0.719  1.00  0.00     0.050 A 
HETATM   31  C   UNL     1      43.990 -16.344   1.283  1.00  0.00     0.008 A 
HETATM   32  C   UNL     1      43.662 -15.837   2.573  1.00  0.00     0.017 A 
ENDBRANCH   2  28
BRANCH   1  33
HETATM   33  C   UNL     1      42.449 -17.540   5.864  1.00  0.00     0.256 C 
HETATM   34  N   UNL     1      43.507 -18.208   5.283  1.00  0.00    -0.323 N 
HETATM   35  H   UNL     1      44.084 -17.679   4.643  1.00  0.00     0.169 HD
HETATM   36  O   UNL     1      41.623 -17.992   6.645  1.00  0.00    -0.267 OA
BRANCH  34  37
HETATM   37  C   UNL     1      43.867 -19.568   5.455  1.00  0.00     0.041 A 
HETATM   38  C   UNL     1      44.356 -20.291   4.344  1.00  0.00    -0.035 A 
HETATM   39  C   UNL     1      44.470 -19.685   2.971  1.00  0.00     0.050 C 
HETATM   40  C   UNL     1      44.726 -21.639   4.506  1.00  0.00     0.009 A 
HETATM   41  C   UNL     1      44.623 -22.266   5.744  1.00  0.00     0.001 A 
HETATM   42  C   UNL     1      44.145 -21.555   6.837  1.00  0.00     0.002 A 
HETATM   43  C   UNL     1      43.768 -20.217   6.692  1.00  0.00     0.030 A 
ENDBRANCH  34  37
ENDBRANCH   1  33
TORSDOF 8
ENDMDL
MODEL 7
REMARK VINA RESULT:      -7.7      3.864      6.596
REMARK  8 active torsions:
REMARK  status: ('A' for Active; 'I' for Inactive)
REMARK    1  A    between atoms: C_3  and  N_4 
REMARK       I    between atoms: N_4  and  C_5 
REMARK    2  A    between atoms: C_5  and  C_6 
REMARK    3  A    between atoms: C_7  and  C_8 
REMARK    4  A    between atoms: C_17  and  C_18 
REMARK    5  A    between atoms: C_20  and  O_21 
REMARK    6  A    between atoms: C_23  and  O_24 
REMARK    7  A    between atoms: O_24  and  C_25 
REMARK    8  A    between atoms: C_25  and  C_26 
REMARK       I    between atoms: C_26  and  N_27 
ROOT
HETATM    1  C   UNL     1      40.303 -15.073   2.563  1.00  0.00     0.062 C 
HETATM    2  C   UNL     1      39.510 -14.582   1.376  1.00  0.00     0.176 C 
HETATM    3  N   UNL     1      38.817 -13.355   1.739  1.00  0.00    -0.277 N 
HETATM    4  C   UNL     1      39.191 -12.636   2.829  1.00  0.00     0.177 C 
HETATM    5  S   UNL     1      38.344 -11.119   2.906  1.00  0.00    -0.046 SA
HETATM    6  C   UNL     1      37.526 -11.425   1.413  1.00  0.00     0.077 C 
HETATM    7  C   UNL     1      36.824 -10.488   0.760  1.00  0.00     0.036 C 
HETATM    8  C   UNL     1      37.825 -12.817   0.954  1.00  0.00     0.267 C 
HETATM    9  O   UNL     1      37.249 -13.390   0.043  1.00  0.00    -0.266 OA
HETATM   10  N   UNL     1      40.039 -13.005   3.726  1.00  0.00    -0.228 NA
HETATM   11  C   UNL     1      40.573 -14.272   3.616  1.00  0.00     0.047 C 
HETATM   12  C   UNL     1      41.494 -14.639   4.752  1.00  0.00     0.071 C 
ENDROOT
BRANCH   7  13
HETATM   13  C   UNL     1      36.286 -10.653  -0.592  1.00  0.00    -0.032 A 
HETATM   14  C   UNL     1      37.171 -10.671  -1.683  1.00  0.00     0.051 A 
HETATM   15  C   UNL     1      36.693 -10.867  -2.982  1.00  0.00     0.102 A 
HETATM   16  C   UNL     1      35.314 -11.038  -3.179  1.00  0.00     0.102 A 
HETATM   17  C   UNL     1      34.430 -11.025  -2.096  1.00  0.00     0.040 A 
HETATM   18  C   UNL     1      34.916 -10.823  -0.803  1.00  0.00     0.014 A 
BRANCH  15  19
HETATM   19  O   UNL     1      37.471 -10.897  -4.112  1.00  0.00    -0.353 OA
HETATM   20  C   UNL     1      37.971  -9.656  -4.591  1.00  0.00     0.210 C 
ENDBRANCH  15  19
BRANCH  16  21
HETATM   21  O   UNL     1      34.885 -11.299  -4.455  1.00  0.00    -0.339 OA
BRANCH  21  22
HETATM   22  C   UNL     1      34.218 -12.554  -4.592  1.00  0.00     0.278 C 
BRANCH  22  23
HETATM   23  C   UNL     1      35.123 -13.520  -5.351  1.00  0.00     0.239 C 
HETATM   24  N   UNL     1      36.096 -12.936  -6.113  1.00  0.00    -0.368 N 
HETATM   25  H   UNL     1      36.308 -11.952  -5.969  1.00  0.00     0.159 HD
HETATM   26  H   UNL     1      36.773 -13.530  -6.569  1.00  0.00     0.159 HD
HETATM   27  O   UNL     1      34.972 -14.738  -5.338  1.00  0.00    -0.271 OA
ENDBRANCH  22  23
ENDBRANCH  21  22
ENDBRANCH  16  21
ENDBRANCH   7  13
BRANCH   2  28
HETATM   28  C   UNL     1      40.354 -14.269   0.147  1.00  0.00     0.011 A 
HETATM   29  S   UNL     1      41.639 -13.133   0.261  1.00  0.00    -0.104 SA
HETATM   30  C   UNL     1      42.064 -13.350  -1.379  1.00  0.00     0.050 A 
HETATM   31  C   UNL     1      41.245 -14.257  -2.011  1.00  0.00     0.008 A 
HETATM   32  C   UNL     1      40.256 -14.786  -1.133  1.00  0.00     0.017 A 
ENDBRANCH   2  28
BRANCH   1  33
HETATM   33  C   UNL     1      40.780 -16.479   2.454  1.00  0.00     0.256 C 
HETATM   34  N   UNL     1      42.112 -16.627   2.780  1.00  0.00    -0.323 N 
HETATM   35  H   UNL     1      42.625 -15.783   2.996  1.00  0.00     0.169 HD
HETATM   36  O   UNL     1      39.988 -17.358   2.144  1.00  0.00    -0.267 OA
BRANCH  34  37
HETATM   37  C   UNL     1      42.861 -17.829   2.821  1.00  0.00     0.041 A 
HETATM   38  C   UNL     1      43.569 -18.154   3.999  1.00  0.00    -0.035 A 
HETATM   39  C   UNL     1      43.595 -17.249   5.202  1.00  0.00     0.050 C 
HETATM   40  C   UNL     1      44.309 -19.350   4.054  1.00  0.00     0.009 A 
HETATM   41  C   UNL     1      44.346 -20.219   2.968  1.00  0.00     0.001 A 
HETATM   42  C   UNL     1      43.648 -19.902   1.810  1.00  0.00     0.002 A 
HETATM   43  C   UNL     1      42.913 -18.715   1.737  1.00  0.00     0.030 A 
ENDBRANCH  34  37
ENDBRANCH   1  33
TORSDOF 8
ENDMDL
MODEL 8
REMARK VINA RESULT:      -7.6      3.996      7.040
REMARK  8 active torsions:
REMARK  status: ('A' for Active; 'I' for Inactive)
REMARK    1  A    between atoms: C_3  and  N_4 
REMARK       I    between atoms: N_4  and  C_5 
REMARK    2  A    between atoms: C_5  and  C_6 
REMARK    3  A    between atoms: C_7  and  C_8 
REMARK    4  A    between atoms: C_17  and  C_18 
REMARK    5  A    between atoms: C_20  and  O_21 
REMARK    6  A    between atoms: C_23  and  O_24 
REMARK    7  A    between atoms: O_24  and  C_25 
REMARK    8  A    between atoms: C_25  and  C_26 
REMARK       I    between atoms: C_26  and  N_27 
ROOT
HETATM    1  C   UNL     1      42.063 -14.862   5.097  1.00  0.00     0.062 C 
HETATM    2  C   UNL     1      40.988 -14.103   4.358  1.00  0.00     0.176 C 
HETATM    3  N   UNL     1      40.823 -12.793   4.968  1.00  0.00    -0.277 N 
HETATM    4  C   UNL     1      41.777 -12.276   5.786  1.00  0.00     0.177 C 
HETATM    5  S   UNL     1      41.426 -10.624   6.201  1.00  0.00    -0.046 SA
HETATM    6  C   UNL     1      40.013 -10.605   5.204  1.00  0.00     0.077 C 
HETATM    7  C   UNL     1      39.347  -9.481   4.904  1.00  0.00     0.036 C 
HETATM    8  C   UNL     1      39.753 -11.981   4.677  1.00  0.00     0.267 C 
HETATM    9  O   UNL     1      38.731 -12.328   4.107  1.00  0.00    -0.266 OA
HETATM   10  N   UNL     1      42.808 -12.903   6.239  1.00  0.00    -0.228 NA
HETATM   11  C   UNL     1      42.930 -14.240   5.924  1.00  0.00     0.047 C 
HETATM   12  C   UNL     1      44.124 -14.903   6.561  1.00  0.00     0.071 C 
ENDROOT
BRANCH   7  13
HETATM   13  C   UNL     1      38.271  -9.399   3.914  1.00  0.00    -0.032 A 
HETATM   14  C   UNL     1      36.968  -9.096   4.343  1.00  0.00     0.051 A 
HETATM   15  C   UNL     1      35.927  -8.970   3.419  1.00  0.00     0.102 A 
HETATM   16  C   UNL     1      36.204  -9.158   2.055  1.00  0.00     0.102 A 
HETATM   17  C   UNL     1      37.501  -9.455   1.623  1.00  0.00     0.040 A 
HETATM   18  C   UNL     1      38.532  -9.584   2.555  1.00  0.00     0.014 A 
BRANCH  15  19
HETATM   19  O   UNL     1      34.623  -8.683   3.734  1.00  0.00    -0.353 OA
HETATM   20  C   UNL     1      34.335  -8.371   5.090  1.00  0.00     0.210 C 
ENDBRANCH  15  19
BRANCH  16  21
HETATM   21  O   UNL     1      35.178  -8.958   1.168  1.00  0.00    -0.339 OA
BRANCH  21  22
HETATM   22  C   UNL     1      34.614 -10.168   0.660  1.00  0.00     0.278 C 
BRANCH  22  23
HETATM   23  C   UNL     1      33.176 -10.294   1.155  1.00  0.00     0.239 C 
HETATM   24  N   UNL     1      33.016 -11.001   2.314  1.00  0.00    -0.368 N 
HETATM   25  H   UNL     1      33.833 -11.203   2.884  1.00  0.00     0.159 HD
HETATM   26  H   UNL     1      32.097 -11.045   2.730  1.00  0.00     0.159 HD
HETATM   27  O   UNL     1      32.210  -9.850   0.543  1.00  0.00    -0.271 OA
ENDBRANCH  22  23
ENDBRANCH  21  22
ENDBRANCH  16  21
ENDBRANCH   7  13
BRANCH   2  28
HETATM   28  C   UNL     1      41.289 -13.871   2.883  1.00  0.00     0.011 A 
HETATM   29  S   UNL     1      40.336 -14.650   1.683  1.00  0.00    -0.104 SA
HETATM   30  C   UNL     1      41.213 -13.915   0.415  1.00  0.00     0.050 A 
HETATM   31  C   UNL     1      42.218 -13.101   0.883  1.00  0.00     0.008 A 
HETATM   32  C   UNL     1      42.265 -13.076   2.307  1.00  0.00     0.017 A 
ENDBRANCH   2  28
BRANCH   1  33
HETATM   33  C   UNL     1      42.101 -16.323   4.810  1.00  0.00     0.256 C 
HETATM   34  N   UNL     1      43.179 -16.695   4.032  1.00  0.00    -0.323 N 
HETATM   35  H   UNL     1      43.779 -15.952   3.699  1.00  0.00     0.169 HD
HETATM   36  O   UNL     1      41.248 -17.052   5.295  1.00  0.00    -0.267 OA
BRANCH  34  37
HETATM   37  C   UNL     1      43.531 -18.003   3.616  1.00  0.00     0.041 A 
HETATM   38  C   UNL     1      44.296 -18.813   4.484  1.00  0.00    -0.035 A 
HETATM   39  C   UNL     1      44.790 -18.326   5.820  1.00  0.00     0.050 C 
HETATM   40  C   UNL     1      44.644 -20.117   4.085  1.00  0.00     0.009 A 
HETATM   41  C   UNL     1      44.240 -20.620   2.852  1.00  0.00     0.001 A 
HETATM   42  C   UNL     1      43.486 -19.825   2.000  1.00  0.00     0.002 A 
HETATM   43  C   UNL     1      43.136 -18.526   2.378  1.00  0.00     0.030 A 
ENDBRANCH  34  37
ENDBRANCH   1  33
TORSDOF 8
ENDMDL
MODEL 9
REMARK VINA RESULT:      -7.5      3.862      6.868
REMARK  8 active torsions:
REMARK  status: ('A' for Active; 'I' for Inactive)
REMARK    1  A    between atoms: C_3  and  N_4 
REMARK       I    between atoms: N_4  and  C_5 
REMARK    2  A    between atoms: C_5  and  C_6 
REMARK    3  A    between atoms: C_7  and  C_8 
REMARK    4  A    between atoms: C_17  and  C_18 
REMARK    5  A    between atoms: C_20  and  O_21 
REMARK    6  A    between atoms: C_23  and  O_24 
REMARK    7  A    between atoms: O_24  and  C_25 
REMARK    8  A    between atoms: C_25  and  C_26 
REMARK       I    between atoms: C_26  and  N_27 
ROOT
HETATM    1  C   UNL     1      40.354 -14.858   2.872  1.00  0.00     0.062 C 
HETATM    2  C   UNL     1      39.545 -14.332   1.712  1.00  0.00     0.176 C 
HETATM    3  N   UNL     1      38.859 -13.116   2.121  1.00  0.00    -0.277 N 
HETATM    4  C   UNL     1      39.248 -12.430   3.227  1.00  0.00     0.177 C 
HETATM    5  S   UNL     1      38.403 -10.915   3.361  1.00  0.00    -0.046 SA
HETATM    6  C   UNL     1      37.565 -11.177   1.871  1.00  0.00     0.077 C 
HETATM    7  C   UNL     1      36.854 -10.220   1.256  1.00  0.00     0.036 C 
HETATM    8  C   UNL     1      37.856 -12.554   1.367  1.00  0.00     0.267 C 
HETATM    9  O   UNL     1      37.266 -13.100   0.447  1.00  0.00    -0.266 OA
HETATM   10  N   UNL     1      40.108 -12.826   4.100  1.00  0.00    -0.228 NA
HETATM   11  C   UNL     1      40.640 -14.089   3.944  1.00  0.00     0.047 C 
HETATM   12  C   UNL     1      41.576 -14.491   5.056  1.00  0.00     0.071 C 
ENDROOT
BRANCH   7  13
HETATM   13  C   UNL     1      36.297 -10.344  -0.092  1.00  0.00    -0.032 A 
HETATM   14  C   UNL     1      34.947 -10.702  -0.244  1.00  0.00     0.051 A 
HETATM   15  C   UNL     1      34.375 -10.789  -1.516  1.00  0.00     0.102 A 
HETATM   16  C   UNL     1      35.172 -10.519  -2.640  1.00  0.00     0.102 A 
HETATM   17  C   UNL     1      36.515 -10.157  -2.493  1.00  0.00     0.040 A 
HETATM   18  C   UNL     1      37.079 -10.079  -1.218  1.00  0.00     0.014 A 
BRANCH  15  19
HETATM   19  O   UNL     1      33.071 -11.134  -1.773  1.00  0.00    -0.353 OA
HETATM   20  C   UNL     1      32.065 -10.492  -1.001  1.00  0.00     0.210 C 
ENDBRANCH  15  19
BRANCH  16  21
HETATM   21  O   UNL     1      34.564 -10.543  -3.868  1.00  0.00    -0.339 OA
BRANCH  21  22
HETATM   22  C   UNL     1      35.002 -11.614  -4.705  1.00  0.00     0.278 C 
BRANCH  22  23
HETATM   23  C   UNL     1      33.785 -12.381  -5.212  1.00  0.00     0.239 C 
HETATM   24  N   UNL     1      33.051 -13.018  -4.251  1.00  0.00    -0.368 N 
HETATM   25  H   UNL     1      33.205 -12.778  -3.276  1.00  0.00     0.159 HD
HETATM   26  H   UNL     1      32.190 -13.470  -4.522  1.00  0.00     0.159 HD
HETATM   27  O   UNL     1      33.496 -12.480  -6.401  1.00  0.00    -0.271 OA
ENDBRANCH  22  23
ENDBRANCH  21  22
ENDBRANCH  16  21
ENDBRANCH   7  13
BRANCH   2  28
HETATM   28  C   UNL     1      40.372 -13.982   0.481  1.00  0.00     0.011 A 
HETATM   29  S   UNL     1      41.645 -12.834   0.605  1.00  0.00    -0.104 SA
HETATM   30  C   UNL     1      42.054 -13.010  -1.043  1.00  0.00     0.050 A 
HETATM   31  C   UNL     1      41.240 -13.913  -1.686  1.00  0.00     0.008 A 
HETATM   32  C   UNL     1      40.266 -14.473  -0.809  1.00  0.00     0.017 A 
ENDBRANCH   2  28
BRANCH   1  33
HETATM   33  C   UNL     1      40.828 -16.261   2.714  1.00  0.00     0.256 C 
HETATM   34  N   UNL     1      42.178 -16.409   2.962  1.00  0.00    -0.323 N 
HETATM   35  H   UNL     1      42.699 -15.567   3.163  1.00  0.00     0.169 HD
HETATM   36  O   UNL     1      40.024 -17.138   2.435  1.00  0.00    -0.267 OA
BRANCH  34  37
HETATM   37  C   UNL     1      42.931 -17.609   2.942  1.00  0.00     0.041 A 
HETATM   38  C   UNL     1      43.300 -18.205   4.169  1.00  0.00    -0.035 A 
HETATM   39  C   UNL     1      42.960 -17.592   5.501  1.00  0.00     0.050 C 
HETATM   40  C   UNL     1      44.041 -19.401   4.160  1.00  0.00     0.009 A 
HETATM   41  C   UNL     1      44.408 -20.008   2.963  1.00  0.00     0.001 A 
HETATM   42  C   UNL     1      44.043 -19.424   1.757  1.00  0.00     0.002 A 
HETATM   43  C   UNL     1      43.312 -18.233   1.747  1.00  0.00     0.030 A 
ENDBRANCH  34  37
ENDBRANCH   1  33
TORSDOF 8
ENDMDL
MODEL 10
REMARK VINA RESULT:      -7.5      4.434      9.553
REMARK  8 active torsions:
REMARK  status: ('A' for Active; 'I' for Inactive)
REMARK    1  A    between atoms: C_3  and  N_4 
REMARK       I    between atoms: N_4  and  C_5 
REMARK    2  A    between atoms: C_5  and  C_6 
REMARK    3  A    between atoms: C_7  and  C_8 
REMARK    4  A    between atoms: C_17  and  C_18 
REMARK    5  A    between atoms: C_20  and  O_21 
REMARK    6  A    between atoms: C_23  and  O_24 
REMARK    7  A    between atoms: O_24  and  C_25 
REMARK    8  A    between atoms: C_25  and  C_26 
REMARK       I    between atoms: C_26  and  N_27 
ROOT
HETATM    1  C   UNL     1      36.487 -10.890   0.448  1.00  0.00     0.062 C 
HETATM    2  C   UNL     1      37.392 -11.862   1.165  1.00  0.00     0.176 C 
HETATM    3  N   UNL     1      38.180 -12.593   0.184  1.00  0.00    -0.277 N 
HETATM    4  C   UNL     1      38.309 -12.138  -1.090  1.00  0.00     0.177 C 
HETATM    5  S   UNL     1      39.468 -13.080  -1.982  1.00  0.00    -0.046 SA
HETATM    6  C   UNL     1      39.835 -14.056  -0.602  1.00  0.00     0.077 C 
HETATM    7  C   UNL     1      40.873 -14.904  -0.564  1.00  0.00     0.036 C 
HETATM    8  C   UNL     1      38.902 -13.715   0.515  1.00  0.00     0.267 C 
HETATM    9  O   UNL     1      38.783 -14.358   1.546  1.00  0.00    -0.266 OA
HETATM   10  N   UNL     1      37.659 -11.157  -1.614  1.00  0.00    -0.228 NA
HETATM   11  C   UNL     1      36.692 -10.548  -0.842  1.00  0.00     0.047 C 
HETATM   12  C   UNL     1      35.935  -9.465  -1.567  1.00  0.00     0.071 C 
ENDROOT
BRANCH   7  13
HETATM   13  C   UNL     1      41.328 -15.596   0.643  1.00  0.00    -0.032 A 
HETATM   14  C   UNL     1      42.128 -14.905   1.568  1.00  0.00     0.051 A 
HETATM   15  C   UNL     1      42.545 -15.525   2.749  1.00  0.00     0.102 A 
HETATM   16  C   UNL     1      42.158 -16.852   2.993  1.00  0.00     0.102 A 
HETATM   17  C   UNL     1      41.357 -17.543   2.077  1.00  0.00     0.040 A 
HETATM   18  C   UNL     1      40.951 -16.917   0.898  1.00  0.00     0.014 A 
BRANCH  15  19
HETATM   19  O   UNL     1      43.330 -14.940   3.712  1.00  0.00    -0.353 OA
HETATM   20  C   UNL     1      42.793 -13.812   4.391  1.00  0.00     0.210 C 
ENDBRANCH  15  19
BRANCH  16  21
HETATM   21  O   UNL     1      42.523 -17.407   4.192  1.00  0.00    -0.339 OA
BRANCH  21  22
HETATM   22  C   UNL     1      41.417 -17.775   5.016  1.00  0.00     0.278 C 
BRANCH  22  23
HETATM   23  C   UNL     1      41.277 -16.761   6.147  1.00  0.00     0.239 C 
HETATM   24  N   UNL     1      40.089 -16.086   6.185  1.00  0.00    -0.368 N 
HETATM   25  H   UNL     1      39.309 -16.431   5.632  1.00  0.00     0.159 HD
HETATM   26  H   UNL     1      39.912 -15.464   6.960  1.00  0.00     0.159 HD
HETATM   27  O   UNL     1      42.175 -16.511   6.944  1.00  0.00    -0.271 OA
ENDBRANCH  22  23
ENDBRANCH  21  22
ENDBRANCH  16  21
ENDBRANCH   7  13
BRANCH   2  28
HETATM   28  C   UNL     1      38.376 -11.208   2.126  1.00  0.00     0.011 A 
HETATM   29  S   UNL     1      39.472 -10.017   1.547  1.00  0.00    -0.104 SA
HETATM   30  C   UNL     1      40.144  -9.785   3.100  1.00  0.00     0.050 A 
HETATM   31  C   UNL     1      39.562 -10.599   4.043  1.00  0.00     0.008 A 
HETATM   32  C   UNL     1      38.543 -11.423   3.483  1.00  0.00     0.017 A 
ENDBRANCH   2  28
BRANCH   1  33
HETATM   33  C   UNL     1      35.393 -10.327   1.286  1.00  0.00     0.256 C 
HETATM   34  N   UNL     1      34.172 -10.932   1.063  1.00  0.00    -0.323 N 
HETATM   35  H   UNL     1      34.138 -11.633   0.335  1.00  0.00     0.169 HD
HETATM   36  O   UNL     1      35.649  -9.449   2.098  1.00  0.00    -0.267 OA
BRANCH  34  37
HETATM   37  C   UNL     1      32.945 -10.666   1.720  1.00  0.00     0.041 A 
HETATM   38  C   UNL     1      31.796 -10.405   0.941  1.00  0.00    -0.035 A 
HETATM   39  C   UNL     1      31.832 -10.355  -0.563  1.00  0.00     0.050 C 
HETATM   40  C   UNL     1      30.570 -10.148   1.583  1.00  0.00     0.009 A 
HETATM   41  C   UNL     1      30.473 -10.155   2.971  1.00  0.00     0.001 A 
HETATM   42  C   UNL     1      31.602 -10.415   3.737  1.00  0.00     0.002 A 
HETATM   43  C   UNL     1      32.829 -10.666   3.116  1.00  0.00     0.030 A 
ENDBRANCH  34  37
ENDBRANCH   1  33
TORSDOF 8
ENDMDL
