MODEL 1
REMARK VINA RESULT:      -8.8      0.000      0.000
REMARK  5 active torsions:
REMARK  status: ('A' for Active; 'I' for Inactive)
REMARK    1  A    between atoms: C_6  and  N_7 
REMARK       I    between atoms: N_7  and  C_8 
REMARK       I    between atoms: C_8  and  N_9 
REMARK    2  A    between atoms: N_9  and  C_10 
REMARK    3  A    between atoms: C_10  and  C_11 
REMARK    4  A    between atoms: C_14  and  N_15 
REMARK       I    between atoms: N_15  and  C_16 
REMARK    5  A    between atoms: C_16  and  C_17 
ROOT
HETATM    1  C   UNL     1      41.117 -14.520   3.530  1.00  0.00    -0.040 A 
HETATM    2  C   UNL     1      40.737 -14.917   4.817  1.00  0.00     0.011 A 
HETATM    3  C   UNL     1      41.436 -14.465   5.941  1.00  0.00     0.030 A 
HETATM    4  C   UNL     1      42.517 -13.595   5.801  1.00  0.00     0.035 A 
HETATM    5  C   UNL     1      42.902 -13.200   4.515  1.00  0.00     0.030 A 
HETATM    6  C   UNL     1      42.209 -13.656   3.389  1.00  0.00     0.011 A 
ENDROOT
BRANCH   1   7
HETATM    7  C   UNL     1      40.318 -14.953   2.330  1.00  0.00     0.162 C 
BRANCH   7   8
HETATM    8  N   UNL     1      41.176 -15.580   1.350  1.00  0.00    -0.339 N 
HETATM    9  C   UNL     1      42.074 -16.592   1.509  1.00  0.00     0.320 C 
HETATM   10  N   UNL     1      41.964 -17.310   2.667  1.00  0.00    -0.309 N 
HETATM   11  O   UNL     1      42.887 -16.775   0.610  1.00  0.00    -0.247 OA
HETATM   12  H   UNL     1      41.121 -17.169   3.199  1.00  0.00     0.170 HD
HETATM   13  H   UNL     1      41.346 -15.070   0.490  1.00  0.00     0.164 HD
BRANCH  10  14
HETATM   14  C   UNL     1      42.787 -18.373   3.099  1.00  0.00     0.037 A 
HETATM   15  C   UNL     1      43.114 -19.477   2.310  1.00  0.00     0.049 A 
HETATM   16  C   UNL     1      43.934 -20.495   2.817  1.00  0.00     0.019 A 
HETATM   17  C   UNL     1      44.443 -20.429   4.122  1.00  0.00    -0.044 A 
HETATM   18 BR   UNL     1      44.326 -21.958   1.666  1.00  0.00    -0.051 Br
HETATM   19  C   UNL     1      45.317 -21.504   4.704  1.00  0.00     0.049 C 
HETATM   20  C   UNL     1      44.122 -19.311   4.902  1.00  0.00     0.010 A 
HETATM   21  C   UNL     1      43.307 -18.294   4.395  1.00  0.00     0.030 A 
ENDBRANCH  10  14
ENDBRANCH   7   8
ENDBRANCH   1   7
BRANCH   4  22
HETATM   22  N   UNL     1      43.239 -13.058   6.883  1.00  0.00    -0.321 N 
HETATM   23  C   UNL     1      44.423 -13.512   7.438  1.00  0.00     0.279 C 
HETATM   24  O   UNL     1      45.096 -14.446   7.015  1.00  0.00    -0.265 OA
HETATM   25  H   UNL     1      42.841 -12.249   7.348  1.00  0.00     0.169 HD
BRANCH  23  26
HETATM   26  C   UNL     1      44.813 -12.753   8.614  1.00  0.00     0.142 A 
HETATM   27  O   UNL     1      44.315 -13.108   9.843  1.00  0.00    -0.317 OA
HETATM   28  C   UNL     1      44.854 -12.256  10.753  1.00  0.00     0.143 A 
HETATM   29  C   UNL     1      45.688 -11.353  10.136  1.00  0.00     0.027 A 
HETATM   30  C   UNL     1      45.661 -11.672   8.758  1.00  0.00     0.045 A 
ENDBRANCH  23  26
ENDBRANCH   4  22
TORSDOF 5
ENDMDL
MODEL 2
REMARK VINA RESULT:      -8.8      4.364     10.002
REMARK  5 active torsions:
REMARK  status: ('A' for Active; 'I' for Inactive)
REMARK    1  A    between atoms: C_6  and  N_7 
REMARK       I    between atoms: N_7  and  C_8 
REMARK       I    between atoms: C_8  and  N_9 
REMARK    2  A    between atoms: N_9  and  C_10 
REMARK    3  A    between atoms: C_10  and  C_11 
REMARK    4  A    between atoms: C_14  and  N_15 
REMARK       I    between atoms: N_15  and  C_16 
REMARK    5  A    between atoms: C_16  and  C_17 
ROOT
HETATM    1  C   UNL     1      43.593 -14.484   6.298  1.00  0.00    -0.040 A 
HETATM    2  C   UNL     1      43.951 -15.646   6.992  1.00  0.00     0.011 A 
HETATM    3  C   UNL     1      43.954 -16.889   6.351  1.00  0.00     0.030 A 
HETATM    4  C   UNL     1      43.615 -16.993   5.003  1.00  0.00     0.035 A 
HETATM    5  C   UNL     1      43.252 -15.833   4.308  1.00  0.00     0.030 A 
HETATM    6  C   UNL     1      43.242 -14.590   4.948  1.00  0.00     0.011 A 
ENDROOT
BRANCH   1   7
HETATM    7  C   UNL     1      43.660 -13.141   6.974  1.00  0.00     0.162 C 
BRANCH   7   8
HETATM    8  N   UNL     1      44.546 -13.191   8.116  1.00  0.00    -0.339 N 
HETATM    9  C   UNL     1      44.482 -12.501   9.289  1.00  0.00     0.320 C 
HETATM   10  N   UNL     1      43.289 -11.891   9.558  1.00  0.00    -0.309 N 
HETATM   11  O   UNL     1      45.483 -12.493   9.997  1.00  0.00    -0.247 OA
HETATM   12  H   UNL     1      42.510 -12.165   8.983  1.00  0.00     0.170 HD
HETATM   13  H   UNL     1      45.470 -13.580   7.968  1.00  0.00     0.164 HD
BRANCH  10  14
HETATM   14  C   UNL     1      42.971 -11.083  10.672  1.00  0.00     0.037 A 
HETATM   15  C   UNL     1      41.681 -10.646  10.976  1.00  0.00     0.049 A 
HETATM   16  C   UNL     1      41.450  -9.840  12.099  1.00  0.00     0.019 A 
HETATM   17  C   UNL     1      42.504  -9.454  12.940  1.00  0.00    -0.044 A 
HETATM   18 BR   UNL     1      39.658  -9.296  12.433  1.00  0.00    -0.051 Br
HETATM   19  C   UNL     1      42.299  -8.584  14.147  1.00  0.00     0.049 C 
HETATM   20  C   UNL     1      43.794  -9.909  12.636  1.00  0.00     0.010 A 
HETATM   21  C   UNL     1      44.023 -10.717  11.518  1.00  0.00     0.030 A 
ENDBRANCH  10  14
ENDBRANCH   7   8
ENDBRANCH   1   7
BRANCH   4  22
HETATM   22  N   UNL     1      43.641 -18.197   4.276  1.00  0.00    -0.321 N 
HETATM   23  C   UNL     1      44.503 -19.271   4.421  1.00  0.00     0.279 C 
HETATM   24  O   UNL     1      45.366 -19.381   5.285  1.00  0.00    -0.265 OA
HETATM   25  H   UNL     1      42.968 -18.298   3.524  1.00  0.00     0.169 HD
BRANCH  23  26
HETATM   26  C   UNL     1      44.285 -20.298   3.416  1.00  0.00     0.142 A 
HETATM   27  O   UNL     1      44.736 -21.575   3.647  1.00  0.00    -0.317 OA
HETATM   28  C   UNL     1      44.384 -22.323   2.568  1.00  0.00     0.143 A 
HETATM   29  C   UNL     1      43.719 -21.553   1.642  1.00  0.00     0.027 A 
HETATM   30  C   UNL     1      43.656 -20.249   2.187  1.00  0.00     0.045 A 
ENDBRANCH  23  26
ENDBRANCH   4  22
TORSDOF 5
ENDMDL
MODEL 3
REMARK VINA RESULT:      -8.8      2.677      6.878
REMARK  5 active torsions:
REMARK  status: ('A' for Active; 'I' for Inactive)
REMARK    1  A    between atoms: C_6  and  N_7 
REMARK       I    between atoms: N_7  and  C_8 
REMARK       I    between atoms: C_8  and  N_9 
REMARK    2  A    between atoms: N_9  and  C_10 
REMARK    3  A    between atoms: C_10  and  C_11 
REMARK    4  A    between atoms: C_14  and  N_15 
REMARK       I    between atoms: N_15  and  C_16 
REMARK    5  A    between atoms: C_16  and  C_17 
ROOT
HETATM    1  C   UNL     1      42.710 -14.330   4.732  1.00  0.00    -0.040 A 
HETATM    2  C   UNL     1      41.346 -14.600   4.576  1.00  0.00     0.011 A 
HETATM    3  C   UNL     1      40.762 -14.621   3.305  1.00  0.00     0.030 A 
HETATM    4  C   UNL     1      41.532 -14.389   2.167  1.00  0.00     0.035 A 
HETATM    5  C   UNL     1      42.896 -14.114   2.320  1.00  0.00     0.030 A 
HETATM    6  C   UNL     1      43.481 -14.085   3.590  1.00  0.00     0.011 A 
ENDROOT
BRANCH   1   7
HETATM    7  C   UNL     1      43.347 -14.378   6.095  1.00  0.00     0.162 C 
BRANCH   7   8
HETATM    8  N   UNL     1      43.003 -15.609   6.772  1.00  0.00    -0.339 N 
HETATM    9  C   UNL     1      43.040 -16.889   6.307  1.00  0.00     0.320 C 
HETATM   10  N   UNL     1      43.753 -17.087   5.157  1.00  0.00    -0.309 N 
HETATM   11  O   UNL     1      42.444 -17.744   6.953  1.00  0.00    -0.247 OA
HETATM   12  H   UNL     1      44.349 -16.329   4.869  1.00  0.00     0.170 HD
HETATM   13  H   UNL     1      42.425 -15.535   7.600  1.00  0.00     0.164 HD
BRANCH  10  14
HETATM   14  C   UNL     1      43.913 -18.295   4.445  1.00  0.00     0.037 A 
HETATM   15  C   UNL     1      44.352 -19.488   5.020  1.00  0.00     0.049 A 
HETATM   16  C   UNL     1      44.491 -20.644   4.240  1.00  0.00     0.019 A 
HETATM   17  C   UNL     1      44.195 -20.630   2.869  1.00  0.00    -0.044 A 
HETATM   18 BR   UNL     1      45.093 -22.223   5.114  1.00  0.00    -0.051 Br
HETATM   19  C   UNL     1      44.341 -21.845   1.998  1.00  0.00     0.049 C 
HETATM   20  C   UNL     1      43.742 -19.432   2.302  1.00  0.00     0.010 A 
HETATM   21  C   UNL     1      43.599 -18.280   3.082  1.00  0.00     0.030 A 
ENDBRANCH  10  14
ENDBRANCH   7   8
ENDBRANCH   1   7
BRANCH   4  22
HETATM   22  N   UNL     1      41.030 -14.441   0.853  1.00  0.00    -0.321 N 
HETATM   23  C   UNL     1      41.170 -15.454  -0.081  1.00  0.00     0.279 C 
HETATM   24  O   UNL     1      41.710 -16.537   0.117  1.00  0.00    -0.265 OA
HETATM   25  H   UNL     1      40.521 -13.629   0.520  1.00  0.00     0.169 HD
BRANCH  23  26
HETATM   26  C   UNL     1      40.596 -15.104  -1.369  1.00  0.00     0.142 A 
HETATM   27  O   UNL     1      39.565 -14.199  -1.427  1.00  0.00    -0.317 OA
HETATM   28  C   UNL     1      39.242 -14.045  -2.738  1.00  0.00     0.143 A 
HETATM   29  C   UNL     1      40.042 -14.836  -3.529  1.00  0.00     0.027 A 
HETATM   30  C   UNL     1      40.913 -15.520  -2.648  1.00  0.00     0.045 A 
ENDBRANCH  23  26
ENDBRANCH   4  22
TORSDOF 5
ENDMDL
MODEL 4
REMARK VINA RESULT:      -8.6      2.691      6.594
REMARK  5 active torsions:
REMARK  status: ('A' for Active; 'I' for Inactive)
REMARK    1  A    between atoms: C_6  and  N_7 
REMARK       I    between atoms: N_7  and  C_8 
REMARK       I    between atoms: C_8  and  N_9 
REMARK    2  A    between atoms: N_9  and  C_10 
REMARK    3  A    between atoms: C_10  and  C_11 
REMARK    4  A    between atoms: C_14  and  N_15 
REMARK       I    between atoms: N_15  and  C_16 
REMARK    5  A    between atoms: C_16  and  C_17 
ROOT
HETATM    1  C   UNL     1      42.992 -14.145   5.317  1.00  0.00    -0.040 A 
HETATM    2  C   UNL     1      41.600 -14.094   5.461  1.00  0.00     0.011 A 
HETATM    3  C   UNL     1      40.773 -13.893   4.351  1.00  0.00     0.030 A 
HETATM    4  C   UNL     1      41.319 -13.754   3.076  1.00  0.00     0.035 A 
HETATM    5  C   UNL     1      42.710 -13.800   2.930  1.00  0.00     0.030 A 
HETATM    6  C   UNL     1      43.541 -13.994   4.038  1.00  0.00     0.011 A 
ENDROOT
BRANCH   1   7
HETATM    7  C   UNL     1      43.872 -14.433   6.503  1.00  0.00     0.162 C 
BRANCH   7   8
HETATM    8  N   UNL     1      43.484 -15.676   7.133  1.00  0.00    -0.339 N 
HETATM    9  C   UNL     1      43.431 -16.931   6.605  1.00  0.00     0.320 C 
HETATM   10  N   UNL     1      44.090 -17.109   5.420  1.00  0.00    -0.309 N 
HETATM   11  O   UNL     1      42.812 -17.783   7.232  1.00  0.00    -0.247 OA
HETATM   12  H   UNL     1      44.717 -16.371   5.146  1.00  0.00     0.170 HD
HETATM   13  H   UNL     1      42.941 -15.613   7.986  1.00  0.00     0.164 HD
BRANCH  10  14
HETATM   14  C   UNL     1      44.156 -18.286   4.644  1.00  0.00     0.037 A 
HETATM   15  C   UNL     1      44.528 -19.533   5.148  1.00  0.00     0.049 A 
HETATM   16  C   UNL     1      44.576 -20.654   4.307  1.00  0.00     0.019 A 
HETATM   17  C   UNL     1      44.251 -20.551   2.947  1.00  0.00    -0.044 A 
HETATM   18 BR   UNL     1      45.093 -22.311   5.086  1.00  0.00    -0.051 Br
HETATM   19  C   UNL     1      44.298 -21.726   2.013  1.00  0.00     0.049 C 
HETATM   20  C   UNL     1      43.864 -19.298   2.452  1.00  0.00     0.010 A 
HETATM   21  C   UNL     1      43.813 -18.181   3.292  1.00  0.00     0.030 A 
ENDBRANCH  10  14
ENDBRANCH   7   8
ENDBRANCH   1   7
BRANCH   4  22
HETATM   22  N   UNL     1      40.554 -13.598   1.905  1.00  0.00    -0.321 N 
HETATM   23  C   UNL     1      39.625 -14.469   1.363  1.00  0.00     0.279 C 
HETATM   24  O   UNL     1      39.251 -15.520   1.871  1.00  0.00    -0.265 OA
HETATM   25  H   UNL     1      40.711 -12.757   1.359  1.00  0.00     0.169 HD
BRANCH  23  26
HETATM   26  C   UNL     1      39.110 -14.007   0.085  1.00  0.00     0.142 A 
HETATM   27  O   UNL     1      39.899 -14.099  -1.035  1.00  0.00    -0.317 OA
HETATM   28  C   UNL     1      39.170 -13.623  -2.077  1.00  0.00     0.143 A 
HETATM   29  C   UNL     1      37.926 -13.219  -1.654  1.00  0.00     0.027 A 
HETATM   30  C   UNL     1      37.887 -13.465  -0.261  1.00  0.00     0.045 A 
ENDBRANCH  23  26
ENDBRANCH   4  22
TORSDOF 5
ENDMDL
MODEL 5
REMARK VINA RESULT:      -8.6      1.794      2.358
REMARK  5 active torsions:
REMARK  status: ('A' for Active; 'I' for Inactive)
REMARK    1  A    between atoms: C_6  and  N_7 
REMARK       I    between atoms: N_7  and  C_8 
REMARK       I    between atoms: C_8  and  N_9 
REMARK    2  A    between atoms: N_9  and  C_10 
REMARK    3  A    between atoms: C_10  and  C_11 
REMARK    4  A    between atoms: C_14  and  N_15 
REMARK       I    between atoms: N_15  and  C_16 
REMARK    5  A    between atoms: C_16  and  C_17 
ROOT
HETATM    1  C   UNL     1      43.057 -13.566   4.502  1.00  0.00    -0.040 A 
HETATM    2  C   UNL     1      43.991 -13.991   5.454  1.00  0.00     0.011 A 
HETATM    3  C   UNL     1      44.002 -13.441   6.740  1.00  0.00     0.030 A 
HETATM    4  C   UNL     1      43.071 -12.469   7.104  1.00  0.00     0.035 A 
HETATM    5  C   UNL     1      42.139 -12.039   6.152  1.00  0.00     0.030 A 
HETATM    6  C   UNL     1      42.130 -12.582   4.863  1.00  0.00     0.011 A 
ENDROOT
BRANCH   1   7
HETATM    7  C   UNL     1      43.005 -14.211   3.143  1.00  0.00     0.162 C 
BRANCH   7   8
HETATM    8  N   UNL     1      42.003 -15.253   3.115  1.00  0.00    -0.339 N 
HETATM    9  C   UNL     1      42.152 -16.599   3.264  1.00  0.00     0.320 C 
HETATM   10  N   UNL     1      43.346 -17.013   3.785  1.00  0.00    -0.309 N 
HETATM   11  O   UNL     1      41.214 -17.314   2.928  1.00  0.00    -0.247 OA
HETATM   12  H   UNL     1      43.922 -16.298   4.199  1.00  0.00     0.170 HD
HETATM   13  H   UNL     1      41.113 -15.028   2.686  1.00  0.00     0.164 HD
BRANCH  10  14
HETATM   14  C   UNL     1      43.774 -18.342   4.000  1.00  0.00     0.037 A 
HETATM   15  C   UNL     1      43.883 -19.299   2.991  1.00  0.00     0.049 A 
HETATM   16  C   UNL     1      44.309 -20.601   3.290  1.00  0.00     0.019 A 
HETATM   17  C   UNL     1      44.636 -20.970   4.603  1.00  0.00    -0.044 A 
HETATM   18 BR   UNL     1      44.429 -21.835   1.847  1.00  0.00    -0.051 Br
HETATM   19  C   UNL     1      45.087 -22.357   4.964  1.00  0.00     0.049 C 
HETATM   20  C   UNL     1      44.537 -19.999   5.608  1.00  0.00     0.010 A 
HETATM   21  C   UNL     1      44.115 -18.700   5.309  1.00  0.00     0.030 A 
ENDBRANCH  10  14
ENDBRANCH   7   8
ENDBRANCH   1   7
BRANCH   4  22
HETATM   22  N   UNL     1      42.986 -11.904   8.389  1.00  0.00    -0.321 N 
HETATM   23  C   UNL     1      44.002 -11.371   9.164  1.00  0.00     0.279 C 
HETATM   24  O   UNL     1      45.169 -11.234   8.813  1.00  0.00    -0.265 OA
HETATM   25  H   UNL     1      42.074 -11.904   8.834  1.00  0.00     0.169 HD
BRANCH  23  26
HETATM   26  C   UNL     1      43.544 -10.973  10.484  1.00  0.00     0.142 A 
HETATM   27  O   UNL     1      42.237 -11.198  10.843  1.00  0.00    -0.317 OA
HETATM   28  C   UNL     1      42.092 -10.754  12.119  1.00  0.00     0.143 A 
HETATM   29  C   UNL     1      43.277 -10.241  12.591  1.00  0.00     0.027 A 
HETATM   30  C   UNL     1      44.213 -10.380  11.538  1.00  0.00     0.045 A 
ENDBRANCH  23  26
ENDBRANCH   4  22
TORSDOF 5
ENDMDL
MODEL 6
REMARK VINA RESULT:      -8.6      4.414      9.470
REMARK  5 active torsions:
REMARK  status: ('A' for Active; 'I' for Inactive)
REMARK    1  A    between atoms: C_6  and  N_7 
REMARK       I    between atoms: N_7  and  C_8 
REMARK       I    between atoms: C_8  and  N_9 
REMARK    2  A    between atoms: N_9  and  C_10 
REMARK    3  A    between atoms: C_10  and  C_11 
REMARK    4  A    between atoms: C_14  and  N_15 
REMARK       I    between atoms: N_15  and  C_16 
REMARK    5  A    between atoms: C_16  and  C_17 
ROOT
HETATM    1  C   UNL     1      40.968 -13.430   5.832  1.00  0.00    -0.040 A 
HETATM    2  C   UNL     1      42.172 -13.303   5.130  1.00  0.00     0.011 A 
HETATM    3  C   UNL     1      42.840 -14.432   4.645  1.00  0.00     0.030 A 
HETATM    4  C   UNL     1      42.310 -15.707   4.838  1.00  0.00     0.035 A 
HETATM    5  C   UNL     1      41.108 -15.837   5.544  1.00  0.00     0.030 A 
HETATM    6  C   UNL     1      40.442 -14.711   6.036  1.00  0.00     0.011 A 
ENDROOT
BRANCH   1   7
HETATM    7  C   UNL     1      40.219 -12.208   6.290  1.00  0.00     0.162 C 
BRANCH   7   8
HETATM    8  N   UNL     1      41.104 -11.066   6.359  1.00  0.00    -0.339 N 
HETATM    9  C   UNL     1      41.607 -10.428   7.453  1.00  0.00     0.320 C 
HETATM   10  N   UNL     1      41.503 -11.103   8.637  1.00  0.00    -0.309 N 
HETATM   11  O   UNL     1      42.108  -9.322   7.283  1.00  0.00    -0.247 OA
HETATM   12  H   UNL     1      41.257 -12.077   8.574  1.00  0.00     0.170 HD
HETATM   13  H   UNL     1      41.181 -10.489   5.529  1.00  0.00     0.164 HD
BRANCH  10  14
HETATM   14  C   UNL     1      41.899 -10.655   9.917  1.00  0.00     0.037 A 
HETATM   15  C   UNL     1      41.069  -9.946  10.787  1.00  0.00     0.049 A 
HETATM   16  C   UNL     1      41.543  -9.531  12.039  1.00  0.00     0.019 A 
HETATM   17  C   UNL     1      42.854  -9.817  12.447  1.00  0.00    -0.044 A 
HETATM   18 BR   UNL     1      40.338  -8.572  13.156  1.00  0.00    -0.051 Br
HETATM   19  C   UNL     1      43.400  -9.382  13.776  1.00  0.00     0.049 C 
HETATM   20  C   UNL     1      43.675 -10.542  11.573  1.00  0.00     0.010 A 
HETATM   21  C   UNL     1      43.201 -10.959  10.325  1.00  0.00     0.030 A 
ENDBRANCH  10  14
ENDBRANCH   7   8
ENDBRANCH   1   7
BRANCH   4  22
HETATM   22  N   UNL     1      42.894 -16.886   4.339  1.00  0.00    -0.321 N 
HETATM   23  C   UNL     1      42.500 -17.649   3.253  1.00  0.00     0.279 C 
HETATM   24  O   UNL     1      41.590 -17.371   2.479  1.00  0.00    -0.265 OA
HETATM   25  H   UNL     1      43.692 -17.256   4.845  1.00  0.00     0.169 HD
BRANCH  23  26
HETATM   26  C   UNL     1      43.292 -18.858   3.106  1.00  0.00     0.142 A 
HETATM   27  O   UNL     1      44.087 -19.276   4.145  1.00  0.00    -0.317 OA
HETATM   28  C   UNL     1      44.689 -20.427   3.748  1.00  0.00     0.143 A 
HETATM   29  C   UNL     1      44.304 -20.759   2.470  1.00  0.00     0.027 A 
HETATM   30  C   UNL     1      43.405 -19.748   2.056  1.00  0.00     0.045 A 
ENDBRANCH  23  26
ENDBRANCH   4  22
TORSDOF 5
ENDMDL
MODEL 7
REMARK VINA RESULT:      -8.4      3.263      7.580
REMARK  5 active torsions:
REMARK  status: ('A' for Active; 'I' for Inactive)
REMARK    1  A    between atoms: C_6  and  N_7 
REMARK       I    between atoms: N_7  and  C_8 
REMARK       I    between atoms: C_8  and  N_9 
REMARK    2  A    between atoms: N_9  and  C_10 
REMARK    3  A    between atoms: C_10  and  C_11 
REMARK    4  A    between atoms: C_14  and  N_15 
REMARK       I    between atoms: N_15  and  C_16 
REMARK    5  A    between atoms: C_16  and  C_17 
ROOT
HETATM    1  C   UNL     1      41.457 -13.717   3.626  1.00  0.00    -0.040 A 
HETATM    2  C   UNL     1      40.091 -13.923   3.397  1.00  0.00     0.011 A 
HETATM    3  C   UNL     1      39.623 -14.262   2.124  1.00  0.00     0.030 A 
HETATM    4  C   UNL     1      40.510 -14.417   1.059  1.00  0.00     0.035 A 
HETATM    5  C   UNL     1      41.875 -14.208   1.285  1.00  0.00     0.030 A 
HETATM    6  C   UNL     1      42.347 -13.861   2.555  1.00  0.00     0.011 A 
ENDROOT
BRANCH   1   7
HETATM    7  C   UNL     1      41.963 -13.421   5.012  1.00  0.00     0.162 C 
BRANCH   7   8
HETATM    8  N   UNL     1      41.542 -14.452   5.936  1.00  0.00    -0.339 N 
HETATM    9  C   UNL     1      41.868 -15.775   5.960  1.00  0.00     0.320 C 
HETATM   10  N   UNL     1      42.944 -16.138   5.200  1.00  0.00    -0.309 N 
HETATM   11  O   UNL     1      41.182 -16.514   6.657  1.00  0.00    -0.247 OA
HETATM   12  H   UNL     1      43.519 -15.387   4.856  1.00  0.00     0.170 HD
HETATM   13  H   UNL     1      40.713 -14.267   6.488  1.00  0.00     0.164 HD
BRANCH  10  14
HETATM   14  C   UNL     1      43.462 -17.439   5.013  1.00  0.00     0.037 A 
HETATM   15  C   UNL     1      43.312 -18.178   3.839  1.00  0.00     0.049 A 
HETATM   16  C   UNL     1      43.851 -19.467   3.737  1.00  0.00     0.019 A 
HETATM   17  C   UNL     1      44.553 -20.043   4.807  1.00  0.00    -0.044 A 
HETATM   18 BR   UNL     1      43.596 -20.396   2.097  1.00  0.00    -0.051 Br
HETATM   19  C   UNL     1      45.138 -21.425   4.739  1.00  0.00     0.049 C 
HETATM   20  C   UNL     1      44.712 -19.289   5.976  1.00  0.00     0.010 A 
HETATM   21  C   UNL     1      44.176 -18.001   6.076  1.00  0.00     0.030 A 
ENDBRANCH  10  14
ENDBRANCH   7   8
ENDBRANCH   1   7
BRANCH   4  22
HETATM   22  N   UNL     1      40.124 -14.805  -0.237  1.00  0.00    -0.321 N 
HETATM   23  C   UNL     1      39.700 -14.004  -1.283  1.00  0.00     0.279 C 
HETATM   24  O   UNL     1      39.661 -12.778  -1.273  1.00  0.00    -0.265 OA
HETATM   25  H   UNL     1      40.121 -15.798  -0.441  1.00  0.00     0.169 HD
BRANCH  23  26
HETATM   26  C   UNL     1      39.287 -14.776  -2.443  1.00  0.00     0.142 A 
HETATM   27  O   UNL     1      37.981 -14.719  -2.863  1.00  0.00    -0.317 OA
HETATM   28  C   UNL     1      37.881 -15.509  -3.964  1.00  0.00     0.143 A 
HETATM   29  C   UNL     1      39.096 -16.081  -4.261  1.00  0.00     0.027 A 
HETATM   30  C   UNL     1      40.002 -15.610  -3.281  1.00  0.00     0.045 A 
ENDBRANCH  23  26
ENDBRANCH   4  22
TORSDOF 5
ENDMDL
MODEL 8
REMARK VINA RESULT:      -8.3      6.033     10.280
REMARK  5 active torsions:
REMARK  status: ('A' for Active; 'I' for Inactive)
REMARK    1  A    between atoms: C_6  and  N_7 
REMARK       I    between atoms: N_7  and  C_8 
REMARK       I    between atoms: C_8  and  N_9 
REMARK    2  A    between atoms: N_9  and  C_10 
REMARK    3  A    between atoms: C_10  and  C_11 
REMARK    4  A    between atoms: C_14  and  N_15 
REMARK       I    between atoms: N_15  and  C_16 
REMARK    5  A    between atoms: C_16  and  C_17 
ROOT
HETATM    1  C   UNL     1      40.152 -14.770  -1.526  1.00  0.00    -0.040 A 
HETATM    2  C   UNL     1      40.213 -15.188  -2.861  1.00  0.00     0.011 A 
HETATM    3  C   UNL     1      39.282 -14.727  -3.797  1.00  0.00     0.030 A 
HETATM    4  C   UNL     1      38.283 -13.830  -3.422  1.00  0.00     0.035 A 
HETATM    5  C   UNL     1      38.218 -13.414  -2.087  1.00  0.00     0.030 A 
HETATM    6  C   UNL     1      39.143 -13.878  -1.147  1.00  0.00     0.011 A 
ENDROOT
BRANCH   1   7
HETATM    7  C   UNL     1      41.199 -15.214  -0.539  1.00  0.00     0.162 C 
BRANCH   7   8
HETATM    8  N   UNL     1      40.579 -15.666   0.687  1.00  0.00    -0.339 N 
HETATM    9  C   UNL     1      41.003 -16.613   1.570  1.00  0.00     0.320 C 
HETATM   10  N   UNL     1      42.309 -16.997   1.452  1.00  0.00    -0.309 N 
HETATM   11  O   UNL     1      40.189 -17.030   2.387  1.00  0.00    -0.247 OA
HETATM   12  H   UNL     1      42.893 -16.416   0.874  1.00  0.00     0.170 HD
HETATM   13  H   UNL     1      39.594 -15.464   0.810  1.00  0.00     0.164 HD
BRANCH  10  14
HETATM   14  C   UNL     1      42.984 -17.984   2.204  1.00  0.00     0.037 A 
HETATM   15  C   UNL     1      43.267 -19.267   1.733  1.00  0.00     0.049 A 
HETATM   16  C   UNL     1      43.936 -20.191   2.547  1.00  0.00     0.019 A 
HETATM   17  C   UNL     1      44.337 -19.851   3.847  1.00  0.00    -0.044 A 
HETATM   18 BR   UNL     1      44.278 -21.914   1.816  1.00  0.00    -0.051 Br
HETATM   19  C   UNL     1      45.047 -20.817   4.752  1.00  0.00     0.049 C 
HETATM   20  C   UNL     1      44.062 -18.557   4.307  1.00  0.00     0.010 A 
HETATM   21  C   UNL     1      43.397 -17.634   3.494  1.00  0.00     0.030 A 
ENDBRANCH  10  14
ENDBRANCH   7   8
ENDBRANCH   1   7
BRANCH   4  22
HETATM   22  N   UNL     1      37.342 -13.283  -4.314  1.00  0.00    -0.321 N 
HETATM   23  C   UNL     1      36.172 -13.853  -4.785  1.00  0.00     0.279 C 
HETATM   24  O   UNL     1      35.713 -14.935  -4.433  1.00  0.00    -0.265 OA
HETATM   25  H   UNL     1      37.544 -12.364  -4.693  1.00  0.00     0.169 HD
BRANCH  23  26
HETATM   26  C   UNL     1      35.508 -13.022  -5.775  1.00  0.00     0.142 A 
HETATM   27  O   UNL     1      34.671 -13.605  -6.695  1.00  0.00    -0.317 OA
HETATM   28  C   UNL     1      34.177 -12.607  -7.473  1.00  0.00     0.143 A 
HETATM   29  C   UNL     1      34.682 -11.390  -7.079  1.00  0.00     0.027 A 
HETATM   30  C   UNL     1      35.541 -11.657  -5.986  1.00  0.00     0.045 A 
ENDBRANCH  23  26
ENDBRANCH   4  22
TORSDOF 5
ENDMDL
MODEL 9
REMARK VINA RESULT:      -8.2      4.746      9.094
REMARK  5 active torsions:
REMARK  status: ('A' for Active; 'I' for Inactive)
REMARK    1  A    between atoms: C_6  and  N_7 
REMARK       I    between atoms: N_7  and  C_8 
REMARK       I    between atoms: C_8  and  N_9 
REMARK    2  A    between atoms: N_9  and  C_10 
REMARK    3  A    between atoms: C_10  and  C_11 
REMARK    4  A    between atoms: C_14  and  N_15 
REMARK       I    between atoms: N_15  and  C_16 
REMARK    5  A    between atoms: C_16  and  C_17 
ROOT
HETATM    1  C   UNL     1      41.001 -14.402   0.488  1.00  0.00    -0.040 A 
HETATM    2  C   UNL     1      41.273 -14.781  -0.832  1.00  0.00     0.011 A 
HETATM    3  C   UNL     1      40.320 -14.599  -1.840  1.00  0.00     0.030 A 
HETATM    4  C   UNL     1      39.084 -14.022  -1.551  1.00  0.00     0.035 A 
HETATM    5  C   UNL     1      38.807 -13.647  -0.231  1.00  0.00     0.030 A 
HETATM    6  C   UNL     1      39.756 -13.834   0.780  1.00  0.00     0.011 A 
ENDROOT
BRANCH   1   7
HETATM    7  C   UNL     1      42.056 -14.535   1.553  1.00  0.00     0.162 C 
BRANCH   7   8
HETATM    8  N   UNL     1      41.502 -15.144   2.742  1.00  0.00    -0.339 N 
HETATM    9  C   UNL     1      41.817 -16.331   3.330  1.00  0.00     0.320 C 
HETATM   10  N   UNL     1      42.992 -16.904   2.929  1.00  0.00    -0.309 N 
HETATM   11  O   UNL     1      41.034 -16.776   4.163  1.00  0.00    -0.247 OA
HETATM   12  H   UNL     1      43.613 -16.316   2.398  1.00  0.00     0.170 HD
HETATM   13  H   UNL     1      40.601 -14.804   3.059  1.00  0.00     0.164 HD
BRANCH  10  14
HETATM   14  C   UNL     1      43.528 -18.143   3.343  1.00  0.00     0.037 A 
HETATM   15  C   UNL     1      43.634 -19.262   2.517  1.00  0.00     0.049 A 
HETATM   16  C   UNL     1      44.173 -20.459   3.008  1.00  0.00     0.019 A 
HETATM   17  C   UNL     1      44.616 -20.561   4.335  1.00  0.00    -0.044 A 
HETATM   18 BR   UNL     1      44.278 -21.930   1.806  1.00  0.00    -0.051 Br
HETATM   19  C   UNL     1      45.191 -21.828   4.900  1.00  0.00     0.049 C 
HETATM   20  C   UNL     1      44.519 -19.428   5.153  1.00  0.00     0.010 A 
HETATM   21  C   UNL     1      43.985 -18.233   4.662  1.00  0.00     0.030 A 
ENDBRANCH  10  14
ENDBRANCH   7   8
ENDBRANCH   1   7
BRANCH   4  22
HETATM   22  N   UNL     1      38.093 -13.761  -2.515  1.00  0.00    -0.321 N 
HETATM   23  C   UNL     1      37.582 -14.616  -3.477  1.00  0.00     0.279 C 
HETATM   24  O   UNL     1      37.868 -15.802  -3.600  1.00  0.00    -0.265 OA
HETATM   25  H   UNL     1      37.712 -12.821  -2.543  1.00  0.00     0.169 HD
BRANCH  23  26
HETATM   26  C   UNL     1      36.639 -13.956  -4.363  1.00  0.00     0.142 A 
HETATM   27  O   UNL     1      36.019 -14.680  -5.351  1.00  0.00    -0.317 OA
HETATM   28  C   UNL     1      35.186 -13.830  -6.006  1.00  0.00     0.143 A 
HETATM   29  C   UNL     1      35.258 -12.568  -5.464  1.00  0.00     0.027 A 
HETATM   30  C   UNL     1      36.195 -12.648  -4.407  1.00  0.00     0.045 A 
ENDBRANCH  23  26
ENDBRANCH   4  22
TORSDOF 5
ENDMDL
MODEL 10
REMARK VINA RESULT:      -8.2      4.938      9.820
REMARK  5 active torsions:
REMARK  status: ('A' for Active; 'I' for Inactive)
REMARK    1  A    between atoms: C_6  and  N_7 
REMARK       I    between atoms: N_7  and  C_8 
REMARK       I    between atoms: C_8  and  N_9 
REMARK    2  A    between atoms: N_9  and  C_10 
REMARK    3  A    between atoms: C_10  and  C_11 
REMARK    4  A    between atoms: C_14  and  N_15 
REMARK       I    between atoms: N_15  and  C_16 
REMARK    5  A    between atoms: C_16  and  C_17 
ROOT
HETATM    1  C   UNL     1      41.342 -14.142   5.500  1.00  0.00    -0.040 A 
HETATM    2  C   UNL     1      42.499 -14.086   4.714  1.00  0.00     0.011 A 
HETATM    3  C   UNL     1      43.114 -15.257   4.260  1.00  0.00     0.030 A 
HETATM    4  C   UNL     1      42.576 -16.506   4.570  1.00  0.00     0.035 A 
HETATM    5  C   UNL     1      41.422 -16.565   5.360  1.00  0.00     0.030 A 
HETATM    6  C   UNL     1      40.809 -15.396   5.821  1.00  0.00     0.011 A 
ENDROOT
BRANCH   1   7
HETATM    7  C   UNL     1      40.646 -12.878   5.926  1.00  0.00     0.162 C 
BRANCH   7   8
HETATM    8  N   UNL     1      41.588 -11.956   6.520  1.00  0.00    -0.339 N 
HETATM    9  C   UNL     1      41.435 -11.144   7.604  1.00  0.00     0.320 C 
HETATM   10  N   UNL     1      40.371 -11.424   8.414  1.00  0.00    -0.309 N 
HETATM   11  O   UNL     1      42.257 -10.248   7.761  1.00  0.00    -0.247 OA
HETATM   12  H   UNL     1      39.919 -12.310   8.263  1.00  0.00     0.170 HD
HETATM   13  H   UNL     1      42.371 -11.662   5.948  1.00  0.00     0.164 HD
BRANCH  10  14
HETATM   14  C   UNL     1      39.961 -10.719   9.567  1.00  0.00     0.037 A 
HETATM   15  C   UNL     1      40.627 -10.773  10.792  1.00  0.00     0.049 A 
HETATM   16  C   UNL     1      40.150 -10.046  11.892  1.00  0.00     0.019 A 
HETATM   17  C   UNL     1      39.000  -9.251  11.789  1.00  0.00    -0.044 A 
HETATM   18 BR   UNL     1      41.126 -10.182  13.520  1.00  0.00    -0.051 Br
HETATM   19  C   UNL     1      38.453  -8.466  12.947  1.00  0.00     0.049 C 
HETATM   20  C   UNL     1      38.346  -9.191  10.552  1.00  0.00     0.010 A 
HETATM   21  C   UNL     1      38.824  -9.913   9.453  1.00  0.00     0.030 A 
ENDBRANCH  10  14
ENDBRANCH   7   8
ENDBRANCH   1   7
BRANCH   4  22
HETATM   22  N   UNL     1      43.106 -17.726   4.112  1.00  0.00    -0.321 N 
HETATM   23  C   UNL     1      42.927 -18.333   2.880  1.00  0.00     0.279 C 
HETATM   24  O   UNL     1      42.317 -17.853   1.931  1.00  0.00    -0.265 OA
HETATM   25  H   UNL     1      43.672 -18.258   4.764  1.00  0.00     0.169 HD
BRANCH  23  26
HETATM   26  C   UNL     1      43.553 -19.642   2.809  1.00  0.00     0.142 A 
HETATM   27  O   UNL     1      44.343 -20.071   3.848  1.00  0.00    -0.317 OA
HETATM   28  C   UNL     1      44.774 -21.320   3.531  1.00  0.00     0.143 A 
HETATM   29  C   UNL     1      44.284 -21.705   2.306  1.00  0.00     0.027 A 
HETATM   30  C   UNL     1      43.498 -20.625   1.840  1.00  0.00     0.045 A 
ENDBRANCH  23  26
ENDBRANCH   4  22
TORSDOF 5
ENDMDL
