MODEL 1
REMARK VINA RESULT:      -9.0      0.000      0.000
REMARK  5 active torsions:
REMARK  status: ('A' for Active; 'I' for Inactive)
REMARK    1  A    between atoms: C_5  and  O_6 
REMARK    2  A    between atoms: O_6  and  C_7 
REMARK    3  A    between atoms: C_7  and  C_8 
REMARK       I    between atoms: C_8  and  N_9 
REMARK    4  A    between atoms: N_9  and  N_10 
REMARK    5  A    between atoms: C_11  and  C_12 
ROOT
HETATM    1  C   UNL     1      44.946 -13.544   7.527  1.00  0.00     0.261 C 
HETATM    2  N   UNL     1      44.095 -14.641   7.558  1.00  0.00    -0.246 N 
HETATM    3  O   UNL     1      45.962 -13.452   6.840  1.00  0.00    -0.269 OA
HETATM    4  H   UNL     1      43.248 -14.600   8.117  1.00  0.00     0.192 HD
ENDROOT
BRANCH   2   5
HETATM    5  N   UNL     1      44.363 -15.722   6.772  1.00  0.00    -0.184 NA
HETATM    6  C   UNL     1      43.348 -16.315   6.236  1.00  0.00     0.153 C 
BRANCH   6   7
HETATM    7  C   UNL     1      43.557 -17.476   5.389  1.00  0.00     0.018 A 
HETATM    8  C   UNL     1      43.606 -17.543   3.955  1.00  0.00     0.004 A 
HETATM    9  C   UNL     1      43.830 -18.874   3.604  1.00  0.00     0.043 A 
HETATM   10  C   UNL     1      43.477 -16.597   2.914  1.00  0.00     0.014 A 
HETATM   11  C   UNL     1      43.931 -19.306   2.276  1.00  0.00     0.030 A 
HETATM   12  N   UNL     1      43.920 -19.589   4.772  1.00  0.00    -0.358 N 
HETATM   13  C   UNL     1      43.797 -18.347   1.268  1.00  0.00     0.002 A 
HETATM   14  C   UNL     1      43.573 -17.010   1.580  1.00  0.00     0.001 A 
HETATM   15  H   UNL     1      44.088 -20.586   4.812  1.00  0.00     0.166 HD
HETATM   16  C   UNL     1      43.758 -18.767   5.862  1.00  0.00     0.018 A 
HETATM   17  C   UNL     1      43.834 -19.304   7.245  1.00  0.00     0.069 C 
ENDBRANCH   6   7
ENDBRANCH   2   5
BRANCH   1  18
HETATM   18  C   UNL     1      44.571 -12.464   8.535  1.00  0.00     0.280 C 
BRANCH  18  19
HETATM   19  O   UNL     1      45.057 -12.783   9.842  1.00  0.00    -0.342 OA
BRANCH  19  20
HETATM   20  C   UNL     1      44.452 -12.005  10.796  1.00  0.00     0.069 A 
HETATM   21  C   UNL     1      44.572 -10.623  10.671  1.00  0.00     0.037 A 
HETATM   22  C   UNL     1      43.976  -9.783  11.617  1.00  0.00     0.009 A 
HETATM   23  C   UNL     1      43.236 -10.322  12.677  1.00  0.00    -0.062 A 
HETATM   24  C   UNL     1      42.612  -9.435  13.714  1.00  0.00     0.048 C 
HETATM   25  C   UNL     1      43.104 -11.714  12.778  1.00  0.00     0.009 A 
HETATM   26  C   UNL     1      43.701 -12.553  11.835  1.00  0.00     0.037 A 
ENDBRANCH  19  20
ENDBRANCH  18  19
ENDBRANCH   1  18
TORSDOF 5
ENDMDL
MODEL 2
REMARK VINA RESULT:      -8.5      1.557      2.439
REMARK  5 active torsions:
REMARK  status: ('A' for Active; 'I' for Inactive)
REMARK    1  A    between atoms: C_5  and  O_6 
REMARK    2  A    between atoms: O_6  and  C_7 
REMARK    3  A    between atoms: C_7  and  C_8 
REMARK       I    between atoms: C_8  and  N_9 
REMARK    4  A    between atoms: N_9  and  N_10 
REMARK    5  A    between atoms: C_11  and  C_12 
ROOT
HETATM    1  C   UNL     1      44.752 -13.730   6.871  1.00  0.00     0.261 C 
HETATM    2  N   UNL     1      43.640 -14.514   6.598  1.00  0.00    -0.246 N 
HETATM    3  O   UNL     1      45.757 -13.652   6.166  1.00  0.00    -0.269 OA
HETATM    4  H   UNL     1      42.834 -14.469   7.214  1.00  0.00     0.192 HD
ENDROOT
BRANCH   2   5
HETATM    5  N   UNL     1      43.610 -15.267   5.462  1.00  0.00    -0.184 NA
HETATM    6  C   UNL     1      42.780 -16.257   5.445  1.00  0.00     0.153 C 
BRANCH   6   7
HETATM    7  C   UNL     1      42.696 -17.105   4.268  1.00  0.00     0.018 A 
HETATM    8  C   UNL     1      43.394 -18.330   3.994  1.00  0.00     0.004 A 
HETATM    9  C   UNL     1      42.983 -18.775   2.738  1.00  0.00     0.043 A 
HETATM   10  C   UNL     1      44.345 -19.106   4.692  1.00  0.00     0.014 A 
HETATM   11  C   UNL     1      43.468 -19.949   2.147  1.00  0.00     0.030 A 
HETATM   12  N   UNL     1      42.068 -17.866   2.267  1.00  0.00    -0.358 N 
HETATM   13  C   UNL     1      44.410 -20.694   2.862  1.00  0.00     0.002 A 
HETATM   14  C   UNL     1      44.844 -20.281   4.118  1.00  0.00     0.001 A 
HETATM   15  H   UNL     1      41.600 -17.946   1.374  1.00  0.00     0.166 HD
HETATM   16  C   UNL     1      41.880 -16.849   3.173  1.00  0.00     0.018 A 
HETATM   17  C   UNL     1      40.920 -15.749   2.901  1.00  0.00     0.069 C 
ENDBRANCH   6   7
ENDBRANCH   2   5
BRANCH   1  18
HETATM   18  C   UNL     1      44.678 -13.032   8.224  1.00  0.00     0.280 C 
BRANCH  18  19
HETATM   19  O   UNL     1      43.719 -11.970   8.208  1.00  0.00    -0.342 OA
BRANCH  19  20
HETATM   20  C   UNL     1      43.636 -11.363   9.435  1.00  0.00     0.069 A 
HETATM   21  C   UNL     1      44.750 -11.436  10.267  1.00  0.00     0.037 A 
HETATM   22  C   UNL     1      44.718 -10.835  11.529  1.00  0.00     0.009 A 
HETATM   23  C   UNL     1      43.581 -10.137  11.953  1.00  0.00    -0.062 A 
HETATM   24  C   UNL     1      43.523  -9.507  13.314  1.00  0.00     0.048 C 
HETATM   25  C   UNL     1      42.475 -10.051  11.096  1.00  0.00     0.009 A 
HETATM   26  C   UNL     1      42.505 -10.653   9.837  1.00  0.00     0.037 A 
ENDBRANCH  19  20
ENDBRANCH  18  19
ENDBRANCH   1  18
TORSDOF 5
ENDMDL
MODEL 3
REMARK VINA RESULT:      -8.5      5.954      9.844
REMARK  5 active torsions:
REMARK  status: ('A' for Active; 'I' for Inactive)
REMARK    1  A    between atoms: C_5  and  O_6 
REMARK    2  A    between atoms: O_6  and  C_7 
REMARK    3  A    between atoms: C_7  and  C_8 
REMARK       I    between atoms: C_8  and  N_9 
REMARK    4  A    between atoms: N_9  and  N_10 
REMARK    5  A    between atoms: C_11  and  C_12 
ROOT
HETATM    1  C   UNL     1      41.648 -15.896   0.868  1.00  0.00     0.261 C 
HETATM    2  N   UNL     1      42.055 -15.898   2.195  1.00  0.00    -0.246 N 
HETATM    3  O   UNL     1      41.575 -16.890   0.146  1.00  0.00    -0.269 OA
HETATM    4  H   UNL     1      42.029 -15.033   2.726  1.00  0.00     0.192 HD
ENDROOT
BRANCH   2   5
HETATM    5  N   UNL     1      42.400 -17.075   2.791  1.00  0.00    -0.184 NA
HETATM    6  C   UNL     1      43.562 -17.119   3.355  1.00  0.00     0.153 C 
BRANCH   6   7
HETATM    7  C   UNL     1      43.998 -18.341   4.007  1.00  0.00     0.018 A 
HETATM    8  C   UNL     1      44.103 -19.664   3.457  1.00  0.00     0.004 A 
HETATM    9  C   UNL     1      44.568 -20.504   4.469  1.00  0.00     0.043 A 
HETATM   10  C   UNL     1      43.842 -20.234   2.191  1.00  0.00     0.014 A 
HETATM   11  C   UNL     1      44.786 -21.875   4.282  1.00  0.00     0.030 A 
HETATM   12  N   UNL     1      44.747 -19.728   5.587  1.00  0.00    -0.358 N 
HETATM   13  C   UNL     1      44.516 -22.410   3.019  1.00  0.00     0.002 A 
HETATM   14  C   UNL     1      44.051 -21.602   1.986  1.00  0.00     0.001 A 
HETATM   15  H   UNL     1      45.086 -20.082   6.471  1.00  0.00     0.166 HD
HETATM   16  C   UNL     1      44.409 -18.420   5.333  1.00  0.00     0.018 A 
HETATM   17  C   UNL     1      44.534 -17.378   6.384  1.00  0.00     0.069 C 
ENDBRANCH   6   7
ENDBRANCH   2   5
BRANCH   1  18
HETATM   18  C   UNL     1      41.398 -14.497   0.317  1.00  0.00     0.280 C 
BRANCH  18  19
HETATM   19  O   UNL     1      41.648 -14.441  -1.090  1.00  0.00    -0.342 OA
BRANCH  19  20
HETATM   20  C   UNL     1      40.478 -14.503  -1.802  1.00  0.00     0.069 A 
HETATM   21  C   UNL     1      40.471 -15.273  -2.962  1.00  0.00     0.037 A 
HETATM   22  C   UNL     1      39.304 -15.371  -3.727  1.00  0.00     0.009 A 
HETATM   23  C   UNL     1      38.133 -14.719  -3.319  1.00  0.00    -0.062 A 
HETATM   24  C   UNL     1      36.880 -14.794  -4.142  1.00  0.00     0.048 C 
HETATM   25  C   UNL     1      38.148 -13.967  -2.137  1.00  0.00     0.009 A 
HETATM   26  C   UNL     1      39.313 -13.867  -1.375  1.00  0.00     0.037 A 
ENDBRANCH  19  20
ENDBRANCH  18  19
ENDBRANCH   1  18
TORSDOF 5
ENDMDL
MODEL 4
REMARK VINA RESULT:      -8.3      5.763      9.090
REMARK  5 active torsions:
REMARK  status: ('A' for Active; 'I' for Inactive)
REMARK    1  A    between atoms: C_5  and  O_6 
REMARK    2  A    between atoms: O_6  and  C_7 
REMARK    3  A    between atoms: C_7  and  C_8 
REMARK       I    between atoms: C_8  and  N_9 
REMARK    4  A    between atoms: N_9  and  N_10 
REMARK    5  A    between atoms: C_11  and  C_12 
ROOT
HETATM    1  C   UNL     1      42.003 -15.295   0.920  1.00  0.00     0.261 C 
HETATM    2  N   UNL     1      42.766 -15.236   2.078  1.00  0.00    -0.246 N 
HETATM    3  O   UNL     1      41.888 -16.281   0.194  1.00  0.00    -0.269 OA
HETATM    4  H   UNL     1      42.753 -14.391   2.642  1.00  0.00     0.192 HD
ENDROOT
BRANCH   2   5
HETATM    5  N   UNL     1      43.452 -16.340   2.488  1.00  0.00    -0.184 NA
HETATM    6  C   UNL     1      42.951 -16.998   3.480  1.00  0.00     0.153 C 
BRANCH   6   7
HETATM    7  C   UNL     1      43.630 -18.184   3.973  1.00  0.00     0.018 A 
HETATM    8  C   UNL     1      43.796 -19.456   3.328  1.00  0.00     0.004 A 
HETATM    9  C   UNL     1      44.518 -20.276   4.195  1.00  0.00     0.043 A 
HETATM   10  C   UNL     1      43.397 -19.996   2.085  1.00  0.00     0.014 A 
HETATM   11  C   UNL     1      44.861 -21.599   3.887  1.00  0.00     0.030 A 
HETATM   12  N   UNL     1      44.787 -19.536   5.320  1.00  0.00    -0.358 N 
HETATM   13  C   UNL     1      44.450 -22.105   2.650  1.00  0.00     0.002 A 
HETATM   14  C   UNL     1      43.728 -21.316   1.759  1.00  0.00     0.001 A 
HETATM   15  H   UNL     1      45.307 -19.885   6.113  1.00  0.00     0.166 HD
HETATM   16  C   UNL     1      44.261 -18.271   5.209  1.00  0.00     0.018 A 
HETATM   17  C   UNL     1      44.436 -17.271   6.293  1.00  0.00     0.069 C 
ENDBRANCH   6   7
ENDBRANCH   2   5
BRANCH   1  18
HETATM   18  C   UNL     1      41.383 -13.955   0.540  1.00  0.00     0.280 C 
BRANCH  18  19
HETATM   19  O   UNL     1      42.387 -12.953   0.353  1.00  0.00    -0.342 OA
BRANCH  19  20
HETATM   20  C   UNL     1      42.370 -12.472  -0.931  1.00  0.00     0.069 A 
HETATM   21  C   UNL     1      42.819 -11.170  -1.137  1.00  0.00     0.037 A 
HETATM   22  C   UNL     1      42.822 -10.629  -2.426  1.00  0.00     0.009 A 
HETATM   23  C   UNL     1      42.399 -11.397  -3.518  1.00  0.00    -0.062 A 
HETATM   24  C   UNL     1      42.373 -10.822  -4.904  1.00  0.00     0.048 C 
HETATM   25  C   UNL     1      41.972 -12.714  -3.300  1.00  0.00     0.009 A 
HETATM   26  C   UNL     1      41.966 -13.253  -2.013  1.00  0.00     0.037 A 
ENDBRANCH  19  20
ENDBRANCH  18  19
ENDBRANCH   1  18
TORSDOF 5
ENDMDL
MODEL 5
REMARK VINA RESULT:      -8.1      2.678     10.133
REMARK  5 active torsions:
REMARK  status: ('A' for Active; 'I' for Inactive)
REMARK    1  A    between atoms: C_5  and  O_6 
REMARK    2  A    between atoms: O_6  and  C_7 
REMARK    3  A    between atoms: C_7  and  C_8 
REMARK       I    between atoms: C_8  and  N_9 
REMARK    4  A    between atoms: N_9  and  N_10 
REMARK    5  A    between atoms: C_11  and  C_12 
ROOT
HETATM    1  C   UNL     1      44.742 -12.922   8.308  1.00  0.00     0.261 C 
HETATM    2  N   UNL     1      43.670 -12.078   8.057  1.00  0.00    -0.246 N 
HETATM    3  O   UNL     1      45.564 -12.779   9.212  1.00  0.00    -0.269 OA
HETATM    4  H   UNL     1      43.012 -12.312   7.319  1.00  0.00     0.192 HD
ENDROOT
BRANCH   2   5
HETATM    5  N   UNL     1      43.465 -10.995   8.859  1.00  0.00    -0.184 NA
HETATM    6  C   UNL     1      42.247 -10.767   9.226  1.00  0.00     0.153 C 
BRANCH   6   7
HETATM    7  C   UNL     1      41.953  -9.629  10.078  1.00  0.00     0.018 A 
HETATM    8  C   UNL     1      42.375  -9.387  11.430  1.00  0.00     0.004 A 
HETATM    9  C   UNL     1      41.841  -8.161  11.824  1.00  0.00     0.043 A 
HETATM   10  C   UNL     1      43.159 -10.099  12.365  1.00  0.00     0.014 A 
HETATM   11  C   UNL     1      42.050  -7.610  13.095  1.00  0.00     0.030 A 
HETATM   12  N   UNL     1      41.129  -7.669  10.758  1.00  0.00    -0.358 N 
HETATM   13  C   UNL     1      42.828  -8.339  13.999  1.00  0.00     0.002 A 
HETATM   14  C   UNL     1      43.377  -9.567  13.641  1.00  0.00     0.001 A 
HETATM   15  H   UNL     1      40.640  -6.784  10.765  1.00  0.00     0.166 HD
HETATM   16  C   UNL     1      41.182  -8.538   9.694  1.00  0.00     0.018 A 
HETATM   17  C   UNL     1      40.503  -8.221   8.411  1.00  0.00     0.069 C 
ENDBRANCH   6   7
ENDBRANCH   2   5
BRANCH   1  18
HETATM   18  C   UNL     1      44.897 -14.023   7.265  1.00  0.00     0.280 C 
BRANCH  18  19
HETATM   19  O   UNL     1      44.244 -15.227   7.680  1.00  0.00    -0.342 OA
BRANCH  19  20
HETATM   20  C   UNL     1      44.111 -16.101   6.633  1.00  0.00     0.069 A 
HETATM   21  C   UNL     1      44.722 -17.347   6.753  1.00  0.00     0.037 A 
HETATM   22  C   UNL     1      44.618 -18.277   5.714  1.00  0.00     0.009 A 
HETATM   23  C   UNL     1      43.883 -17.974   4.561  1.00  0.00    -0.062 A 
HETATM   24  C   UNL     1      43.784 -18.952   3.427  1.00  0.00     0.048 C 
HETATM   25  C   UNL     1      43.254 -16.726   4.463  1.00  0.00     0.009 A 
HETATM   26  C   UNL     1      43.359 -15.796   5.499  1.00  0.00     0.037 A 
ENDBRANCH  19  20
ENDBRANCH  18  19
ENDBRANCH   1  18
TORSDOF 5
ENDMDL
MODEL 6
REMARK VINA RESULT:      -8.1      1.649      2.856
REMARK  5 active torsions:
REMARK  status: ('A' for Active; 'I' for Inactive)
REMARK    1  A    between atoms: C_5  and  O_6 
REMARK    2  A    between atoms: O_6  and  C_7 
REMARK    3  A    between atoms: C_7  and  C_8 
REMARK       I    between atoms: C_8  and  N_9 
REMARK    4  A    between atoms: N_9  and  N_10 
REMARK    5  A    between atoms: C_11  and  C_12 
ROOT
HETATM    1  C   UNL     1      44.859 -12.379   8.572  1.00  0.00     0.261 C 
HETATM    2  N   UNL     1      43.821 -12.762   7.734  1.00  0.00    -0.246 N 
HETATM    3  O   UNL     1      45.984 -12.877   8.583  1.00  0.00    -0.269 OA
HETATM    4  H   UNL     1      42.943 -12.252   7.761  1.00  0.00     0.192 HD
ENDROOT
BRANCH   2   5
HETATM    5  N   UNL     1      44.021 -13.761   6.828  1.00  0.00    -0.184 NA
HETATM    6  C   UNL     1      42.964 -14.307   6.325  1.00  0.00     0.153 C 
BRANCH   6   7
HETATM    7  C   UNL     1      43.101 -15.380   5.355  1.00  0.00     0.018 A 
HETATM    8  C   UNL     1      43.701 -16.674   5.527  1.00  0.00     0.004 A 
HETATM    9  C   UNL     1      43.593 -17.352   4.314  1.00  0.00     0.043 A 
HETATM   10  C   UNL     1      44.334 -17.337   6.602  1.00  0.00     0.014 A 
HETATM   11  C   UNL     1      44.079 -18.651   4.119  1.00  0.00     0.030 A 
HETATM   12  N   UNL     1      42.949 -16.513   3.439  1.00  0.00    -0.358 N 
HETATM   13  C   UNL     1      44.702 -19.280   5.201  1.00  0.00     0.002 A 
HETATM   14  C   UNL     1      44.829 -18.634   6.427  1.00  0.00     0.001 A 
HETATM   15  H   UNL     1      42.731 -16.755   2.481  1.00  0.00     0.166 HD
HETATM   16  C   UNL     1      42.643 -15.317   4.044  1.00  0.00     0.018 A 
HETATM   17  C   UNL     1      41.925 -14.246   3.307  1.00  0.00     0.069 C 
ENDBRANCH   6   7
ENDBRANCH   2   5
BRANCH   1  18
HETATM   18  C   UNL     1      44.449 -11.326   9.595  1.00  0.00     0.280 C 
BRANCH  18  19
HETATM   19  O   UNL     1      43.058 -11.426   9.913  1.00  0.00    -0.342 OA
BRANCH  19  20
HETATM   20  C   UNL     1      42.815 -11.014  11.197  1.00  0.00     0.069 A 
HETATM   21  C   UNL     1      43.769 -10.202  11.805  1.00  0.00     0.037 A 
HETATM   22  C   UNL     1      43.572  -9.754  13.115  1.00  0.00     0.009 A 
HETATM   23  C   UNL     1      42.407 -10.096  13.813  1.00  0.00    -0.062 A 
HETATM   24  C   UNL     1      42.192  -9.644  15.228  1.00  0.00     0.048 C 
HETATM   25  C   UNL     1      41.443 -10.894  13.181  1.00  0.00     0.009 A 
HETATM   26  C   UNL     1      41.641 -11.343  11.874  1.00  0.00     0.037 A 
ENDBRANCH  19  20
ENDBRANCH  18  19
ENDBRANCH   1  18
TORSDOF 5
ENDMDL
MODEL 7
REMARK VINA RESULT:      -7.8      6.644      9.801
REMARK  5 active torsions:
REMARK  status: ('A' for Active; 'I' for Inactive)
REMARK    1  A    between atoms: C_5  and  O_6 
REMARK    2  A    between atoms: O_6  and  C_7 
REMARK    3  A    between atoms: C_7  and  C_8 
REMARK       I    between atoms: C_8  and  N_9 
REMARK    4  A    between atoms: N_9  and  N_10 
REMARK    5  A    between atoms: C_11  and  C_12 
ROOT
HETATM    1  C   UNL     1      41.745 -15.616   2.747  1.00  0.00     0.261 C 
HETATM    2  N   UNL     1      40.875 -15.929   1.712  1.00  0.00    -0.246 N 
HETATM    3  O   UNL     1      42.462 -14.617   2.796  1.00  0.00    -0.269 OA
HETATM    4  H   UNL     1      40.282 -16.750   1.789  1.00  0.00     0.192 HD
ENDROOT
BRANCH   2   5
HETATM    5  N   UNL     1      40.766 -15.086   0.646  1.00  0.00    -0.184 NA
HETATM    6  C   UNL     1      41.433 -15.403  -0.414  1.00  0.00     0.153 C 
BRANCH   6   7
HETATM    7  C   UNL     1      41.367 -14.549  -1.587  1.00  0.00     0.018 A 
HETATM    8  C   UNL     1      41.896 -13.225  -1.764  1.00  0.00     0.004 A 
HETATM    9  C   UNL     1      41.581 -12.818  -3.060  1.00  0.00     0.043 A 
HETATM   10  C   UNL     1      42.611 -12.326  -0.943  1.00  0.00     0.014 A 
HETATM   11  C   UNL     1      41.944 -11.567  -3.576  1.00  0.00     0.030 A 
HETATM   12  N   UNL     1      40.897 -13.849  -3.653  1.00  0.00    -0.358 N 
HETATM   13  C   UNL     1      42.649 -10.698  -2.738  1.00  0.00     0.002 A 
HETATM   14  C   UNL     1      42.980 -11.070  -1.439  1.00  0.00     0.001 A 
HETATM   15  H   UNL     1      40.552 -13.826  -4.603  1.00  0.00     0.166 HD
HETATM   16  C   UNL     1      40.754 -14.904  -2.783  1.00  0.00     0.018 A 
HETATM   17  C   UNL     1      40.062 -16.151  -3.198  1.00  0.00     0.069 C 
ENDBRANCH   6   7
ENDBRANCH   2   5
BRANCH   1  18
HETATM   18  C   UNL     1      41.831 -16.704   3.810  1.00  0.00     0.280 C 
BRANCH  18  19
HETATM   19  O   UNL     1      43.191 -17.017   4.124  1.00  0.00    -0.342 OA
BRANCH  19  20
HETATM   20  C   UNL     1      43.531 -18.261   3.661  1.00  0.00     0.069 A 
HETATM   21  C   UNL     1      43.155 -18.589   2.361  1.00  0.00     0.037 A 
HETATM   22  C   UNL     1      43.476 -19.846   1.838  1.00  0.00     0.009 A 
HETATM   23  C   UNL     1      44.195 -20.770   2.605  1.00  0.00    -0.062 A 
HETATM   24  C   UNL     1      44.525 -22.132   2.067  1.00  0.00     0.048 C 
HETATM   25  C   UNL     1      44.588 -20.419   3.904  1.00  0.00     0.009 A 
HETATM   26  C   UNL     1      44.266 -19.165   4.427  1.00  0.00     0.037 A 
ENDBRANCH  19  20
ENDBRANCH  18  19
ENDBRANCH   1  18
TORSDOF 5
ENDMDL
MODEL 8
REMARK VINA RESULT:      -7.8      5.568      8.712
REMARK  5 active torsions:
REMARK  status: ('A' for Active; 'I' for Inactive)
REMARK    1  A    between atoms: C_5  and  O_6 
REMARK    2  A    between atoms: O_6  and  C_7 
REMARK    3  A    between atoms: C_7  and  C_8 
REMARK       I    between atoms: C_8  and  N_9 
REMARK    4  A    between atoms: N_9  and  N_10 
REMARK    5  A    between atoms: C_11  and  C_12 
ROOT
HETATM    1  C   UNL     1      40.830 -15.071   3.629  1.00  0.00     0.261 C 
HETATM    2  N   UNL     1      41.603 -15.997   2.942  1.00  0.00    -0.246 N 
HETATM    3  O   UNL     1      40.511 -15.151   4.815  1.00  0.00    -0.269 OA
HETATM    4  H   UNL     1      41.860 -15.815   1.977  1.00  0.00     0.192 HD
ENDROOT
BRANCH   2   5
HETATM    5  N   UNL     1      42.077 -17.096   3.597  1.00  0.00    -0.184 NA
HETATM    6  C   UNL     1      43.324 -17.381   3.422  1.00  0.00     0.153 C 
BRANCH   6   7
HETATM    7  C   UNL     1      43.897 -18.539   4.086  1.00  0.00     0.018 A 
HETATM    8  C   UNL     1      44.079 -19.868   3.574  1.00  0.00     0.004 A 
HETATM    9  C   UNL     1      44.669 -20.630   4.582  1.00  0.00     0.043 A 
HETATM   10  C   UNL     1      43.792 -20.504   2.345  1.00  0.00     0.014 A 
HETATM   11  C   UNL     1      44.988 -21.985   4.427  1.00  0.00     0.030 A 
HETATM   12  N   UNL     1      44.848 -19.801   5.662  1.00  0.00    -0.358 N 
HETATM   13  C   UNL     1      44.691 -22.586   3.200  1.00  0.00     0.002 A 
HETATM   14  C   UNL     1      44.101 -21.858   2.172  1.00  0.00     0.001 A 
HETATM   15  H   UNL     1      45.265 -20.094   6.535  1.00  0.00     0.166 HD
HETATM   16  C   UNL     1      44.389 -18.535   5.387  1.00  0.00     0.018 A 
HETATM   17  C   UNL     1      44.488 -17.448   6.394  1.00  0.00     0.069 C 
ENDBRANCH   6   7
ENDBRANCH   2   5
BRANCH   1  18
HETATM   18  C   UNL     1      40.291 -13.959   2.738  1.00  0.00     0.280 C 
BRANCH  18  19
HETATM   19  O   UNL     1      39.025 -14.313   2.174  1.00  0.00    -0.342 OA
BRANCH  19  20
HETATM   20  C   UNL     1      39.034 -14.165   0.811  1.00  0.00     0.069 A 
HETATM   21  C   UNL     1      40.242 -14.368   0.148  1.00  0.00     0.037 A 
HETATM   22  C   UNL     1      40.307 -14.229  -1.241  1.00  0.00     0.009 A 
HETATM   23  C   UNL     1      39.159 -13.910  -1.977  1.00  0.00    -0.062 A 
HETATM   24  C   UNL     1      39.218 -13.733  -3.466  1.00  0.00     0.048 C 
HETATM   25  C   UNL     1      37.944 -13.732  -1.300  1.00  0.00     0.009 A 
HETATM   26  C   UNL     1      37.879 -13.868   0.088  1.00  0.00     0.037 A 
ENDBRANCH  19  20
ENDBRANCH  18  19
ENDBRANCH   1  18
TORSDOF 5
ENDMDL
MODEL 9
REMARK VINA RESULT:      -7.5      6.092     10.570
REMARK  5 active torsions:
REMARK  status: ('A' for Active; 'I' for Inactive)
REMARK    1  A    between atoms: C_5  and  O_6 
REMARK    2  A    between atoms: O_6  and  C_7 
REMARK    3  A    between atoms: C_7  and  C_8 
REMARK       I    between atoms: C_8  and  N_9 
REMARK    4  A    between atoms: N_9  and  N_10 
REMARK    5  A    between atoms: C_11  and  C_12 
ROOT
HETATM    1  C   UNL     1      40.569 -14.649   0.241  1.00  0.00     0.261 C 
HETATM    2  N   UNL     1      40.335 -15.209   1.490  1.00  0.00    -0.246 N 
HETATM    3  O   UNL     1      41.656 -14.623  -0.334  1.00  0.00    -0.269 OA
HETATM    4  H   UNL     1      39.389 -15.231   1.858  1.00  0.00     0.192 HD
ENDROOT
BRANCH   2   5
HETATM    5  N   UNL     1      41.363 -15.799   2.165  1.00  0.00    -0.184 NA
HETATM    6  C   UNL     1      41.076 -16.859   2.845  1.00  0.00     0.153 C 
BRANCH   6   7
HETATM    7  C   UNL     1      42.120 -17.538   3.593  1.00  0.00     0.018 A 
HETATM    8  C   UNL     1      42.901 -18.681   3.207  1.00  0.00     0.004 A 
HETATM    9  C   UNL     1      43.775 -18.965   4.256  1.00  0.00     0.043 A 
HETATM   10  C   UNL     1      42.946 -19.510   2.064  1.00  0.00     0.014 A 
HETATM   11  C   UNL     1      44.688 -20.027   4.222  1.00  0.00     0.030 A 
HETATM   12  N   UNL     1      43.545 -18.033   5.237  1.00  0.00    -0.358 N 
HETATM   13  C   UNL     1      44.707 -20.831   3.078  1.00  0.00     0.002 A 
HETATM   14  C   UNL     1      43.849 -20.577   2.012  1.00  0.00     0.001 A 
HETATM   15  H   UNL     1      44.048 -18.000   6.114  1.00  0.00     0.166 HD
HETATM   16  C   UNL     1      42.550 -17.163   4.860  1.00  0.00     0.018 A 
HETATM   17  C   UNL     1      42.131 -16.048   5.748  1.00  0.00     0.069 C 
ENDBRANCH   6   7
ENDBRANCH   2   5
BRANCH   1  18
HETATM   18  C   UNL     1      39.350 -13.939  -0.336  1.00  0.00     0.280 C 
BRANCH  18  19
HETATM   19  O   UNL     1      39.646 -13.349  -1.606  1.00  0.00    -0.342 OA
BRANCH  19  20
HETATM   20  C   UNL     1      38.620 -13.549  -2.493  1.00  0.00     0.069 A 
HETATM   21  C   UNL     1      37.839 -12.448  -2.834  1.00  0.00     0.037 A 
HETATM   22  C   UNL     1      36.780 -12.596  -3.734  1.00  0.00     0.009 A 
HETATM   23  C   UNL     1      36.513 -13.841  -4.316  1.00  0.00    -0.062 A 
HETATM   24  C   UNL     1      35.364 -14.021  -5.265  1.00  0.00     0.048 C 
HETATM   25  C   UNL     1      37.321 -14.936  -3.983  1.00  0.00     0.009 A 
HETATM   26  C   UNL     1      38.378 -14.790  -3.082  1.00  0.00     0.037 A 
ENDBRANCH  19  20
ENDBRANCH  18  19
ENDBRANCH   1  18
TORSDOF 5
ENDMDL
MODEL 10
REMARK VINA RESULT:      -7.5      5.467      9.509
REMARK  5 active torsions:
REMARK  status: ('A' for Active; 'I' for Inactive)
REMARK    1  A    between atoms: C_5  and  O_6 
REMARK    2  A    between atoms: O_6  and  C_7 
REMARK    3  A    between atoms: C_7  and  C_8 
REMARK       I    between atoms: C_8  and  N_9 
REMARK    4  A    between atoms: N_9  and  N_10 
REMARK    5  A    between atoms: C_11  and  C_12 
ROOT
HETATM    1  C   UNL     1      41.720 -13.488   1.691  1.00  0.00     0.261 C 
HETATM    2  N   UNL     1      41.112 -14.630   2.195  1.00  0.00    -0.246 N 
HETATM    3  O   UNL     1      42.814 -13.049   2.045  1.00  0.00    -0.269 OA
HETATM    4  H   UNL     1      40.231 -14.943   1.798  1.00  0.00     0.192 HD
ENDROOT
BRANCH   2   5
HETATM    5  N   UNL     1      41.747 -15.361   3.155  1.00  0.00    -0.184 NA
HETATM    6  C   UNL     1      41.635 -16.646   3.072  1.00  0.00     0.153 C 
BRANCH   6   7
HETATM    7  C   UNL     1      42.282 -17.489   4.062  1.00  0.00     0.018 A 
HETATM    8  C   UNL     1      43.214 -18.562   3.855  1.00  0.00     0.004 A 
HETATM    9  C   UNL     1      43.555 -19.070   5.108  1.00  0.00     0.043 A 
HETATM   10  C   UNL     1      43.802 -19.157   2.717  1.00  0.00     0.014 A 
HETATM   11  C   UNL     1      44.448 -20.135   5.283  1.00  0.00     0.030 A 
HETATM   12  N   UNL     1      42.866 -18.336   6.042  1.00  0.00    -0.358 N 
HETATM   13  C   UNL     1      45.011 -20.705   4.138  1.00  0.00     0.002 A 
HETATM   14  C   UNL     1      44.695 -20.224   2.871  1.00  0.00     0.001 A 
HETATM   15  H   UNL     1      42.932 -18.487   7.040  1.00  0.00     0.166 HD
HETATM   16  C   UNL     1      42.091 -17.377   5.435  1.00  0.00     0.018 A 
HETATM   17  C   UNL     1      41.263 -16.440   6.236  1.00  0.00     0.069 C 
ENDBRANCH   6   7
ENDBRANCH   2   5
BRANCH   1  18
HETATM   18  C   UNL     1      40.843 -12.725   0.705  1.00  0.00     0.280 C 
BRANCH  18  19
HETATM   19  O   UNL     1      41.446 -12.667  -0.590  1.00  0.00    -0.342 OA
BRANCH  19  20
HETATM   20  C   UNL     1      40.792 -13.484  -1.476  1.00  0.00     0.069 A 
HETATM   21  C   UNL     1      41.558 -14.398  -2.195  1.00  0.00     0.037 A 
HETATM   22  C   UNL     1      40.941 -15.255  -3.112  1.00  0.00     0.009 A 
HETATM   23  C   UNL     1      39.553 -15.218  -3.295  1.00  0.00    -0.062 A 
HETATM   24  C   UNL     1      38.880 -16.114  -4.293  1.00  0.00     0.048 C 
HETATM   25  C   UNL     1      38.792 -14.310  -2.547  1.00  0.00     0.009 A 
HETATM   26  C   UNL     1      39.407 -13.453  -1.633  1.00  0.00     0.037 A 
ENDBRANCH  19  20
ENDBRANCH  18  19
ENDBRANCH   1  18
TORSDOF 5
ENDMDL
