MODEL 1
REMARK VINA RESULT:      -7.5      0.000      0.000
REMARK  2 active torsions:
REMARK  status: ('A' for Active; 'I' for Inactive)
REMARK    1  A    between atoms: C_3  and  C_4 
REMARK       I    between atoms: C_4  and  N_5 
REMARK    2  A    between atoms: N_5  and  C_6 
ROOT
HETATM    1  C   UNL     1      41.170 -17.485   0.963  1.00  0.00     0.051 C 
HETATM    2  C   UNL     1      41.604 -16.223   1.670  1.00  0.00    -0.021 A 
HETATM    3  C   UNL     1      42.267 -16.379   2.977  1.00  0.00     0.061 A 
HETATM    4  C   UNL     1      42.784 -15.302   3.613  1.00  0.00     0.022 A 
HETATM    5  C   UNL     1      43.626 -15.319   4.862  1.00  0.00     0.069 C 
HETATM    6  N   UNL     1      42.580 -14.046   3.080  1.00  0.00    -0.349 N 
HETATM    7  C   UNL     1      41.936 -13.788   1.892  1.00  0.00     0.121 A 
HETATM    8  S   UNL     1      41.763 -12.178   1.453  1.00  0.00    -0.059 SA
HETATM    9  C   UNL     1      41.472 -14.992   1.124  1.00  0.00     0.075 A 
HETATM   10  C   UNL     1      41.080 -14.787  -0.330  1.00  0.00     0.023 C 
HETATM   11  N   UNL     1      40.753 -14.617  -1.536  1.00  0.00    -0.096 N 
HETATM   12  H   UNL     1      42.946 -13.233   3.568  1.00  0.00     0.166 HD
ENDROOT
BRANCH   3  13
HETATM   13  C   UNL     1      42.495 -17.742   3.569  1.00  0.00     0.258 C 
HETATM   14  N   UNL     1      43.583 -18.387   3.011  1.00  0.00    -0.323 N 
HETATM   15  H   UNL     1      44.094 -17.889   2.295  1.00  0.00     0.169 HD
HETATM   16  O   UNL     1      41.743 -18.160   4.439  1.00  0.00    -0.267 OA
BRANCH  14  17
HETATM   17  C   UNL     1      43.993 -19.717   3.242  1.00  0.00     0.035 A 
HETATM   18  C   UNL     1      44.517 -20.173   4.452  1.00  0.00     0.029 A 
HETATM   19  C   UNL     1      44.876 -21.516   4.609  1.00  0.00     0.002 A 
HETATM   20  C   UNL     1      44.706 -22.415   3.558  1.00  0.00     0.000 A 
HETATM   21  C   UNL     1      44.186 -21.970   2.347  1.00  0.00     0.002 A 
HETATM   22  C   UNL     1      43.839 -20.626   2.186  1.00  0.00     0.029 A 
ENDBRANCH  14  17
ENDBRANCH   3  13
TORSDOF 2
ENDMDL
MODEL 2
REMARK VINA RESULT:      -7.4      3.316      6.576
REMARK  2 active torsions:
REMARK  status: ('A' for Active; 'I' for Inactive)
REMARK    1  A    between atoms: C_3  and  C_4 
REMARK       I    between atoms: C_4  and  N_5 
REMARK    2  A    between atoms: N_5  and  C_6 
ROOT
HETATM    1  C   UNL     1      43.498 -18.445   1.497  1.00  0.00     0.051 C 
HETATM    2  C   UNL     1      43.760 -18.884   2.918  1.00  0.00    -0.021 A 
HETATM    3  C   UNL     1      43.427 -17.928   3.990  1.00  0.00     0.061 A 
HETATM    4  C   UNL     1      43.528 -18.296   5.287  1.00  0.00     0.022 A 
HETATM    5  C   UNL     1      43.074 -17.498   6.482  1.00  0.00     0.069 C 
HETATM    6  N   UNL     1      44.055 -19.533   5.596  1.00  0.00    -0.349 N 
HETATM    7  C   UNL     1      44.439 -20.479   4.674  1.00  0.00     0.121 A 
HETATM    8  S   UNL     1      45.095 -21.903   5.270  1.00  0.00    -0.059 SA
HETATM    9  C   UNL     1      44.210 -20.120   3.234  1.00  0.00     0.075 A 
HETATM   10  C   UNL     1      44.284 -21.243   2.212  1.00  0.00     0.023 C 
HETATM   11  N   UNL     1      44.346 -22.174   1.364  1.00  0.00    -0.096 N 
HETATM   12  H   UNL     1      44.155 -19.802   6.571  1.00  0.00     0.166 HD
ENDROOT
BRANCH   3  13
HETATM   13  C   UNL     1      42.853 -16.577   3.666  1.00  0.00     0.258 C 
HETATM   14  N   UNL     1      41.476 -16.602   3.542  1.00  0.00    -0.323 N 
HETATM   15  H   UNL     1      41.019 -17.494   3.683  1.00  0.00     0.169 HD
HETATM   16  O   UNL     1      43.597 -15.615   3.536  1.00  0.00    -0.267 OA
BRANCH  14  17
HETATM   17  C   UNL     1      40.641 -15.546   3.122  1.00  0.00     0.035 A 
HETATM   18  C   UNL     1      40.455 -14.364   3.840  1.00  0.00     0.029 A 
HETATM   19  C   UNL     1      39.629 -13.352   3.340  1.00  0.00     0.002 A 
HETATM   20  C   UNL     1      38.988 -13.512   2.114  1.00  0.00     0.000 A 
HETATM   21  C   UNL     1      39.164 -14.688   1.391  1.00  0.00     0.002 A 
HETATM   22  C   UNL     1      39.980 -15.704   1.896  1.00  0.00     0.029 A 
ENDBRANCH  14  17
ENDBRANCH   3  13
TORSDOF 2
ENDMDL
MODEL 3
REMARK VINA RESULT:      -7.4      1.746      3.367
REMARK  2 active torsions:
REMARK  status: ('A' for Active; 'I' for Inactive)
REMARK    1  A    between atoms: C_3  and  C_4 
REMARK       I    between atoms: C_4  and  N_5 
REMARK    2  A    between atoms: N_5  and  C_6 
ROOT
HETATM    1  C   UNL     1      42.959 -15.503   6.067  1.00  0.00     0.051 C 
HETATM    2  C   UNL     1      42.140 -15.034   4.888  1.00  0.00    -0.021 A 
HETATM    3  C   UNL     1      41.692 -16.060   3.929  1.00  0.00     0.061 A 
HETATM    4  C   UNL     1      40.862 -15.729   2.914  1.00  0.00     0.022 A 
HETATM    5  C   UNL     1      40.191 -16.683   1.959  1.00  0.00     0.069 C 
HETATM    6  N   UNL     1      40.533 -14.404   2.720  1.00  0.00    -0.349 N 
HETATM    7  C   UNL     1      40.935 -13.365   3.528  1.00  0.00     0.121 A 
HETATM    8  S   UNL     1      40.452 -11.822   3.082  1.00  0.00    -0.059 SA
HETATM    9  C   UNL     1      41.754 -13.747   4.727  1.00  0.00     0.075 A 
HETATM   10  C   UNL     1      41.921 -12.706   5.822  1.00  0.00     0.023 C 
HETATM   11  N   UNL     1      42.061 -11.843   6.730  1.00  0.00    -0.096 N 
HETATM   12  H   UNL     1      39.928 -14.150   1.943  1.00  0.00     0.166 HD
ENDROOT
BRANCH   3  13
HETATM   13  C   UNL     1      42.044 -17.508   4.130  1.00  0.00     0.258 C 
HETATM   14  N   UNL     1      43.111 -17.908   3.347  1.00  0.00    -0.323 N 
HETATM   15  H   UNL     1      43.529 -17.207   2.748  1.00  0.00     0.169 HD
HETATM   16  O   UNL     1      41.397 -18.188   4.915  1.00  0.00    -0.267 OA
BRANCH  14  17
HETATM   17  C   UNL     1      43.611 -19.219   3.196  1.00  0.00     0.035 A 
HETATM   18  C   UNL     1      44.407 -19.864   4.143  1.00  0.00     0.029 A 
HETATM   19  C   UNL     1      44.841 -21.176   3.929  1.00  0.00     0.002 A 
HETATM   20  C   UNL     1      44.475 -21.856   2.768  1.00  0.00     0.000 A 
HETATM   21  C   UNL     1      43.683 -21.220   1.817  1.00  0.00     0.002 A 
HETATM   22  C   UNL     1      43.260 -19.905   2.025  1.00  0.00     0.029 A 
ENDBRANCH  14  17
ENDBRANCH   3  13
TORSDOF 2
ENDMDL
MODEL 4
REMARK VINA RESULT:      -7.4      2.137      2.478
REMARK  2 active torsions:
REMARK  status: ('A' for Active; 'I' for Inactive)
REMARK    1  A    between atoms: C_3  and  C_4 
REMARK       I    between atoms: C_4  and  N_5 
REMARK    2  A    between atoms: N_5  and  C_6 
ROOT
HETATM    1  C   UNL     1      40.540 -15.898   2.700  1.00  0.00     0.051 C 
HETATM    2  C   UNL     1      41.076 -15.153   3.899  1.00  0.00    -0.021 A 
HETATM    3  C   UNL     1      41.835 -15.935   4.893  1.00  0.00     0.061 A 
HETATM    4  C   UNL     1      42.441 -15.314   5.931  1.00  0.00     0.022 A 
HETATM    5  C   UNL     1      43.379 -15.946   6.927  1.00  0.00     0.069 C 
HETATM    6  N   UNL     1      42.244 -13.961   6.112  1.00  0.00    -0.349 N 
HETATM    7  C   UNL     1      41.518 -13.150   5.270  1.00  0.00     0.121 A 
HETATM    8  S   UNL     1      41.372 -11.536   5.705  1.00  0.00    -0.059 SA
HETATM    9  C   UNL     1      40.949 -13.814   4.050  1.00  0.00     0.075 A 
HETATM   10  C   UNL     1      40.451 -12.915   2.931  1.00  0.00     0.023 C 
HETATM   11  N   UNL     1      40.036 -12.170   2.002  1.00  0.00    -0.096 N 
HETATM   12  H   UNL     1      42.679 -13.496   6.905  1.00  0.00     0.166 HD
ENDROOT
BRANCH   3  13
HETATM   13  C   UNL     1      42.056 -17.410   4.706  1.00  0.00     0.258 C 
HETATM   14  N   UNL     1      43.215 -17.688   4.006  1.00  0.00    -0.323 N 
HETATM   15  H   UNL     1      43.773 -16.898   3.709  1.00  0.00     0.169 HD
HETATM   16  O   UNL     1      41.242 -18.208   5.153  1.00  0.00    -0.267 OA
BRANCH  14  17
HETATM   17  C   UNL     1      43.650 -18.951   3.550  1.00  0.00     0.035 A 
HETATM   18  C   UNL     1      44.504 -19.789   4.270  1.00  0.00     0.029 A 
HETATM   19  C   UNL     1      44.867 -21.038   3.758  1.00  0.00     0.002 A 
HETATM   20  C   UNL     1      44.375 -21.462   2.526  1.00  0.00     0.000 A 
HETATM   21  C   UNL     1      43.526 -20.634   1.800  1.00  0.00     0.002 A 
HETATM   22  C   UNL     1      43.171 -19.380   2.305  1.00  0.00     0.029 A 
ENDBRANCH  14  17
ENDBRANCH   3  13
TORSDOF 2
ENDMDL
MODEL 5
REMARK VINA RESULT:      -7.2      3.071      6.641
REMARK  2 active torsions:
REMARK  status: ('A' for Active; 'I' for Inactive)
REMARK    1  A    between atoms: C_3  and  C_4 
REMARK       I    between atoms: C_4  and  N_5 
REMARK    2  A    between atoms: N_5  and  C_6 
ROOT
HETATM    1  C   UNL     1      43.557 -17.798   1.440  1.00  0.00     0.051 C 
HETATM    2  C   UNL     1      43.331 -17.900   2.929  1.00  0.00    -0.021 A 
HETATM    3  C   UNL     1      42.531 -16.835   3.562  1.00  0.00     0.061 A 
HETATM    4  C   UNL     1      42.193 -16.922   4.869  1.00  0.00     0.022 A 
HETATM    5  C   UNL     1      41.253 -16.008   5.613  1.00  0.00     0.069 C 
HETATM    6  N   UNL     1      42.702 -17.956   5.627  1.00  0.00    -0.349 N 
HETATM    7  C   UNL     1      43.494 -18.973   5.145  1.00  0.00     0.121 A 
HETATM    8  S   UNL     1      44.037 -20.107   6.255  1.00  0.00    -0.059 SA
HETATM    9  C   UNL     1      43.766 -18.946   3.669  1.00  0.00     0.075 A 
HETATM   10  C   UNL     1      44.326 -20.210   3.037  1.00  0.00     0.023 C 
HETATM   11  N   UNL     1      44.791 -21.257   2.512  1.00  0.00    -0.096 N 
HETATM   12  H   UNL     1      42.469 -18.010   6.616  1.00  0.00     0.166 HD
ENDROOT
BRANCH   3  13
HETATM   13  C   UNL     1      41.972 -15.703   2.746  1.00  0.00     0.258 C 
HETATM   14  N   UNL     1      40.731 -15.998   2.211  1.00  0.00    -0.323 N 
HETATM   15  H   UNL     1      40.345 -16.908   2.423  1.00  0.00     0.169 HD
HETATM   16  O   UNL     1      42.616 -14.671   2.616  1.00  0.00    -0.267 OA
BRANCH  14  17
HETATM   17  C   UNL     1      39.991 -15.215   1.300  1.00  0.00     0.035 A 
HETATM   18  C   UNL     1      40.463 -14.823   0.046  1.00  0.00     0.029 A 
HETATM   19  C   UNL     1      39.655 -14.069  -0.811  1.00  0.00     0.002 A 
HETATM   20  C   UNL     1      38.367 -13.707  -0.423  1.00  0.00     0.000 A 
HETATM   21  C   UNL     1      37.889 -14.091   0.826  1.00  0.00     0.002 A 
HETATM   22  C   UNL     1      38.700 -14.834   1.687  1.00  0.00     0.029 A 
ENDBRANCH  14  17
ENDBRANCH   3  13
TORSDOF 2
ENDMDL
MODEL 6
REMARK VINA RESULT:      -7.2      3.208      6.974
REMARK  2 active torsions:
REMARK  status: ('A' for Active; 'I' for Inactive)
REMARK    1  A    between atoms: C_3  and  C_4 
REMARK       I    between atoms: C_4  and  N_5 
REMARK    2  A    between atoms: N_5  and  C_6 
ROOT
HETATM    1  C   UNL     1      42.002 -16.873   5.726  1.00  0.00     0.051 C 
HETATM    2  C   UNL     1      42.769 -17.783   4.797  1.00  0.00    -0.021 A 
HETATM    3  C   UNL     1      42.812 -17.409   3.372  1.00  0.00     0.061 A 
HETATM    4  C   UNL     1      43.574 -18.114   2.504  1.00  0.00     0.022 A 
HETATM    5  C   UNL     1      43.849 -17.762   1.064  1.00  0.00     0.069 C 
HETATM    6  N   UNL     1      44.216 -19.252   2.945  1.00  0.00    -0.349 N 
HETATM    7  C   UNL     1      44.203 -19.713   4.241  1.00  0.00     0.121 A 
HETATM    8  S   UNL     1      45.020 -21.146   4.549  1.00  0.00    -0.059 SA
HETATM    9  C   UNL     1      43.461 -18.863   5.231  1.00  0.00     0.075 A 
HETATM   10  C   UNL     1      43.706 -19.129   6.707  1.00  0.00     0.023 C 
HETATM   11  N   UNL     1      43.909 -19.351   7.932  1.00  0.00    -0.096 N 
HETATM   12  H   UNL     1      44.769 -19.797   2.289  1.00  0.00     0.166 HD
ENDROOT
BRANCH   3  13
HETATM   13  C   UNL     1      42.116 -16.171   2.879  1.00  0.00     0.258 C 
HETATM   14  N   UNL     1      40.971 -16.457   2.159  1.00  0.00    -0.323 N 
HETATM   15  H   UNL     1      40.730 -17.434   2.050  1.00  0.00     0.169 HD
HETATM   16  O   UNL     1      42.587 -15.069   3.127  1.00  0.00    -0.267 OA
BRANCH  14  17
HETATM   17  C   UNL     1      40.160 -15.544   1.453  1.00  0.00     0.035 A 
HETATM   18  C   UNL     1      38.912 -15.104   1.896  1.00  0.00     0.029 A 
HETATM   19  C   UNL     1      38.181 -14.175   1.148  1.00  0.00     0.002 A 
HETATM   20  C   UNL     1      38.697 -13.674  -0.045  1.00  0.00     0.000 A 
HETATM   21  C   UNL     1      39.939 -14.107  -0.496  1.00  0.00     0.002 A 
HETATM   22  C   UNL     1      40.664 -15.045   0.244  1.00  0.00     0.029 A 
ENDBRANCH  14  17
ENDBRANCH   3  13
TORSDOF 2
ENDMDL
MODEL 7
REMARK VINA RESULT:      -7.1      2.192      2.556
REMARK  2 active torsions:
REMARK  status: ('A' for Active; 'I' for Inactive)
REMARK    1  A    between atoms: C_3  and  C_4 
REMARK       I    between atoms: C_4  and  N_5 
REMARK    2  A    between atoms: N_5  and  C_6 
ROOT
HETATM    1  C   UNL     1      40.599 -15.739   1.325  1.00  0.00     0.051 C 
HETATM    2  C   UNL     1      40.788 -15.112   2.686  1.00  0.00    -0.021 A 
HETATM    3  C   UNL     1      41.933 -15.580   3.489  1.00  0.00     0.061 A 
HETATM    4  C   UNL     1      42.230 -14.983   4.666  1.00  0.00     0.022 A 
HETATM    5  C   UNL     1      43.451 -15.234   5.514  1.00  0.00     0.069 C 
HETATM    6  N   UNL     1      41.383 -14.013   5.159  1.00  0.00    -0.349 N 
HETATM    7  C   UNL     1      40.265 -13.538   4.513  1.00  0.00     0.121 A 
HETATM    8  S   UNL     1      39.352 -12.383   5.317  1.00  0.00    -0.059 SA
HETATM    9  C   UNL     1      40.005 -14.111   3.150  1.00  0.00     0.075 A 
HETATM   10  C   UNL     1      39.009 -13.383   2.262  1.00  0.00     0.023 C 
HETATM   11  N   UNL     1      38.182 -12.780   1.526  1.00  0.00    -0.096 N 
HETATM   12  H   UNL     1      41.591 -13.580   6.056  1.00  0.00     0.166 HD
ENDROOT
BRANCH   3  13
HETATM   13  C   UNL     1      42.864 -16.637   2.961  1.00  0.00     0.258 C 
HETATM   14  N   UNL     1      42.464 -17.915   3.307  1.00  0.00    -0.323 N 
HETATM   15  H   UNL     1      41.616 -17.999   3.852  1.00  0.00     0.169 HD
HETATM   16  O   UNL     1      43.849 -16.311   2.313  1.00  0.00    -0.267 OA
BRANCH  14  17
HETATM   17  C   UNL     1      43.172 -19.115   3.086  1.00  0.00     0.035 A 
HETATM   18  C   UNL     1      43.004 -19.925   1.962  1.00  0.00     0.029 A 
HETATM   19  C   UNL     1      43.765 -21.088   1.806  1.00  0.00     0.002 A 
HETATM   20  C   UNL     1      44.705 -21.446   2.770  1.00  0.00     0.000 A 
HETATM   21  C   UNL     1      44.878 -20.646   3.895  1.00  0.00     0.002 A 
HETATM   22  C   UNL     1      44.110 -19.491   4.058  1.00  0.00     0.029 A 
ENDBRANCH  14  17
ENDBRANCH   3  13
TORSDOF 2
ENDMDL
MODEL 8
REMARK VINA RESULT:      -7.1      1.943      3.371
REMARK  2 active torsions:
REMARK  status: ('A' for Active; 'I' for Inactive)
REMARK    1  A    between atoms: C_3  and  C_4 
REMARK       I    between atoms: C_4  and  N_5 
REMARK    2  A    between atoms: N_5  and  C_6 
ROOT
HETATM    1  C   UNL     1      42.716 -15.686   4.769  1.00  0.00     0.051 C 
HETATM    2  C   UNL     1      41.932 -15.185   3.580  1.00  0.00    -0.021 A 
HETATM    3  C   UNL     1      42.166 -15.856   2.288  1.00  0.00     0.061 A 
HETATM    4  C   UNL     1      41.418 -15.536   1.208  1.00  0.00     0.022 A 
HETATM    5  C   UNL     1      41.424 -16.240  -0.126  1.00  0.00     0.069 C 
HETATM    6  N   UNL     1      40.515 -14.498   1.299  1.00  0.00    -0.349 N 
HETATM    7  C   UNL     1      40.254 -13.777   2.442  1.00  0.00     0.121 A 
HETATM    8  S   UNL     1      39.145 -12.525   2.318  1.00  0.00    -0.059 SA
HETATM    9  C   UNL     1      40.994 -14.214   3.673  1.00  0.00     0.075 A 
HETATM   10  C   UNL     1      40.492 -13.697   5.012  1.00  0.00     0.023 C 
HETATM   11  N   UNL     1      40.077 -13.268   6.122  1.00  0.00    -0.096 N 
HETATM   12  H   UNL     1      39.969 -14.239   0.481  1.00  0.00     0.166 HD
ENDROOT
BRANCH   3  13
HETATM   13  C   UNL     1      43.148 -16.989   2.176  1.00  0.00     0.258 C 
HETATM   14  N   UNL     1      42.607 -18.200   2.568  1.00  0.00    -0.323 N 
HETATM   15  H   UNL     1      41.642 -18.194   2.872  1.00  0.00     0.169 HD
HETATM   16  O   UNL     1      44.285 -16.772   1.778  1.00  0.00    -0.267 OA
BRANCH  14  17
HETATM   17  C   UNL     1      43.286 -19.429   2.707  1.00  0.00     0.035 A 
HETATM   18  C   UNL     1      43.221 -20.466   1.776  1.00  0.00     0.029 A 
HETATM   19  C   UNL     1      43.947 -21.645   1.976  1.00  0.00     0.002 A 
HETATM   20  C   UNL     1      44.748 -21.792   3.106  1.00  0.00     0.000 A 
HETATM   21  C   UNL     1      44.817 -20.765   4.042  1.00  0.00     0.002 A 
HETATM   22  C   UNL     1      44.083 -19.592   3.848  1.00  0.00     0.029 A 
ENDBRANCH  14  17
ENDBRANCH   3  13
TORSDOF 2
ENDMDL
MODEL 9
REMARK VINA RESULT:      -7.0      2.683      6.411
REMARK  2 active torsions:
REMARK  status: ('A' for Active; 'I' for Inactive)
REMARK    1  A    between atoms: C_3  and  C_4 
REMARK       I    between atoms: C_4  and  N_5 
REMARK    2  A    between atoms: N_5  and  C_6 
ROOT
HETATM    1  C   UNL     1      42.904 -19.122   1.884  1.00  0.00     0.051 C 
HETATM    2  C   UNL     1      43.010 -18.254   3.114  1.00  0.00    -0.021 A 
HETATM    3  C   UNL     1      42.131 -17.071   3.182  1.00  0.00     0.061 A 
HETATM    4  C   UNL     1      42.091 -16.314   4.302  1.00  0.00     0.022 A 
HETATM    5  C   UNL     1      41.135 -15.184   4.584  1.00  0.00     0.069 C 
HETATM    6  N   UNL     1      42.964 -16.592   5.332  1.00  0.00    -0.349 N 
HETATM    7  C   UNL     1      43.855 -17.641   5.350  1.00  0.00     0.121 A 
HETATM    8  S   UNL     1      44.855 -17.769   6.691  1.00  0.00    -0.059 SA
HETATM    9  C   UNL     1      43.813 -18.556   4.161  1.00  0.00     0.075 A 
HETATM   10  C   UNL     1      44.509 -19.902   4.287  1.00  0.00     0.023 C 
HETATM   11  N   UNL     1      45.087 -21.017   4.390  1.00  0.00    -0.096 N 
HETATM   12  H   UNL     1      42.953 -16.010   6.166  1.00  0.00     0.166 HD
ENDROOT
BRANCH   3  13
HETATM   13  C   UNL     1      41.175 -16.757   2.065  1.00  0.00     0.258 C 
HETATM   14  N   UNL     1      41.707 -15.873   1.145  1.00  0.00    -0.323 N 
HETATM   15  H   UNL     1      42.650 -15.548   1.313  1.00  0.00     0.169 HD
HETATM   16  O   UNL     1      40.063 -17.268   2.055  1.00  0.00    -0.267 OA
BRANCH  14  17
HETATM   17  C   UNL     1      41.038 -15.274   0.056  1.00  0.00     0.035 A 
HETATM   18  C   UNL     1      40.175 -14.184   0.174  1.00  0.00     0.029 A 
HETATM   19  C   UNL     1      39.570 -13.632  -0.959  1.00  0.00     0.002 A 
HETATM   20  C   UNL     1      39.831 -14.162  -2.222  1.00  0.00     0.000 A 
HETATM   21  C   UNL     1      40.689 -15.250  -2.350  1.00  0.00     0.002 A 
HETATM   22  C   UNL     1      41.283 -15.809  -1.216  1.00  0.00     0.029 A 
ENDBRANCH  14  17
ENDBRANCH   3  13
TORSDOF 2
ENDMDL
MODEL 10
REMARK VINA RESULT:      -7.0      2.798      3.488
REMARK  2 active torsions:
REMARK  status: ('A' for Active; 'I' for Inactive)
REMARK    1  A    between atoms: C_3  and  C_4 
REMARK       I    between atoms: C_4  and  N_5 
REMARK    2  A    between atoms: N_5  and  C_6 
ROOT
HETATM    1  C   UNL     1      40.451 -14.449   2.684  1.00  0.00     0.051 C 
HETATM    2  C   UNL     1      40.959 -13.929   4.007  1.00  0.00    -0.021 A 
HETATM    3  C   UNL     1      42.215 -14.507   4.520  1.00  0.00     0.061 A 
HETATM    4  C   UNL     1      42.788 -14.010   5.639  1.00  0.00     0.022 A 
HETATM    5  C   UNL     1      44.141 -14.379   6.193  1.00  0.00     0.069 C 
HETATM    6  N   UNL     1      42.126 -13.036   6.357  1.00  0.00    -0.349 N 
HETATM    7  C   UNL     1      40.929 -12.462   5.991  1.00  0.00     0.121 A 
HETATM    8  S   UNL     1      40.279 -11.323   7.036  1.00  0.00    -0.059 SA
HETATM    9  C   UNL     1      40.355 -12.925   4.684  1.00  0.00     0.075 A 
HETATM   10  C   UNL     1      39.244 -12.088   4.072  1.00  0.00     0.023 C 
HETATM   11  N   UNL     1      38.321 -11.395   3.564  1.00  0.00    -0.096 N 
HETATM   12  H   UNL     1      42.543 -12.677   7.212  1.00  0.00     0.166 HD
ENDROOT
BRANCH   3  13
HETATM   13  C   UNL     1      42.946 -15.570   3.747  1.00  0.00     0.258 C 
HETATM   14  N   UNL     1      42.610 -16.847   4.154  1.00  0.00    -0.323 N 
HETATM   15  H   UNL     1      41.929 -16.928   4.898  1.00  0.00     0.169 HD
HETATM   16  O   UNL     1      43.742 -15.248   2.874  1.00  0.00    -0.267 OA
BRANCH  14  17
HETATM   17  C   UNL     1      43.201 -18.057   3.731  1.00  0.00     0.035 A 
HETATM   18  C   UNL     1      44.076 -18.813   4.512  1.00  0.00     0.029 A 
HETATM   19  C   UNL     1      44.599 -20.017   4.029  1.00  0.00     0.002 A 
HETATM   20  C   UNL     1      44.244 -20.477   2.763  1.00  0.00     0.000 A 
HETATM   21  C   UNL     1      43.374 -19.730   1.975  1.00  0.00     0.002 A 
HETATM   22  C   UNL     1      42.861 -18.521   2.453  1.00  0.00     0.029 A 
ENDBRANCH  14  17
ENDBRANCH   3  13
TORSDOF 2
ENDMDL
