MODEL 1
REMARK VINA RESULT:      -8.2      0.000      0.000
REMARK  5 active torsions:
REMARK  status: ('A' for Active; 'I' for Inactive)
REMARK    1  A    between atoms: O_2  and  C_3 
REMARK    2  A    between atoms: C_5  and  C_23 
REMARK    3  A    between atoms: C_11  and  C_14 
REMARK    4  A    between atoms: C_14  and  N_15 
REMARK    5  A    between atoms: C_14  and  C_16 
ROOT
HETATM    1  C   UNL     1      41.109 -14.680  -2.795  1.00  0.00     0.098 A 
HETATM    2  C   UNL     1      41.451 -13.517  -3.504  1.00  0.00     0.051 A 
HETATM    3  C   UNL     1      41.956 -12.386  -2.843  1.00  0.00    -0.019 A 
HETATM    4  C   UNL     1      42.117 -12.432  -1.456  1.00  0.00     0.032 A 
HETATM    5  C   UNL     1      41.786 -13.596  -0.753  1.00  0.00     0.064 A 
HETATM    6  C   UNL     1      41.929 -13.644   0.712  1.00  0.00     0.259 A 
HETATM    7  O   UNL     1      42.335 -12.686   1.358  1.00  0.00    -0.267 OA
HETATM    8  N   UNL     1      41.566 -14.823   1.300  1.00  0.00    -0.309 N 
HETATM    9  C   UNL     1      41.102 -15.907   0.600  1.00  0.00     0.145 A 
HETATM   10  N   UNL     1      40.954 -15.906  -0.685  1.00  0.00    -0.229 NA
HETATM   11  C   UNL     1      41.290 -14.733  -1.400  1.00  0.00     0.108 A 
HETATM   12  H   UNL     1      41.607 -14.875   2.309  1.00  0.00     0.170 HD
ENDROOT
BRANCH   9  13
HETATM   13  C   UNL     1      40.739 -17.143   1.437  1.00  0.00     0.320 C 
BRANCH  13  14
HETATM   14  N   UNL     1      39.480 -16.859   2.157  1.00  0.00     0.094 N 
HETATM   15  H   UNL     1      39.718 -16.672   3.132  1.00  0.00     0.314 HD
HETATM   16  H   UNL     1      38.934 -17.723   2.178  1.00  0.00     0.314 HD
ENDBRANCH  13  14
BRANCH  13  17
HETATM   17  C   UNL     1      41.873 -17.536   2.371  1.00  0.00    -0.018 A 
HETATM   18  C   UNL     1      41.700 -17.383   3.758  1.00  0.00     0.011 A 
HETATM   19  C   UNL     1      42.711 -17.749   4.650  1.00  0.00     0.024 A 
HETATM   20  C   UNL     1      43.905 -18.277   4.167  1.00  0.00     0.034 A 
HETATM   21 CL   UNL     1      45.152 -18.725   5.264  1.00  0.00    -0.084 Cl
HETATM   22  C   UNL     1      44.094 -18.448   2.798  1.00  0.00     0.024 A 
HETATM   23  C   UNL     1      43.083 -18.082   1.906  1.00  0.00     0.011 A 
ENDBRANCH  13  17
ENDBRANCH   9  13
BRANCH   1  24
HETATM   24  O   UNL     1      40.615 -15.819  -3.385  1.00  0.00    -0.354 OA
HETATM   25  C   UNL     1      39.313 -15.743  -3.950  1.00  0.00     0.210 C 
ENDBRANCH   1  24
BRANCH   3  26
HETATM   26  C   UNL     1      42.291 -11.189  -3.596  1.00  0.00     0.010 A 
HETATM   27  C   UNL     1      42.462  -9.847  -3.180  1.00  0.00     0.152 A 
HETATM   28  N   UNL     1      42.759  -9.024  -4.188  1.00  0.00    -0.187 NA
HETATM   29  N   UNL     1      42.783  -9.834  -5.258  1.00  0.00    -0.289 N 
HETATM   30  H   UNL     1      42.992  -9.429  -6.165  1.00  0.00     0.188 HD
HETATM   31  C   UNL     1      42.507 -11.137  -4.958  1.00  0.00     0.123 A 
ENDBRANCH   3  26
TORSDOF 5
ENDMDL
MODEL 2
REMARK VINA RESULT:      -8.2      5.379      9.146
REMARK  5 active torsions:
REMARK  status: ('A' for Active; 'I' for Inactive)
REMARK    1  A    between atoms: O_2  and  C_3 
REMARK    2  A    between atoms: C_5  and  C_23 
REMARK    3  A    between atoms: C_11  and  C_14 
REMARK    4  A    between atoms: C_14  and  N_15 
REMARK    5  A    between atoms: C_14  and  C_16 
ROOT
HETATM    1  C   UNL     1      43.705 -17.303   3.069  1.00  0.00     0.098 A 
HETATM    2  C   UNL     1      44.023 -18.663   2.922  1.00  0.00     0.051 A 
HETATM    3  C   UNL     1      44.009 -19.534   4.022  1.00  0.00    -0.019 A 
HETATM    4  C   UNL     1      43.670 -19.028   5.278  1.00  0.00     0.032 A 
HETATM    5  C   UNL     1      43.342 -17.675   5.421  1.00  0.00     0.064 A 
HETATM    6  C   UNL     1      43.009 -17.127   6.747  1.00  0.00     0.259 A 
HETATM    7  O   UNL     1      43.005 -17.823   7.755  1.00  0.00    -0.267 OA
HETATM    8  N   UNL     1      42.717 -15.793   6.775  1.00  0.00    -0.309 N 
HETATM    9  C   UNL     1      42.720 -14.993   5.663  1.00  0.00     0.145 A 
HETATM   10  N   UNL     1      43.014 -15.430   4.481  1.00  0.00    -0.229 NA
HETATM   11  C   UNL     1      43.344 -16.797   4.332  1.00  0.00     0.108 A 
HETATM   12  H   UNL     1      42.528 -15.375   7.677  1.00  0.00     0.170 HD
ENDROOT
BRANCH   9  13
HETATM   13  C   UNL     1      42.371 -13.515   5.896  1.00  0.00     0.320 C 
BRANCH  13  14
HETATM   14  N   UNL     1      42.505 -12.801   4.609  1.00  0.00     0.094 N 
HETATM   15  H   UNL     1      42.549 -11.802   4.815  1.00  0.00     0.314 HD
HETATM   16  H   UNL     1      41.633 -12.928   4.092  1.00  0.00     0.314 HD
ENDBRANCH  13  14
BRANCH  13  17
HETATM   17  C   UNL     1      43.225 -12.908   6.997  1.00  0.00    -0.018 A 
HETATM   18  C   UNL     1      42.716 -11.826   7.738  1.00  0.00     0.011 A 
HETATM   19  C   UNL     1      43.462 -11.251   8.770  1.00  0.00     0.024 A 
HETATM   20  C   UNL     1      44.724 -11.753   9.076  1.00  0.00     0.034 A 
HETATM   21 CL   UNL     1      45.645 -11.044  10.345  1.00  0.00    -0.084 Cl
HETATM   22  C   UNL     1      45.243 -12.831   8.364  1.00  0.00     0.024 A 
HETATM   23  C   UNL     1      44.497 -13.406   7.332  1.00  0.00     0.011 A 
ENDBRANCH  13  17
ENDBRANCH   9  13
BRANCH   1  24
HETATM   24  O   UNL     1      43.695 -16.401   2.031  1.00  0.00    -0.354 OA
HETATM   25  C   UNL     1      42.732 -16.606   1.006  1.00  0.00     0.210 C 
ENDBRANCH   1  24
BRANCH   3  26
HETATM   26  C   UNL     1      44.355 -20.935   3.847  1.00  0.00     0.010 A 
HETATM   27  C   UNL     1      44.378 -21.748   2.689  1.00  0.00     0.152 A 
HETATM   28  N   UNL     1      44.744 -23.007   2.943  1.00  0.00    -0.187 NA
HETATM   29  N   UNL     1      44.961 -23.008   4.269  1.00  0.00    -0.289 N 
HETATM   30  H   UNL     1      45.255 -23.873   4.708  1.00  0.00     0.188 HD
HETATM   31  C   UNL     1      44.739 -21.795   4.856  1.00  0.00     0.123 A 
ENDBRANCH   3  26
TORSDOF 5
ENDMDL
MODEL 3
REMARK VINA RESULT:      -8.2      3.646      8.778
REMARK  5 active torsions:
REMARK  status: ('A' for Active; 'I' for Inactive)
REMARK    1  A    between atoms: O_2  and  C_3 
REMARK    2  A    between atoms: C_5  and  C_23 
REMARK    3  A    between atoms: C_11  and  C_14 
REMARK    4  A    between atoms: C_14  and  N_15 
REMARK    5  A    between atoms: C_14  and  C_16 
ROOT
HETATM    1  C   UNL     1      40.964 -15.894   4.084  1.00  0.00     0.098 A 
HETATM    2  C   UNL     1      41.490 -16.597   5.180  1.00  0.00     0.051 A 
HETATM    3  C   UNL     1      42.517 -17.539   5.012  1.00  0.00    -0.019 A 
HETATM    4  C   UNL     1      43.016 -17.770   3.728  1.00  0.00     0.032 A 
HETATM    5  C   UNL     1      42.499 -17.060   2.640  1.00  0.00     0.064 A 
HETATM    6  C   UNL     1      43.002 -17.316   1.279  1.00  0.00     0.259 A 
HETATM    7  O   UNL     1      43.876 -18.144   1.054  1.00  0.00    -0.267 OA
HETATM    8  N   UNL     1      42.419 -16.577   0.288  1.00  0.00    -0.309 N 
HETATM    9  C   UNL     1      41.435 -15.650   0.513  1.00  0.00     0.145 A 
HETATM   10  N   UNL     1      40.959 -15.399   1.690  1.00  0.00    -0.229 NA
HETATM   11  C   UNL     1      41.481 -16.112   2.793  1.00  0.00     0.108 A 
HETATM   12  H   UNL     1      42.708 -16.761  -0.664  1.00  0.00     0.170 HD
ENDROOT
BRANCH   9  13
HETATM   13  C   UNL     1      40.899 -14.922  -0.729  1.00  0.00     0.320 C 
BRANCH  13  14
HETATM   14  N   UNL     1      41.020 -15.834  -1.886  1.00  0.00     0.094 N 
HETATM   15  H   UNL     1      40.091 -16.211  -2.079  1.00  0.00     0.314 HD
HETATM   16  H   UNL     1      41.576 -16.638  -1.590  1.00  0.00     0.314 HD
ENDBRANCH  13  14
BRANCH  13  17
HETATM   17  C   UNL     1      41.612 -13.597  -0.949  1.00  0.00    -0.018 A 
HETATM   18  C   UNL     1      42.144 -13.310  -2.219  1.00  0.00     0.011 A 
HETATM   19  C   UNL     1      42.790 -12.096  -2.466  1.00  0.00     0.024 A 
HETATM   20  C   UNL     1      42.907 -11.154  -1.449  1.00  0.00     0.034 A 
HETATM   21 CL   UNL     1      43.706  -9.659  -1.752  1.00  0.00    -0.084 Cl
HETATM   22  C   UNL     1      42.378 -11.410  -0.188  1.00  0.00     0.024 A 
HETATM   23  C   UNL     1      41.732 -12.625   0.060  1.00  0.00     0.011 A 
ENDBRANCH  13  17
ENDBRANCH   9  13
BRANCH   1  24
HETATM   24  O   UNL     1      39.963 -14.957   4.184  1.00  0.00    -0.354 OA
HETATM   25  C   UNL     1      39.891 -14.215   5.395  1.00  0.00     0.210 C 
ENDBRANCH   1  24
BRANCH   3  26
HETATM   26  C   UNL     1      43.037 -18.264   6.160  1.00  0.00     0.010 A 
HETATM   27  C   UNL     1      43.571 -19.570   6.268  1.00  0.00     0.152 A 
HETATM   28  N   UNL     1      43.935 -19.882   7.515  1.00  0.00    -0.187 NA
HETATM   29  N   UNL     1      43.637 -18.775   8.214  1.00  0.00    -0.289 N 
HETATM   30  H   UNL     1      43.827 -18.769   9.210  1.00  0.00     0.188 HD
HETATM   31  C   UNL     1      43.096 -17.781   7.451  1.00  0.00     0.123 A 
ENDBRANCH   3  26
TORSDOF 5
ENDMDL
MODEL 4
REMARK VINA RESULT:      -8.0      5.273      8.908
REMARK  5 active torsions:
REMARK  status: ('A' for Active; 'I' for Inactive)
REMARK    1  A    between atoms: O_2  and  C_3 
REMARK    2  A    between atoms: C_5  and  C_23 
REMARK    3  A    between atoms: C_11  and  C_14 
REMARK    4  A    between atoms: C_14  and  N_15 
REMARK    5  A    between atoms: C_14  and  C_16 
ROOT
HETATM    1  C   UNL     1      43.641 -17.351   2.703  1.00  0.00     0.098 A 
HETATM    2  C   UNL     1      43.935 -18.724   2.666  1.00  0.00     0.051 A 
HETATM    3  C   UNL     1      44.109 -19.462   3.847  1.00  0.00    -0.019 A 
HETATM    4  C   UNL     1      43.984 -18.807   5.075  1.00  0.00     0.032 A 
HETATM    5  C   UNL     1      43.679 -17.442   5.110  1.00  0.00     0.064 A 
HETATM    6  C   UNL     1      43.571 -16.739   6.401  1.00  0.00     0.259 A 
HETATM    7  O   UNL     1      43.739 -17.312   7.469  1.00  0.00    -0.267 OA
HETATM    8  N   UNL     1      43.283 -15.406   6.320  1.00  0.00    -0.309 N 
HETATM    9  C   UNL     1      43.097 -14.740   5.137  1.00  0.00     0.145 A 
HETATM   10  N   UNL     1      43.190 -15.316   3.982  1.00  0.00    -0.229 NA
HETATM   11  C   UNL     1      43.495 -16.696   3.941  1.00  0.00     0.108 A 
HETATM   12  H   UNL     1      43.247 -14.882   7.186  1.00  0.00     0.170 HD
ENDROOT
BRANCH   9  13
HETATM   13  C   UNL     1      42.785 -13.240   5.250  1.00  0.00     0.320 C 
BRANCH  13  14
HETATM   14  N   UNL     1      42.603 -12.913   6.680  1.00  0.00     0.094 N 
HETATM   15  H   UNL     1      41.862 -12.213   6.743  1.00  0.00     0.314 HD
HETATM   16  H   UNL     1      43.448 -12.435   6.998  1.00  0.00     0.314 HD
ENDBRANCH  13  14
BRANCH  13  17
HETATM   17  C   UNL     1      41.584 -12.855   4.402  1.00  0.00    -0.018 A 
HETATM   18  C   UNL     1      40.299 -12.915   4.971  1.00  0.00     0.011 A 
HETATM   19  C   UNL     1      39.170 -12.553   4.230  1.00  0.00     0.024 A 
HETATM   20  C   UNL     1      39.314 -12.122   2.914  1.00  0.00     0.034 A 
HETATM   21 CL   UNL     1      37.925 -11.678   2.000  1.00  0.00    -0.084 Cl
HETATM   22  C   UNL     1      40.577 -12.044   2.334  1.00  0.00     0.024 A 
HETATM   23  C   UNL     1      41.705 -12.406   3.075  1.00  0.00     0.011 A 
ENDBRANCH  13  17
ENDBRANCH   9  13
BRANCH   1  24
HETATM   24  O   UNL     1      43.454 -16.576   1.584  1.00  0.00    -0.354 OA
HETATM   25  C   UNL     1      42.296 -16.840   0.801  1.00  0.00     0.210 C 
ENDBRANCH   1  24
BRANCH   3  26
HETATM   26  C   UNL     1      44.426 -20.879   3.782  1.00  0.00     0.010 A 
HETATM   27  C   UNL     1      44.408 -21.785   2.696  1.00  0.00     0.152 A 
HETATM   28  N   UNL     1      44.758 -23.025   3.046  1.00  0.00    -0.187 NA
HETATM   29  N   UNL     1      45.004 -22.920   4.362  1.00  0.00    -0.289 N 
HETATM   30  H   UNL     1      45.293 -23.752   4.866  1.00  0.00     0.188 HD
HETATM   31  C   UNL     1      44.818 -21.659   4.851  1.00  0.00     0.123 A 
ENDBRANCH   3  26
TORSDOF 5
ENDMDL
MODEL 5
REMARK VINA RESULT:      -7.9      4.511      8.449
REMARK  5 active torsions:
REMARK  status: ('A' for Active; 'I' for Inactive)
REMARK    1  A    between atoms: O_2  and  C_3 
REMARK    2  A    between atoms: C_5  and  C_23 
REMARK    3  A    between atoms: C_11  and  C_14 
REMARK    4  A    between atoms: C_14  and  N_15 
REMARK    5  A    between atoms: C_14  and  C_16 
ROOT
HETATM    1  C   UNL     1      43.319 -16.872   4.333  1.00  0.00     0.098 A 
HETATM    2  C   UNL     1      43.746 -18.199   4.158  1.00  0.00     0.051 A 
HETATM    3  C   UNL     1      43.504 -18.887   2.959  1.00  0.00    -0.019 A 
HETATM    4  C   UNL     1      42.826 -18.230   1.930  1.00  0.00     0.032 A 
HETATM    5  C   UNL     1      42.411 -16.905   2.102  1.00  0.00     0.064 A 
HETATM    6  C   UNL     1      41.673 -16.213   1.031  1.00  0.00     0.259 A 
HETATM    7  O   UNL     1      41.401 -16.761  -0.030  1.00  0.00    -0.267 OA
HETATM    8  N   UNL     1      41.304 -14.927   1.308  1.00  0.00    -0.309 N 
HETATM    9  C   UNL     1      41.591 -14.294   2.489  1.00  0.00     0.145 A 
HETATM   10  N   UNL     1      42.230 -14.866   3.458  1.00  0.00    -0.229 NA
HETATM   11  C   UNL     1      42.653 -16.204   3.288  1.00  0.00     0.108 A 
HETATM   12  H   UNL     1      40.756 -14.438   0.612  1.00  0.00     0.170 HD
ENDROOT
BRANCH   9  13
HETATM   13  C   UNL     1      41.088 -12.848   2.617  1.00  0.00     0.320 C 
BRANCH  13  14
HETATM   14  N   UNL     1      42.142 -11.946   2.107  1.00  0.00     0.094 N 
HETATM   15  H   UNL     1      42.188 -11.141   2.734  1.00  0.00     0.314 HD
HETATM   16  H   UNL     1      41.821 -11.569   1.214  1.00  0.00     0.314 HD
ENDBRANCH  13  14
BRANCH  13  17
HETATM   17  C   UNL     1      40.679 -12.525   4.045  1.00  0.00    -0.018 A 
HETATM   18  C   UNL     1      41.457 -11.621   4.791  1.00  0.00     0.011 A 
HETATM   19  C   UNL     1      41.104 -11.284   6.101  1.00  0.00     0.024 A 
HETATM   20  C   UNL     1      39.968 -11.844   6.678  1.00  0.00     0.034 A 
HETATM   21 CL   UNL     1      39.535 -11.432   8.292  1.00  0.00    -0.084 Cl
HETATM   22  C   UNL     1      39.176 -12.732   5.955  1.00  0.00     0.024 A 
HETATM   23  C   UNL     1      39.529 -13.068   4.646  1.00  0.00     0.011 A 
ENDBRANCH  13  17
ENDBRANCH   9  13
BRANCH   1  24
HETATM   24  O   UNL     1      43.530 -16.144   5.479  1.00  0.00    -0.354 OA
HETATM   25  C   UNL     1      44.230 -16.789   6.535  1.00  0.00     0.210 C 
ENDBRANCH   1  24
BRANCH   3  26
HETATM   26  C   UNL     1      43.945 -20.264   2.806  1.00  0.00     0.010 A 
HETATM   27  C   UNL     1      43.770 -21.182   1.744  1.00  0.00     0.152 A 
HETATM   28  N   UNL     1      44.321 -22.373   1.989  1.00  0.00    -0.187 NA
HETATM   29  N   UNL     1      44.854 -22.225   3.213  1.00  0.00    -0.289 N 
HETATM   30  H   UNL     1      45.339 -23.015   3.626  1.00  0.00     0.188 HD
HETATM   31  C   UNL     1      44.654 -20.984   3.745  1.00  0.00     0.123 A 
ENDBRANCH   3  26
TORSDOF 5
ENDMDL
MODEL 6
REMARK VINA RESULT:      -7.9      5.308      7.373
REMARK  5 active torsions:
REMARK  status: ('A' for Active; 'I' for Inactive)
REMARK    1  A    between atoms: O_2  and  C_3 
REMARK    2  A    between atoms: C_5  and  C_23 
REMARK    3  A    between atoms: C_11  and  C_14 
REMARK    4  A    between atoms: C_14  and  N_15 
REMARK    5  A    between atoms: C_14  and  C_16 
ROOT
HETATM    1  C   UNL     1      43.224 -13.627   5.389  1.00  0.00     0.098 A 
HETATM    2  C   UNL     1      42.423 -12.732   6.117  1.00  0.00     0.051 A 
HETATM    3  C   UNL     1      41.048 -12.616   5.862  1.00  0.00    -0.019 A 
HETATM    4  C   UNL     1      40.479 -13.410   4.863  1.00  0.00     0.032 A 
HETATM    5  C   UNL     1      41.276 -14.309   4.147  1.00  0.00     0.064 A 
HETATM    6  C   UNL     1      40.688 -15.132   3.075  1.00  0.00     0.259 A 
HETATM    7  O   UNL     1      39.502 -15.061   2.778  1.00  0.00    -0.267 OA
HETATM    8  N   UNL     1      41.558 -15.966   2.431  1.00  0.00    -0.309 N 
HETATM    9  C   UNL     1      42.889 -16.058   2.741  1.00  0.00     0.145 A 
HETATM   10  N   UNL     1      43.448 -15.350   3.669  1.00  0.00    -0.229 NA
HETATM   11  C   UNL     1      42.646 -14.442   4.397  1.00  0.00     0.108 A 
HETATM   12  H   UNL     1      41.197 -16.511   1.659  1.00  0.00     0.170 HD
ENDROOT
BRANCH   9  13
HETATM   13  C   UNL     1      43.708 -17.050   1.901  1.00  0.00     0.320 C 
BRANCH  13  14
HETATM   14  N   UNL     1      43.010 -17.252   0.614  1.00  0.00     0.094 N 
HETATM   15  H   UNL     1      42.148 -17.763   0.809  1.00  0.00     0.314 HD
HETATM   16  H   UNL     1      43.576 -17.891   0.052  1.00  0.00     0.314 HD
ENDBRANCH  13  14
BRANCH  13  17
HETATM   17  C   UNL     1      43.946 -18.351   2.651  1.00  0.00    -0.018 A 
HETATM   18  C   UNL     1      44.121 -19.539   1.919  1.00  0.00     0.011 A 
HETATM   19  C   UNL     1      44.359 -20.753   2.570  1.00  0.00     0.024 A 
HETATM   20  C   UNL     1      44.430 -20.792   3.959  1.00  0.00     0.034 A 
HETATM   21 CL   UNL     1      44.721 -22.286   4.762  1.00  0.00    -0.084 Cl
HETATM   22  C   UNL     1      44.272 -19.627   4.704  1.00  0.00     0.024 A 
HETATM   23  C   UNL     1      44.034 -18.413   4.053  1.00  0.00     0.011 A 
ENDBRANCH  13  17
ENDBRANCH   9  13
BRANCH   1  24
HETATM   24  O   UNL     1      44.573 -13.791   5.596  1.00  0.00    -0.354 OA
HETATM   25  C   UNL     1      44.999 -14.026   6.932  1.00  0.00     0.210 C 
ENDBRANCH   1  24
BRANCH   3  26
HETATM   26  C   UNL     1      40.242 -11.673   6.620  1.00  0.00     0.010 A 
HETATM   27  C   UNL     1      39.471 -11.845   7.794  1.00  0.00     0.152 A 
HETATM   28  N   UNL     1      38.856 -10.725   8.182  1.00  0.00    -0.187 NA
HETATM   29  N   UNL     1      39.232  -9.826   7.258  1.00  0.00    -0.289 N 
HETATM   30  H   UNL     1      38.884  -8.877   7.341  1.00  0.00     0.188 HD
HETATM   31  C   UNL     1      40.058 -10.343   6.302  1.00  0.00     0.123 A 
ENDBRANCH   3  26
TORSDOF 5
ENDMDL
MODEL 7
REMARK VINA RESULT:      -7.8      5.166      8.508
REMARK  5 active torsions:
REMARK  status: ('A' for Active; 'I' for Inactive)
REMARK    1  A    between atoms: O_2  and  C_3 
REMARK    2  A    between atoms: C_5  and  C_23 
REMARK    3  A    between atoms: C_11  and  C_14 
REMARK    4  A    between atoms: C_14  and  N_15 
REMARK    5  A    between atoms: C_14  and  C_16 
ROOT
HETATM    1  C   UNL     1      42.181 -15.707   2.785  1.00  0.00     0.098 A 
HETATM    2  C   UNL     1      42.865 -16.918   2.588  1.00  0.00     0.051 A 
HETATM    3  C   UNL     1      42.850 -17.927   3.564  1.00  0.00    -0.019 A 
HETATM    4  C   UNL     1      42.138 -17.710   4.746  1.00  0.00     0.032 A 
HETATM    5  C   UNL     1      41.448 -16.508   4.936  1.00  0.00     0.064 A 
HETATM    6  C   UNL     1      40.716 -16.261   6.190  1.00  0.00     0.259 A 
HETATM    7  O   UNL     1      40.685 -17.084   7.097  1.00  0.00    -0.267 OA
HETATM    8  N   UNL     1      40.088 -15.050   6.276  1.00  0.00    -0.309 N 
HETATM    9  C   UNL     1      40.115 -14.111   5.279  1.00  0.00     0.145 A 
HETATM   10  N   UNL     1      40.750 -14.283   4.165  1.00  0.00    -0.229 NA
HETATM   11  C   UNL     1      41.447 -15.497   3.968  1.00  0.00     0.108 A 
HETATM   12  H   UNL     1      39.615 -14.829   7.142  1.00  0.00     0.170 HD
ENDROOT
BRANCH   9  13
HETATM   13  C   UNL     1      39.353 -12.807   5.562  1.00  0.00     0.320 C 
BRANCH  13  14
HETATM   14  N   UNL     1      39.287 -12.029   4.307  1.00  0.00     0.094 N 
HETATM   15  H   UNL     1      38.672 -11.231   4.472  1.00  0.00     0.314 HD
HETATM   16  H   UNL     1      38.799 -12.600   3.614  1.00  0.00     0.314 HD
ENDBRANCH  13  14
BRANCH  13  17
HETATM   17  C   UNL     1      39.987 -12.028   6.703  1.00  0.00    -0.018 A 
HETATM   18  C   UNL     1      41.307 -11.562   6.561  1.00  0.00     0.011 A 
HETATM   19  C   UNL     1      41.920 -10.827   7.579  1.00  0.00     0.024 A 
HETATM   20  C   UNL     1      41.220 -10.546   8.749  1.00  0.00     0.034 A 
HETATM   21 CL   UNL     1      41.975  -9.644  10.005  1.00  0.00    -0.084 Cl
HETATM   22  C   UNL     1      39.909 -10.988   8.908  1.00  0.00     0.024 A 
HETATM   23  C   UNL     1      39.296 -11.722   7.889  1.00  0.00     0.011 A 
ENDBRANCH  13  17
ENDBRANCH   9  13
BRANCH   1  24
HETATM   24  O   UNL     1      42.152 -14.685   1.867  1.00  0.00    -0.354 OA
HETATM   25  C   UNL     1      41.543 -14.960   0.612  1.00  0.00     0.210 C 
ENDBRANCH   1  24
BRANCH   3  26
HETATM   26  C   UNL     1      43.576 -19.166   3.343  1.00  0.00     0.010 A 
HETATM   27  C   UNL     1      43.626 -20.025   2.220  1.00  0.00     0.152 A 
HETATM   28  N   UNL     1      44.410 -21.088   2.412  1.00  0.00    -0.187 NA
HETATM   29  N   UNL     1      44.871 -20.916   3.661  1.00  0.00    -0.289 N 
HETATM   30  H   UNL     1      45.502 -21.613   4.043  1.00  0.00     0.188 HD
HETATM   31  C   UNL     1      44.400 -19.784   4.262  1.00  0.00     0.123 A 
ENDBRANCH   3  26
TORSDOF 5
ENDMDL
MODEL 8
REMARK VINA RESULT:      -7.7      6.975      7.849
REMARK  5 active torsions:
REMARK  status: ('A' for Active; 'I' for Inactive)
REMARK    1  A    between atoms: O_2  and  C_3 
REMARK    2  A    between atoms: C_5  and  C_23 
REMARK    3  A    between atoms: C_11  and  C_14 
REMARK    4  A    between atoms: C_14  and  N_15 
REMARK    5  A    between atoms: C_14  and  C_16 
ROOT
HETATM    1  C   UNL     1      43.539 -13.894   5.956  1.00  0.00     0.098 A 
HETATM    2  C   UNL     1      42.611 -12.844   5.862  1.00  0.00     0.051 A 
HETATM    3  C   UNL     1      41.232 -13.097   5.801  1.00  0.00    -0.019 A 
HETATM    4  C   UNL     1      40.788 -14.420   5.837  1.00  0.00     0.032 A 
HETATM    5  C   UNL     1      41.712 -15.465   5.942  1.00  0.00     0.064 A 
HETATM    6  C   UNL     1      41.253 -16.865   5.955  1.00  0.00     0.259 A 
HETATM    7  O   UNL     1      40.067 -17.160   5.876  1.00  0.00    -0.267 OA
HETATM    8  N   UNL     1      42.239 -17.806   6.048  1.00  0.00    -0.309 N 
HETATM    9  C   UNL     1      43.573 -17.500   6.130  1.00  0.00     0.145 A 
HETATM   10  N   UNL     1      44.020 -16.286   6.115  1.00  0.00    -0.229 NA
HETATM   11  C   UNL     1      43.089 -15.228   6.012  1.00  0.00     0.108 A 
HETATM   12  H   UNL     1      41.962 -18.778   6.012  1.00  0.00     0.170 HD
ENDROOT
BRANCH   9  13
HETATM   13  C   UNL     1      44.532 -18.696   6.223  1.00  0.00     0.320 C 
BRANCH  13  14
HETATM   14  N   UNL     1      45.885 -18.181   6.519  1.00  0.00     0.094 N 
HETATM   15  H   UNL     1      46.548 -18.938   6.347  1.00  0.00     0.314 HD
HETATM   16  H   UNL     1      45.937 -18.006   7.524  1.00  0.00     0.314 HD
ENDBRANCH  13  14
BRANCH  13  17
HETATM   17  C   UNL     1      44.490 -19.544   4.961  1.00  0.00    -0.018 A 
HETATM   18  C   UNL     1      44.695 -20.931   5.063  1.00  0.00     0.011 A 
HETATM   19  C   UNL     1      44.646 -21.747   3.930  1.00  0.00     0.024 A 
HETATM   20  C   UNL     1      44.387 -21.186   2.683  1.00  0.00     0.034 A 
HETATM   21 CL   UNL     1      44.329 -22.190   1.286  1.00  0.00    -0.084 Cl
HETATM   22  C   UNL     1      44.168 -19.817   2.559  1.00  0.00     0.024 A 
HETATM   23  C   UNL     1      44.217 -19.001   3.692  1.00  0.00     0.011 A 
ENDBRANCH  13  17
ENDBRANCH   9  13
BRANCH   1  24
HETATM   24  O   UNL     1      44.899 -13.712   6.024  1.00  0.00    -0.354 OA
HETATM   25  C   UNL     1      45.457 -13.480   7.311  1.00  0.00     0.210 C 
ENDBRANCH   1  24
BRANCH   3  26
HETATM   26  C   UNL     1      40.292 -11.993   5.692  1.00  0.00     0.010 A 
HETATM   27  C   UNL     1      39.039 -11.902   5.039  1.00  0.00     0.152 A 
HETATM   28  N   UNL     1      38.477 -10.697   5.158  1.00  0.00    -0.187 NA
HETATM   29  N   UNL     1      39.367 -10.007   5.890  1.00  0.00    -0.289 N 
HETATM   30  H   UNL     1      39.158  -9.041   6.117  1.00  0.00     0.188 HD
HETATM   31  C   UNL     1      40.470 -10.736   6.232  1.00  0.00     0.123 A 
ENDBRANCH   3  26
TORSDOF 5
ENDMDL
MODEL 9
REMARK VINA RESULT:      -7.7      4.923      9.352
REMARK  5 active torsions:
REMARK  status: ('A' for Active; 'I' for Inactive)
REMARK    1  A    between atoms: O_2  and  C_3 
REMARK    2  A    between atoms: C_5  and  C_23 
REMARK    3  A    between atoms: C_11  and  C_14 
REMARK    4  A    between atoms: C_14  and  N_15 
REMARK    5  A    between atoms: C_14  and  C_16 
ROOT
HETATM    1  C   UNL     1      43.325 -17.713   5.770  1.00  0.00     0.098 A 
HETATM    2  C   UNL     1      43.692 -19.059   5.609  1.00  0.00     0.051 A 
HETATM    3  C   UNL     1      44.038 -19.572   4.348  1.00  0.00    -0.019 A 
HETATM    4  C   UNL     1      44.013 -18.717   3.244  1.00  0.00     0.032 A 
HETATM    5  C   UNL     1      43.658 -17.374   3.408  1.00  0.00     0.064 A 
HETATM    6  C   UNL     1      43.605 -16.472   2.244  1.00  0.00     0.259 A 
HETATM    7  O   UNL     1      43.865 -16.857   1.111  1.00  0.00    -0.267 OA
HETATM    8  N   UNL     1      43.234 -15.185   2.515  1.00  0.00    -0.309 N 
HETATM    9  C   UNL     1      42.932 -14.732   3.772  1.00  0.00     0.145 A 
HETATM   10  N   UNL     1      42.958 -15.490   4.821  1.00  0.00    -0.229 NA
HETATM   11  C   UNL     1      43.319 -16.847   4.660  1.00  0.00     0.108 A 
HETATM   12  H   UNL     1      43.142 -14.551   1.732  1.00  0.00     0.170 HD
ENDROOT
BRANCH   9  13
HETATM   13  C   UNL     1      42.531 -13.252   3.876  1.00  0.00     0.320 C 
BRANCH  13  14
HETATM   14  N   UNL     1      42.227 -12.955   5.292  1.00  0.00     0.094 N 
HETATM   15  H   UNL     1      42.524 -13.760   5.846  1.00  0.00     0.314 HD
HETATM   16  H   UNL     1      41.211 -12.925   5.390  1.00  0.00     0.314 HD
ENDBRANCH  13  14
BRANCH  13  17
HETATM   17  C   UNL     1      41.375 -12.922   2.945  1.00  0.00    -0.018 A 
HETATM   18  C   UNL     1      40.121 -13.518   3.175  1.00  0.00     0.011 A 
HETATM   19  C   UNL     1      39.029 -13.227   2.353  1.00  0.00     0.024 A 
HETATM   20  C   UNL     1      39.176 -12.334   1.296  1.00  0.00     0.034 A 
HETATM   21 CL   UNL     1      37.833 -11.977   0.281  1.00  0.00    -0.084 Cl
HETATM   22  C   UNL     1      40.404 -11.723   1.056  1.00  0.00     0.024 A 
HETATM   23  C   UNL     1      41.496 -12.014   1.878  1.00  0.00     0.011 A 
ENDBRANCH  13  17
ENDBRANCH   9  13
BRANCH   1  24
HETATM   24  O   UNL     1      42.981 -17.152   6.976  1.00  0.00    -0.354 OA
HETATM   25  C   UNL     1      43.576 -17.709   8.141  1.00  0.00     0.210 C 
ENDBRANCH   1  24
BRANCH   3  26
HETATM   26  C   UNL     1      44.403 -20.971   4.204  1.00  0.00     0.010 A 
HETATM   27  C   UNL     1      44.431 -21.811   3.066  1.00  0.00     0.152 A 
HETATM   28  N   UNL     1      44.817 -23.058   3.348  1.00  0.00    -0.187 NA
HETATM   29  N   UNL     1      45.041 -23.024   4.671  1.00  0.00    -0.289 N 
HETATM   30  H   UNL     1      45.350 -23.875   5.129  1.00  0.00     0.188 HD
HETATM   31  C   UNL     1      44.805 -21.802   5.231  1.00  0.00     0.123 A 
ENDBRANCH   3  26
TORSDOF 5
ENDMDL
MODEL 10
REMARK VINA RESULT:      -7.7      4.020      8.684
REMARK  5 active torsions:
REMARK  status: ('A' for Active; 'I' for Inactive)
REMARK    1  A    between atoms: O_2  and  C_3 
REMARK    2  A    between atoms: C_5  and  C_23 
REMARK    3  A    between atoms: C_11  and  C_14 
REMARK    4  A    between atoms: C_14  and  N_15 
REMARK    5  A    between atoms: C_14  and  C_16 
ROOT
HETATM    1  C   UNL     1      41.836 -17.288   3.460  1.00  0.00     0.098 A 
HETATM    2  C   UNL     1      42.481 -17.853   4.573  1.00  0.00     0.051 A 
HETATM    3  C   UNL     1      42.371 -17.274   5.847  1.00  0.00    -0.019 A 
HETATM    4  C   UNL     1      41.604 -16.116   5.996  1.00  0.00     0.032 A 
HETATM    5  C   UNL     1      40.954 -15.561   4.889  1.00  0.00     0.064 A 
HETATM    6  C   UNL     1      40.164 -14.326   5.033  1.00  0.00     0.259 A 
HETATM    7  O   UNL     1      40.049 -13.750   6.108  1.00  0.00    -0.267 OA
HETATM    8  N   UNL     1      39.582 -13.863   3.887  1.00  0.00    -0.309 N 
HETATM    9  C   UNL     1      39.702 -14.486   2.672  1.00  0.00     0.145 A 
HETATM   10  N   UNL     1      40.391 -15.567   2.498  1.00  0.00    -0.229 NA
HETATM   11  C   UNL     1      41.047 -16.133   3.615  1.00  0.00     0.108 A 
HETATM   12  H   UNL     1      39.071 -12.992   3.941  1.00  0.00     0.170 HD
ENDROOT
BRANCH   9  13
HETATM   13  C   UNL     1      38.979 -13.811   1.496  1.00  0.00     0.320 C 
BRANCH  13  14
HETATM   14  N   UNL     1      37.845 -14.670   1.096  1.00  0.00     0.094 N 
HETATM   15  H   UNL     1      37.970 -15.576   1.552  1.00  0.00     0.314 HD
HETATM   16  H   UNL     1      37.938 -14.861   0.097  1.00  0.00     0.314 HD
ENDBRANCH  13  14
BRANCH  13  17
HETATM   17  C   UNL     1      39.932 -13.524   0.347  1.00  0.00    -0.018 A 
HETATM   18  C   UNL     1      40.936 -12.554   0.518  1.00  0.00     0.011 A 
HETATM   19  C   UNL     1      41.843 -12.274  -0.507  1.00  0.00     0.024 A 
HETATM   20  C   UNL     1      41.761 -12.963  -1.713  1.00  0.00     0.034 A 
HETATM   21 CL   UNL     1      42.876 -12.617  -2.978  1.00  0.00    -0.084 Cl
HETATM   22  C   UNL     1      40.783 -13.936  -1.901  1.00  0.00     0.024 A 
HETATM   23  C   UNL     1      39.876 -14.217  -0.876  1.00  0.00     0.011 A 
ENDBRANCH  13  17
ENDBRANCH   9  13
BRANCH   1  24
HETATM   24  O   UNL     1      41.901 -17.811   2.190  1.00  0.00    -0.354 OA
HETATM   25  C   UNL     1      43.174 -17.815   1.557  1.00  0.00     0.210 C 
ENDBRANCH   1  24
BRANCH   3  26
HETATM   26  C   UNL     1      43.057 -17.870   6.981  1.00  0.00     0.010 A 
HETATM   27  C   UNL     1      43.663 -19.139   7.137  1.00  0.00     0.152 A 
HETATM   28  N   UNL     1      44.187 -19.320   8.352  1.00  0.00    -0.187 NA
HETATM   29  N   UNL     1      43.920 -18.165   8.983  1.00  0.00    -0.289 N 
HETATM   30  H   UNL     1      44.226 -18.060   9.944  1.00  0.00     0.188 HD
HETATM   31  C   UNL     1      43.244 -17.267   8.208  1.00  0.00     0.123 A 
ENDBRANCH   3  26
TORSDOF 5
ENDMDL
