MODEL 1
REMARK VINA RESULT:      -9.5      0.000      0.000
REMARK  6 active torsions:
REMARK  status: ('A' for Active; 'I' for Inactive)
REMARK    1  A    between atoms: C_2  and  C_3 
REMARK    2  A    between atoms: C_3  and  C_4 
REMARK    3  A    between atoms: C_4  and  C_5 
REMARK    4  A    between atoms: C_8  and  N_9 
REMARK       I    between atoms: N_9  and  C_10 
REMARK    5  A    between atoms: C_10  and  C_11 
REMARK    6  A    between atoms: N_16  and  C_17 
ROOT
HETATM    1  C   UNL     1      42.939 -14.783   5.165  1.00  0.00     0.098 A 
HETATM    2  C   UNL     1      42.538 -14.751   3.716  1.00  0.00     0.205 A 
HETATM    3  O   UNL     1      42.116 -13.732   3.178  1.00  0.00    -0.286 OA
HETATM    4  C   UNL     1      42.741 -16.003   3.013  1.00  0.00     0.087 A 
HETATM    5  C   UNL     1      43.248 -17.116   3.645  1.00  0.00     0.145 A 
HETATM    6  N   UNL     1      43.348 -18.125   2.699  1.00  0.00    -0.216 N 
HETATM    7  N   UNL     1      42.990 -17.649   1.467  1.00  0.00    -0.170 NA
HETATM    8  C   UNL     1      42.577 -16.390   1.672  1.00  0.00     0.069 A 
HETATM    9  C   UNL     1      42.061 -15.576   0.544  1.00  0.00     0.073 C 
HETATM   10  N   UNL     1      43.617 -17.103   4.949  1.00  0.00    -0.349 N 
HETATM   11  C   UNL     1      43.453 -15.930   5.664  1.00  0.00     0.111 A 
HETATM   12  H   UNL     1      44.216 -17.807   5.376  1.00  0.00     0.167 HD
ENDROOT
BRANCH   1  13
HETATM   13  C   UNL     1      42.867 -13.604   6.079  1.00  0.00     0.261 C 
HETATM   14  N   UNL     1      43.890 -13.524   7.001  1.00  0.00    -0.323 N 
HETATM   15  H   UNL     1      44.617 -14.239   6.951  1.00  0.00     0.169 HD
HETATM   16  O   UNL     1      41.920 -12.827   5.988  1.00  0.00    -0.267 OA
BRANCH  14  17
HETATM   17  C   UNL     1      44.005 -12.613   8.073  1.00  0.00     0.035 A 
HETATM   18  C   UNL     1      43.088 -11.597   8.335  1.00  0.00     0.030 A 
HETATM   19  C   UNL     1      43.239 -10.774   9.455  1.00  0.00     0.009 A 
HETATM   20  C   UNL     1      44.302 -10.962  10.345  1.00  0.00    -0.058 A 
HETATM   21  C   UNL     1      45.241 -11.961  10.066  1.00  0.00     0.009 A 
HETATM   22  C   UNL     1      45.097 -12.772   8.934  1.00  0.00     0.030 A 
BRANCH  20  23
HETATM   23  C   UNL     1      44.414 -10.116  11.590  1.00  0.00     0.038 C 
BRANCH  23  24
HETATM   24  C   UNL     1      43.288 -10.420  12.584  1.00  0.00     0.004 C 
BRANCH  24  25
HETATM   25  C   UNL     1      43.259  -9.411  13.731  1.00  0.00    -0.004 C 
HETATM   26  C   UNL     1      42.372  -9.893  14.869  1.00  0.00     0.005 C 
ENDBRANCH  24  25
ENDBRANCH  23  24
ENDBRANCH  20  23
ENDBRANCH  14  17
ENDBRANCH   1  13
BRANCH   6  27
HETATM   27  C   UNL     1      43.753 -19.483   2.846  1.00  0.00     0.060 A 
HETATM   28  C   UNL     1      44.453 -19.931   3.974  1.00  0.00     0.031 A 
HETATM   29  C   UNL     1      44.859 -21.267   4.065  1.00  0.00     0.002 A 
HETATM   30  C   UNL     1      44.557 -22.164   3.042  1.00  0.00     0.000 A 
HETATM   31  C   UNL     1      43.831 -21.736   1.934  1.00  0.00     0.002 A 
HETATM   32  C   UNL     1      43.423 -20.404   1.837  1.00  0.00     0.031 A 
ENDBRANCH   6  27
TORSDOF 6
ENDMDL
MODEL 2
REMARK VINA RESULT:      -9.4      2.221     10.769
REMARK  6 active torsions:
REMARK  status: ('A' for Active; 'I' for Inactive)
REMARK    1  A    between atoms: C_2  and  C_3 
REMARK    2  A    between atoms: C_3  and  C_4 
REMARK    3  A    between atoms: C_4  and  C_5 
REMARK    4  A    between atoms: C_8  and  N_9 
REMARK       I    between atoms: N_9  and  C_10 
REMARK    5  A    between atoms: C_10  and  C_11 
REMARK    6  A    between atoms: N_16  and  C_17 
ROOT
HETATM    1  C   UNL     1      43.836 -12.701   7.822  1.00  0.00     0.098 A 
HETATM    2  C   UNL     1      42.702 -11.820   7.379  1.00  0.00     0.205 A 
HETATM    3  O   UNL     1      42.160 -11.953   6.285  1.00  0.00    -0.286 OA
HETATM    4  C   UNL     1      42.279 -10.848   8.369  1.00  0.00     0.087 A 
HETATM    5  C   UNL     1      42.891 -10.752   9.598  1.00  0.00     0.145 A 
HETATM    6  N   UNL     1      42.238  -9.759  10.313  1.00  0.00    -0.216 N 
HETATM    7  N   UNL     1      41.178  -9.282   9.591  1.00  0.00    -0.170 NA
HETATM    8  C   UNL     1      41.241  -9.902   8.405  1.00  0.00     0.069 A 
HETATM    9  C   UNL     1      40.259  -9.584   7.339  1.00  0.00     0.073 C 
HETATM   10  N   UNL     1      43.899 -11.577   9.971  1.00  0.00    -0.349 N 
HETATM   11  C   UNL     1      44.335 -12.529   9.067  1.00  0.00     0.111 A 
HETATM   12  H   UNL     1      44.199 -11.704  10.936  1.00  0.00     0.167 HD
ENDROOT
BRANCH   1  13
HETATM   13  C   UNL     1      44.410 -13.805   6.995  1.00  0.00     0.261 C 
HETATM   14  N   UNL     1      43.510 -14.787   6.637  1.00  0.00    -0.323 N 
HETATM   15  H   UNL     1      42.540 -14.654   6.924  1.00  0.00     0.169 HD
HETATM   16  O   UNL     1      45.609 -13.798   6.728  1.00  0.00    -0.267 OA
BRANCH  14  17
HETATM   17  C   UNL     1      43.791 -16.010   5.990  1.00  0.00     0.035 A 
HETATM   18  C   UNL     1      44.491 -17.061   6.580  1.00  0.00     0.030 A 
HETATM   19  C   UNL     1      44.675 -18.266   5.895  1.00  0.00     0.009 A 
HETATM   20  C   UNL     1      44.148 -18.449   4.611  1.00  0.00    -0.058 A 
HETATM   21  C   UNL     1      43.473 -17.383   4.006  1.00  0.00     0.009 A 
HETATM   22  C   UNL     1      43.305 -16.172   4.688  1.00  0.00     0.030 A 
BRANCH  20  23
HETATM   23  C   UNL     1      44.289 -19.778   3.910  1.00  0.00     0.038 C 
BRANCH  23  24
HETATM   24  C   UNL     1      44.037 -19.652   2.403  1.00  0.00     0.004 C 
BRANCH  24  25
HETATM   25  C   UNL     1      43.574 -20.975   1.796  1.00  0.00    -0.004 C 
HETATM   26  C   UNL     1      44.472 -22.125   2.228  1.00  0.00     0.005 C 
ENDBRANCH  24  25
ENDBRANCH  23  24
ENDBRANCH  20  23
ENDBRANCH  14  17
ENDBRANCH   1  13
BRANCH   6  27
HETATM   27  C   UNL     1      42.515  -9.227  11.606  1.00  0.00     0.060 A 
HETATM   28  C   UNL     1      43.169  -9.977  12.592  1.00  0.00     0.031 A 
HETATM   29  C   UNL     1      43.394  -9.427  13.859  1.00  0.00     0.002 A 
HETATM   30  C   UNL     1      42.984  -8.127  14.144  1.00  0.00     0.000 A 
HETATM   31  C   UNL     1      42.364  -7.362  13.158  1.00  0.00     0.002 A 
HETATM   32  C   UNL     1      42.137  -7.905  11.892  1.00  0.00     0.031 A 
ENDBRANCH   6  27
TORSDOF 6
ENDMDL
MODEL 3
REMARK VINA RESULT:      -9.3      1.976     10.107
REMARK  6 active torsions:
REMARK  status: ('A' for Active; 'I' for Inactive)
REMARK    1  A    between atoms: C_2  and  C_3 
REMARK    2  A    between atoms: C_3  and  C_4 
REMARK    3  A    between atoms: C_4  and  C_5 
REMARK    4  A    between atoms: C_8  and  N_9 
REMARK       I    between atoms: N_9  and  C_10 
REMARK    5  A    between atoms: C_10  and  C_11 
REMARK    6  A    between atoms: N_16  and  C_17 
ROOT
HETATM    1  C   UNL     1      42.777 -13.381   5.289  1.00  0.00     0.098 A 
HETATM    2  C   UNL     1      41.781 -12.271   5.096  1.00  0.00     0.205 A 
HETATM    3  O   UNL     1      41.109 -12.168   4.073  1.00  0.00    -0.286 OA
HETATM    4  C   UNL     1      41.653 -11.380   6.233  1.00  0.00     0.087 A 
HETATM    5  C   UNL     1      42.401 -11.550   7.375  1.00  0.00     0.145 A 
HETATM    6  N   UNL     1      42.023 -10.564   8.273  1.00  0.00    -0.216 N 
HETATM    7  N   UNL     1      40.995  -9.824   7.751  1.00  0.00    -0.170 NA
HETATM    8  C   UNL     1      40.815 -10.286   6.506  1.00  0.00     0.069 A 
HETATM    9  C   UNL     1      39.798  -9.670   5.618  1.00  0.00     0.073 C 
HETATM   10  N   UNL     1      43.276 -12.575   7.522  1.00  0.00    -0.349 N 
HETATM   11  C   UNL     1      43.430 -13.460   6.470  1.00  0.00     0.111 A 
HETATM   12  H   UNL     1      43.651 -12.876   8.420  1.00  0.00     0.167 HD
ENDROOT
BRANCH   1  13
HETATM   13  C   UNL     1      43.047 -14.448   4.279  1.00  0.00     0.261 C 
HETATM   14  N   UNL     1      42.485 -15.675   4.569  1.00  0.00    -0.323 N 
HETATM   15  H   UNL     1      41.909 -15.733   5.409  1.00  0.00     0.169 HD
HETATM   16  O   UNL     1      43.757 -14.196   3.309  1.00  0.00    -0.267 OA
BRANCH  14  17
HETATM   17  C   UNL     1      42.687 -16.892   3.884  1.00  0.00     0.035 A 
HETATM   18  C   UNL     1      42.082 -17.212   2.669  1.00  0.00     0.030 A 
HETATM   19  C   UNL     1      42.384 -18.414   2.020  1.00  0.00     0.009 A 
HETATM   20  C   UNL     1      43.308 -19.311   2.566  1.00  0.00    -0.058 A 
HETATM   21  C   UNL     1      43.891 -19.005   3.800  1.00  0.00     0.009 A 
HETATM   22  C   UNL     1      43.575 -17.810   4.456  1.00  0.00     0.030 A 
BRANCH  20  23
HETATM   23  C   UNL     1      43.680 -20.571   1.822  1.00  0.00     0.038 C 
BRANCH  23  24
HETATM   24  C   UNL     1      44.875 -21.280   2.471  1.00  0.00     0.004 C 
BRANCH  24  25
HETATM   25  C   UNL     1      44.444 -22.539   3.221  1.00  0.00    -0.004 C 
HETATM   26  C   UNL     1      44.846 -22.474   4.686  1.00  0.00     0.005 C 
ENDBRANCH  24  25
ENDBRANCH  23  24
ENDBRANCH  20  23
ENDBRANCH  14  17
ENDBRANCH   1  13
BRANCH   6  27
HETATM   27  C   UNL     1      42.530 -10.260   9.570  1.00  0.00     0.060 A 
HETATM   28  C   UNL     1      43.764 -10.749  10.018  1.00  0.00     0.031 A 
HETATM   29  C   UNL     1      44.211 -10.452  11.309  1.00  0.00     0.002 A 
HETATM   30  C   UNL     1      43.441  -9.656  12.154  1.00  0.00     0.000 A 
HETATM   31  C   UNL     1      42.229  -9.136  11.705  1.00  0.00     0.002 A 
HETATM   32  C   UNL     1      41.778  -9.429  10.416  1.00  0.00     0.031 A 
ENDBRANCH   6  27
TORSDOF 6
ENDMDL
MODEL 4
REMARK VINA RESULT:      -9.1      1.417      2.215
REMARK  6 active torsions:
REMARK  status: ('A' for Active; 'I' for Inactive)
REMARK    1  A    between atoms: C_2  and  C_3 
REMARK    2  A    between atoms: C_3  and  C_4 
REMARK    3  A    between atoms: C_4  and  C_5 
REMARK    4  A    between atoms: C_8  and  N_9 
REMARK       I    between atoms: N_9  and  C_10 
REMARK    5  A    between atoms: C_10  and  C_11 
REMARK    6  A    between atoms: N_16  and  C_17 
ROOT
HETATM    1  C   UNL     1      43.992 -13.900   6.941  1.00  0.00     0.098 A 
HETATM    2  C   UNL     1      43.064 -13.617   5.792  1.00  0.00     0.205 A 
HETATM    3  O   UNL     1      42.506 -12.533   5.656  1.00  0.00    -0.286 OA
HETATM    4  C   UNL     1      42.935 -14.710   4.847  1.00  0.00     0.087 A 
HETATM    5  C   UNL     1      43.605 -15.900   5.018  1.00  0.00     0.145 A 
HETATM    6  N   UNL     1      43.294 -16.712   3.938  1.00  0.00    -0.216 N 
HETATM    7  N   UNL     1      42.507 -16.031   3.049  1.00  0.00    -0.170 NA
HETATM    8  C   UNL     1      42.252 -14.849   3.627  1.00  0.00     0.069 A 
HETATM    9  C   UNL     1      41.371 -13.861   2.956  1.00  0.00     0.073 C 
HETATM   10  N   UNL     1      44.449 -16.113   6.056  1.00  0.00    -0.349 N 
HETATM   11  C   UNL     1      44.616 -15.100   6.982  1.00  0.00     0.111 A 
HETATM   12  H   UNL     1      45.139 -16.861   6.081  1.00  0.00     0.167 HD
ENDROOT
BRANCH   1  13
HETATM   13  C   UNL     1      44.322 -12.913   8.013  1.00  0.00     0.261 C 
HETATM   14  N   UNL     1      43.232 -12.425   8.704  1.00  0.00    -0.323 N 
HETATM   15  H   UNL     1      42.318 -12.806   8.459  1.00  0.00     0.169 HD
HETATM   16  O   UNL     1      45.490 -12.576   8.183  1.00  0.00    -0.267 OA
BRANCH  14  17
HETATM   17  C   UNL     1      43.221 -11.386   9.660  1.00  0.00     0.035 A 
HETATM   18  C   UNL     1      42.425 -10.246   9.563  1.00  0.00     0.030 A 
HETATM   19  C   UNL     1      42.424  -9.291  10.584  1.00  0.00     0.009 A 
HETATM   20  C   UNL     1      43.210  -9.464  11.729  1.00  0.00    -0.058 A 
HETATM   21  C   UNL     1      44.034 -10.591  11.812  1.00  0.00     0.009 A 
HETATM   22  C   UNL     1      44.045 -11.538  10.781  1.00  0.00     0.030 A 
BRANCH  20  23
HETATM   23  C   UNL     1      43.146  -8.463  12.857  1.00  0.00     0.038 C 
BRANCH  23  24
HETATM   24  C   UNL     1      43.275  -9.143  14.225  1.00  0.00     0.004 C 
BRANCH  24  25
HETATM   25  C   UNL     1      41.963  -9.796  14.656  1.00  0.00    -0.004 C 
HETATM   26  C   UNL     1      41.629  -9.460  16.102  1.00  0.00     0.005 C 
ENDBRANCH  24  25
ENDBRANCH  23  24
ENDBRANCH  20  23
ENDBRANCH  14  17
ENDBRANCH   1  13
BRANCH   6  27
HETATM   27  C   UNL     1      43.675 -18.058   3.663  1.00  0.00     0.060 A 
HETATM   28  C   UNL     1      44.253 -18.880   4.639  1.00  0.00     0.031 A 
HETATM   29  C   UNL     1      44.639 -20.186   4.320  1.00  0.00     0.002 A 
HETATM   30  C   UNL     1      44.438 -20.684   3.035  1.00  0.00     0.000 A 
HETATM   31  C   UNL     1      43.831 -19.886   2.068  1.00  0.00     0.002 A 
HETATM   32  C   UNL     1      43.443 -18.582   2.381  1.00  0.00     0.031 A 
ENDBRANCH   6  27
TORSDOF 6
ENDMDL
MODEL 5
REMARK VINA RESULT:      -9.1      5.136     10.436
REMARK  6 active torsions:
REMARK  status: ('A' for Active; 'I' for Inactive)
REMARK    1  A    between atoms: C_2  and  C_3 
REMARK    2  A    between atoms: C_3  and  C_4 
REMARK    3  A    between atoms: C_4  and  C_5 
REMARK    4  A    between atoms: C_8  and  N_9 
REMARK       I    between atoms: N_9  and  C_10 
REMARK    5  A    between atoms: C_10  and  C_11 
REMARK    6  A    between atoms: N_16  and  C_17 
ROOT
HETATM    1  C   UNL     1      40.729 -15.135   0.156  1.00  0.00     0.098 A 
HETATM    2  C   UNL     1      40.512 -14.858   1.618  1.00  0.00     0.205 A 
HETATM    3  O   UNL     1      39.825 -13.919   2.009  1.00  0.00    -0.286 OA
HETATM    4  C   UNL     1      41.137 -15.819   2.506  1.00  0.00     0.087 A 
HETATM    5  C   UNL     1      41.873 -16.878   2.026  1.00  0.00     0.145 A 
HETATM    6  N   UNL     1      42.302 -17.617   3.118  1.00  0.00    -0.216 N 
HETATM    7  N   UNL     1      41.786 -17.092   4.272  1.00  0.00    -0.170 NA
HETATM    8  C   UNL     1      41.132 -15.982   3.901  1.00  0.00     0.069 A 
HETATM    9  C   UNL     1      40.481 -15.120   4.919  1.00  0.00     0.073 C 
HETATM   10  N   UNL     1      42.032 -17.108   0.700  1.00  0.00    -0.349 N 
HETATM   11  C   UNL     1      41.448 -16.226  -0.192  1.00  0.00     0.111 A 
HETATM   12  H   UNL     1      42.344 -17.996   0.312  1.00  0.00     0.167 HD
ENDROOT
BRANCH   1  13
HETATM   13  C   UNL     1      40.145 -14.313  -0.947  1.00  0.00     0.261 C 
HETATM   14  N   UNL     1      38.771 -14.385  -1.056  1.00  0.00    -0.323 N 
HETATM   15  H   UNL     1      38.280 -14.946  -0.360  1.00  0.00     0.169 HD
HETATM   16  O   UNL     1      40.892 -13.681  -1.689  1.00  0.00    -0.267 OA
BRANCH  14  17
HETATM   17  C   UNL     1      37.965 -13.840  -2.079  1.00  0.00     0.035 A 
HETATM   18  C   UNL     1      37.572 -12.504  -2.133  1.00  0.00     0.030 A 
HETATM   19  C   UNL     1      36.825 -12.026  -3.214  1.00  0.00     0.009 A 
HETATM   20  C   UNL     1      36.470 -12.873  -4.270  1.00  0.00    -0.058 A 
HETATM   21  C   UNL     1      36.836 -14.221  -4.200  1.00  0.00     0.009 A 
HETATM   22  C   UNL     1      37.570 -14.700  -3.109  1.00  0.00     0.030 A 
BRANCH  20  23
HETATM   23  C   UNL     1      35.726 -12.331  -5.466  1.00  0.00     0.038 C 
BRANCH  23  24
HETATM   24  C   UNL     1      34.466 -11.562  -5.048  1.00  0.00     0.004 C 
BRANCH  24  25
HETATM   25  C   UNL     1      33.402 -12.494  -4.472  1.00  0.00    -0.004 C 
HETATM   26  C   UNL     1      32.679 -11.848  -3.299  1.00  0.00     0.005 C 
ENDBRANCH  24  25
ENDBRANCH  23  24
ENDBRANCH  20  23
ENDBRANCH  14  17
ENDBRANCH   1  13
BRANCH   6  27
HETATM   27  C   UNL     1      43.141 -18.769   3.174  1.00  0.00     0.060 A 
HETATM   28  C   UNL     1      43.182 -19.708   2.136  1.00  0.00     0.031 A 
HETATM   29  C   UNL     1      43.997 -20.840   2.245  1.00  0.00     0.002 A 
HETATM   30  C   UNL     1      44.784 -21.034   3.378  1.00  0.00     0.000 A 
HETATM   31  C   UNL     1      44.776 -20.087   4.399  1.00  0.00     0.002 A 
HETATM   32  C   UNL     1      43.965 -18.955   4.296  1.00  0.00     0.031 A 
ENDBRANCH   6  27
TORSDOF 6
ENDMDL
MODEL 6
REMARK VINA RESULT:      -9.0      2.354     10.524
REMARK  6 active torsions:
REMARK  status: ('A' for Active; 'I' for Inactive)
REMARK    1  A    between atoms: C_2  and  C_3 
REMARK    2  A    between atoms: C_3  and  C_4 
REMARK    3  A    between atoms: C_4  and  C_5 
REMARK    4  A    between atoms: C_8  and  N_9 
REMARK       I    between atoms: N_9  and  C_10 
REMARK    5  A    between atoms: C_10  and  C_11 
REMARK    6  A    between atoms: N_16  and  C_17 
ROOT
HETATM    1  C   UNL     1      43.090 -13.352   6.073  1.00  0.00     0.098 A 
HETATM    2  C   UNL     1      44.080 -13.144   7.185  1.00  0.00     0.205 A 
HETATM    3  O   UNL     1      45.120 -13.791   7.262  1.00  0.00    -0.286 OA
HETATM    4  C   UNL     1      43.722 -12.087   8.111  1.00  0.00     0.087 A 
HETATM    5  C   UNL     1      42.562 -11.361   7.970  1.00  0.00     0.145 A 
HETATM    6  N   UNL     1      42.533 -10.419   8.988  1.00  0.00    -0.216 N 
HETATM    7  N   UNL     1      43.688 -10.483   9.720  1.00  0.00    -0.170 NA
HETATM    8  C   UNL     1      44.373 -11.521   9.221  1.00  0.00     0.069 A 
HETATM    9  C   UNL     1      45.672 -11.919   9.818  1.00  0.00     0.073 C 
HETATM   10  N   UNL     1      41.701 -11.563   6.944  1.00  0.00    -0.349 N 
HETATM   11  C   UNL     1      42.000 -12.553   6.025  1.00  0.00     0.111 A 
HETATM   12  H   UNL     1      40.982 -10.897   6.667  1.00  0.00     0.167 HD
ENDROOT
BRANCH   1  13
HETATM   13  C   UNL     1      43.265 -14.348   4.972  1.00  0.00     0.261 C 
HETATM   14  N   UNL     1      42.670 -15.572   5.200  1.00  0.00    -0.323 N 
HETATM   15  H   UNL     1      42.135 -15.674   6.063  1.00  0.00     0.169 HD
HETATM   16  O   UNL     1      43.934 -14.047   3.988  1.00  0.00    -0.267 OA
BRANCH  14  17
HETATM   17  C   UNL     1      42.788 -16.739   4.415  1.00  0.00     0.035 A 
HETATM   18  C   UNL     1      42.102 -16.947   3.220  1.00  0.00     0.030 A 
HETATM   19  C   UNL     1      42.321 -18.104   2.466  1.00  0.00     0.009 A 
HETATM   20  C   UNL     1      43.243 -19.069   2.887  1.00  0.00    -0.058 A 
HETATM   21  C   UNL     1      43.908 -18.877   4.102  1.00  0.00     0.009 A 
HETATM   22  C   UNL     1      43.674 -17.725   4.862  1.00  0.00     0.030 A 
BRANCH  20  23
HETATM   23  C   UNL     1      43.526 -20.280   2.030  1.00  0.00     0.038 C 
BRANCH  23  24
HETATM   24  C   UNL     1      44.776 -21.030   2.506  1.00  0.00     0.004 C 
BRANCH  24  25
HETATM   25  C   UNL     1      44.436 -22.434   3.003  1.00  0.00    -0.004 C 
HETATM   26  C   UNL     1      44.716 -22.575   4.491  1.00  0.00     0.005 C 
ENDBRANCH  24  25
ENDBRANCH  23  24
ENDBRANCH  20  23
ENDBRANCH  14  17
ENDBRANCH   1  13
BRANCH   6  27
HETATM   27  C   UNL     1      41.528  -9.466   9.327  1.00  0.00     0.060 A 
HETATM   28  C   UNL     1      40.913  -9.452  10.585  1.00  0.00     0.031 A 
HETATM   29  C   UNL     1      39.910  -8.518  10.868  1.00  0.00     0.002 A 
HETATM   30  C   UNL     1      39.526  -7.588   9.905  1.00  0.00     0.000 A 
HETATM   31  C   UNL     1      40.157  -7.572   8.663  1.00  0.00     0.002 A 
HETATM   32  C   UNL     1      41.159  -8.501   8.376  1.00  0.00     0.031 A 
ENDBRANCH   6  27
TORSDOF 6
ENDMDL
MODEL 7
REMARK VINA RESULT:      -8.9      2.152      3.071
REMARK  6 active torsions:
REMARK  status: ('A' for Active; 'I' for Inactive)
REMARK    1  A    between atoms: C_2  and  C_3 
REMARK    2  A    between atoms: C_3  and  C_4 
REMARK    3  A    between atoms: C_4  and  C_5 
REMARK    4  A    between atoms: C_8  and  N_9 
REMARK       I    between atoms: N_9  and  C_10 
REMARK    5  A    between atoms: C_10  and  C_11 
REMARK    6  A    between atoms: N_16  and  C_17 
ROOT
HETATM    1  C   UNL     1      41.711 -12.233   5.687  1.00  0.00     0.098 A 
HETATM    2  C   UNL     1      40.632 -12.327   4.645  1.00  0.00     0.205 A 
HETATM    3  O   UNL     1      39.762 -11.469   4.527  1.00  0.00    -0.286 OA
HETATM    4  C   UNL     1      40.744 -13.479   3.772  1.00  0.00     0.087 A 
HETATM    5  C   UNL     1      41.755 -14.402   3.916  1.00  0.00     0.145 A 
HETATM    6  N   UNL     1      41.598 -15.352   2.918  1.00  0.00    -0.216 N 
HETATM    7  N   UNL     1      40.557 -15.005   2.099  1.00  0.00    -0.170 NA
HETATM    8  C   UNL     1      40.017 -13.909   2.649  1.00  0.00     0.069 A 
HETATM    9  C   UNL     1      38.817 -13.280   2.043  1.00  0.00     0.073 C 
HETATM   10  N   UNL     1      42.723 -14.275   4.855  1.00  0.00    -0.349 N 
HETATM   11  C   UNL     1      42.669 -13.188   5.708  1.00  0.00     0.111 A 
HETATM   12  H   UNL     1      43.606 -14.782   4.832  1.00  0.00     0.167 HD
ENDROOT
BRANCH   1  13
HETATM   13  C   UNL     1      41.833 -11.111   6.667  1.00  0.00     0.261 C 
HETATM   14  N   UNL     1      42.237 -11.490   7.931  1.00  0.00    -0.323 N 
HETATM   15  H   UNL     1      42.455 -12.476   8.073  1.00  0.00     0.169 HD
HETATM   16  O   UNL     1      41.541  -9.971   6.318  1.00  0.00    -0.267 OA
BRANCH  14  17
HETATM   17  C   UNL     1      42.298 -10.681   9.086  1.00  0.00     0.035 A 
HETATM   18  C   UNL     1      41.251  -9.875   9.531  1.00  0.00     0.030 A 
HETATM   19  C   UNL     1      41.367  -9.151  10.721  1.00  0.00     0.009 A 
HETATM   20  C   UNL     1      42.528  -9.230  11.498  1.00  0.00    -0.058 A 
HETATM   21  C   UNL     1      43.591 -10.012  11.037  1.00  0.00     0.009 A 
HETATM   22  C   UNL     1      43.479 -10.723   9.836  1.00  0.00     0.030 A 
BRANCH  20  23
HETATM   23  C   UNL     1      42.614  -8.501  12.818  1.00  0.00     0.038 C 
BRANCH  23  24
HETATM   24  C   UNL     1      43.354  -9.330  13.874  1.00  0.00     0.004 C 
BRANCH  24  25
HETATM   25  C   UNL     1      42.384 -10.099  14.769  1.00  0.00    -0.004 C 
HETATM   26  C   UNL     1      41.477  -9.153  15.541  1.00  0.00     0.005 C 
ENDBRANCH  24  25
ENDBRANCH  23  24
ENDBRANCH  20  23
ENDBRANCH  14  17
ENDBRANCH   1  13
BRANCH   6  27
HETATM   27  C   UNL     1      42.337 -16.544   2.661  1.00  0.00     0.060 A 
HETATM   28  C   UNL     1      42.251 -17.665   3.496  1.00  0.00     0.031 A 
HETATM   29  C   UNL     1      43.017 -18.804   3.225  1.00  0.00     0.002 A 
HETATM   30  C   UNL     1      43.858 -18.837   2.116  1.00  0.00     0.000 A 
HETATM   31  C   UNL     1      43.923 -17.740   1.260  1.00  0.00     0.002 A 
HETATM   32  C   UNL     1      43.161 -16.601   1.525  1.00  0.00     0.031 A 
ENDBRANCH   6  27
TORSDOF 6
ENDMDL
MODEL 8
REMARK VINA RESULT:      -8.9      6.580     10.555
REMARK  6 active torsions:
REMARK  status: ('A' for Active; 'I' for Inactive)
REMARK    1  A    between atoms: C_2  and  C_3 
REMARK    2  A    between atoms: C_3  and  C_4 
REMARK    3  A    between atoms: C_4  and  C_5 
REMARK    4  A    between atoms: C_8  and  N_9 
REMARK       I    between atoms: N_9  and  C_10 
REMARK    5  A    between atoms: C_10  and  C_11 
REMARK    6  A    between atoms: N_16  and  C_17 
ROOT
HETATM    1  C   UNL     1      40.780 -14.070  -0.432  1.00  0.00     0.098 A 
HETATM    2  C   UNL     1      41.279 -13.078  -1.445  1.00  0.00     0.205 A 
HETATM    3  O   UNL     1      42.442 -12.685  -1.455  1.00  0.00    -0.286 OA
HETATM    4  C   UNL     1      40.288 -12.675  -2.424  1.00  0.00     0.087 A 
HETATM    5  C   UNL     1      39.003 -13.164  -2.398  1.00  0.00     0.145 A 
HETATM    6  N   UNL     1      38.324 -12.613  -3.475  1.00  0.00    -0.216 N 
HETATM    7  N   UNL     1      39.177 -11.849  -4.225  1.00  0.00    -0.170 NA
HETATM    8  C   UNL     1      40.340 -11.848  -3.559  1.00  0.00     0.069 A 
HETATM    9  C   UNL     1      41.494 -11.065  -4.067  1.00  0.00     0.073 C 
HETATM   10  N   UNL     1      38.592 -14.074  -1.481  1.00  0.00    -0.349 N 
HETATM   11  C   UNL     1      39.500 -14.499  -0.529  1.00  0.00     0.111 A 
HETATM   12  H   UNL     1      37.749 -14.637  -1.579  1.00  0.00     0.167 HD
ENDROOT
BRANCH   1  13
HETATM   13  C   UNL     1      41.628 -14.667   0.644  1.00  0.00     0.261 C 
HETATM   14  N   UNL     1      41.776 -16.037   0.570  1.00  0.00    -0.323 N 
HETATM   15  H   UNL     1      41.339 -16.508  -0.223  1.00  0.00     0.169 HD
HETATM   16  O   UNL     1      42.091 -13.941   1.519  1.00  0.00    -0.267 OA
BRANCH  14  17
HETATM   17  C   UNL     1      42.391 -16.882   1.517  1.00  0.00     0.035 A 
HETATM   18  C   UNL     1      41.797 -17.272   2.717  1.00  0.00     0.030 A 
HETATM   19  C   UNL     1      42.447 -18.164   3.575  1.00  0.00     0.009 A 
HETATM   20  C   UNL     1      43.698 -18.696   3.243  1.00  0.00    -0.058 A 
HETATM   21  C   UNL     1      44.309 -18.280   2.056  1.00  0.00     0.009 A 
HETATM   22  C   UNL     1      43.664 -17.374   1.207  1.00  0.00     0.030 A 
BRANCH  20  23
HETATM   23  C   UNL     1      44.358 -19.714   4.142  1.00  0.00     0.038 C 
BRANCH  23  24
HETATM   24  C   UNL     1      45.139 -20.759   3.336  1.00  0.00     0.004 C 
BRANCH  24  25
HETATM   25  C   UNL     1      44.254 -21.938   2.935  1.00  0.00    -0.004 C 
HETATM   26  C   UNL     1      44.070 -22.001   1.426  1.00  0.00     0.005 C 
ENDBRANCH  24  25
ENDBRANCH  23  24
ENDBRANCH  20  23
ENDBRANCH  14  17
ENDBRANCH   1  13
BRANCH   6  27
HETATM   27  C   UNL     1      36.959 -12.745  -3.864  1.00  0.00     0.060 A 
HETATM   28  C   UNL     1      36.469 -13.909  -4.471  1.00  0.00     0.031 A 
HETATM   29  C   UNL     1      35.129 -13.986  -4.865  1.00  0.00     0.002 A 
HETATM   30  C   UNL     1      34.269 -12.912  -4.643  1.00  0.00     0.000 A 
HETATM   31  C   UNL     1      34.739 -11.765  -4.009  1.00  0.00     0.002 A 
HETATM   32  C   UNL     1      36.076 -11.682  -3.613  1.00  0.00     0.031 A 
ENDBRANCH   6  27
TORSDOF 6
ENDMDL
MODEL 9
REMARK VINA RESULT:      -8.8      4.559      9.835
REMARK  6 active torsions:
REMARK  status: ('A' for Active; 'I' for Inactive)
REMARK    1  A    between atoms: C_2  and  C_3 
REMARK    2  A    between atoms: C_3  and  C_4 
REMARK    3  A    between atoms: C_4  and  C_5 
REMARK    4  A    between atoms: C_8  and  N_9 
REMARK       I    between atoms: N_9  and  C_10 
REMARK    5  A    between atoms: C_10  and  C_11 
REMARK    6  A    between atoms: N_16  and  C_17 
ROOT
HETATM    1  C   UNL     1      41.651 -15.248   0.704  1.00  0.00     0.098 A 
HETATM    2  C   UNL     1      42.149 -14.906   2.080  1.00  0.00     0.205 A 
HETATM    3  O   UNL     1      42.019 -13.784   2.561  1.00  0.00    -0.286 OA
HETATM    4  C   UNL     1      42.739 -16.021   2.795  1.00  0.00     0.087 A 
HETATM    5  C   UNL     1      42.835 -17.273   2.234  1.00  0.00     0.145 A 
HETATM    6  N   UNL     1      43.412 -18.111   3.177  1.00  0.00    -0.216 N 
HETATM    7  N   UNL     1      43.608 -17.432   4.349  1.00  0.00    -0.170 NA
HETATM    8  C   UNL     1      43.251 -16.165   4.096  1.00  0.00     0.069 A 
HETATM    9  C   UNL     1      43.384 -15.125   5.146  1.00  0.00     0.073 C 
HETATM   10  N   UNL     1      42.358 -17.551   0.996  1.00  0.00    -0.349 N 
HETATM   11  C   UNL     1      41.776 -16.525   0.274  1.00  0.00     0.111 A 
HETATM   12  H   UNL     1      42.184 -18.494   0.654  1.00  0.00     0.167 HD
ENDROOT
BRANCH   1  13
HETATM   13  C   UNL     1      40.963 -14.280  -0.203  1.00  0.00     0.261 C 
HETATM   14  N   UNL     1      39.612 -14.504  -0.370  1.00  0.00    -0.323 N 
HETATM   15  H   UNL     1      39.199 -15.269   0.164  1.00  0.00     0.169 HD
HETATM   16  O   UNL     1      41.619 -13.401  -0.756  1.00  0.00    -0.267 OA
BRANCH  14  17
HETATM   17  C   UNL     1      38.742 -13.849  -1.268  1.00  0.00     0.035 A 
HETATM   18  C   UNL     1      38.018 -12.699  -0.955  1.00  0.00     0.030 A 
HETATM   19  C   UNL     1      37.225 -12.073  -1.921  1.00  0.00     0.009 A 
HETATM   20  C   UNL     1      37.152 -12.577  -3.225  1.00  0.00    -0.058 A 
HETATM   21  C   UNL     1      37.852 -13.748  -3.531  1.00  0.00     0.009 A 
HETATM   22  C   UNL     1      38.632 -14.382  -2.557  1.00  0.00     0.030 A 
BRANCH  20  23
HETATM   23  C   UNL     1      36.351 -11.852  -4.279  1.00  0.00     0.038 C 
BRANCH  23  24
HETATM   24  C   UNL     1      34.912 -11.591  -3.816  1.00  0.00     0.004 C 
BRANCH  24  25
HETATM   25  C   UNL     1      33.913 -12.485  -4.548  1.00  0.00    -0.004 C 
HETATM   26  C   UNL     1      32.544 -12.439  -3.887  1.00  0.00     0.005 C 
ENDBRANCH  24  25
ENDBRANCH  23  24
ENDBRANCH  20  23
ENDBRANCH  14  17
ENDBRANCH   1  13
BRANCH   6  27
HETATM   27  C   UNL     1      43.786 -19.483   3.079  1.00  0.00     0.060 A 
HETATM   28  C   UNL     1      43.494 -20.253   1.945  1.00  0.00     0.031 A 
HETATM   29  C   UNL     1      43.852 -21.604   1.902  1.00  0.00     0.002 A 
HETATM   30  C   UNL     1      44.514 -22.191   2.979  1.00  0.00     0.000 A 
HETATM   31  C   UNL     1      44.839 -21.424   4.095  1.00  0.00     0.002 A 
HETATM   32  C   UNL     1      44.484 -20.075   4.144  1.00  0.00     0.031 A 
ENDBRANCH   6  27
TORSDOF 6
ENDMDL
MODEL 10
REMARK VINA RESULT:      -8.8      4.380      9.135
REMARK  6 active torsions:
REMARK  status: ('A' for Active; 'I' for Inactive)
REMARK    1  A    between atoms: C_2  and  C_3 
REMARK    2  A    between atoms: C_3  and  C_4 
REMARK    3  A    between atoms: C_4  and  C_5 
REMARK    4  A    between atoms: C_8  and  N_9 
REMARK       I    between atoms: N_9  and  C_10 
REMARK    5  A    between atoms: C_10  and  C_11 
REMARK    6  A    between atoms: N_16  and  C_17 
ROOT
HETATM    1  C   UNL     1      42.142 -15.630   1.299  1.00  0.00     0.098 A 
HETATM    2  C   UNL     1      42.565 -15.328   2.710  1.00  0.00     0.205 A 
HETATM    3  O   UNL     1      42.427 -14.215   3.209  1.00  0.00    -0.286 OA
HETATM    4  C   UNL     1      43.094 -16.469   3.432  1.00  0.00     0.087 A 
HETATM    5  C   UNL     1      43.202 -17.710   2.847  1.00  0.00     0.145 A 
HETATM    6  N   UNL     1      43.709 -18.579   3.802  1.00  0.00    -0.216 N 
HETATM    7  N   UNL     1      43.848 -17.930   5.000  1.00  0.00    -0.170 NA
HETATM    8  C   UNL     1      43.527 -16.652   4.756  1.00  0.00     0.069 A 
HETATM    9  C   UNL     1      43.616 -15.638   5.836  1.00  0.00     0.073 C 
HETATM   10  N   UNL     1      42.793 -17.951   1.578  1.00  0.00    -0.349 N 
HETATM   11  C   UNL     1      42.271 -16.899   0.848  1.00  0.00     0.111 A 
HETATM   12  H   UNL     1      42.623 -18.883   1.204  1.00  0.00     0.167 HD
ENDROOT
BRANCH   1  13
HETATM   13  C   UNL     1      41.525 -14.629   0.378  1.00  0.00     0.261 C 
HETATM   14  N   UNL     1      42.249 -14.376  -0.769  1.00  0.00    -0.323 N 
HETATM   15  H   UNL     1      43.103 -14.916  -0.907  1.00  0.00     0.169 HD
HETATM   16  O   UNL     1      40.474 -14.082   0.699  1.00  0.00    -0.267 OA
BRANCH  14  17
HETATM   17  C   UNL     1      41.991 -13.385  -1.741  1.00  0.00     0.035 A 
HETATM   18  C   UNL     1      42.728 -12.209  -1.869  1.00  0.00     0.030 A 
HETATM   19  C   UNL     1      42.451 -11.305  -2.899  1.00  0.00     0.009 A 
HETATM   20  C   UNL     1      41.440 -11.568  -3.831  1.00  0.00    -0.058 A 
HETATM   21  C   UNL     1      40.679 -12.732  -3.684  1.00  0.00     0.009 A 
HETATM   22  C   UNL     1      40.948 -13.627  -2.642  1.00  0.00     0.030 A 
BRANCH  20  23
HETATM   23  C   UNL     1      41.198 -10.620  -4.981  1.00  0.00     0.038 C 
BRANCH  23  24
HETATM   24  C   UNL     1      42.446  -9.789  -5.302  1.00  0.00     0.004 C 
BRANCH  24  25
HETATM   25  C   UNL     1      42.161  -8.290  -5.223  1.00  0.00    -0.004 C 
HETATM   26  C   UNL     1      42.526  -7.729  -3.858  1.00  0.00     0.005 C 
ENDBRANCH  24  25
ENDBRANCH  23  24
ENDBRANCH  20  23
ENDBRANCH  14  17
ENDBRANCH   1  13
BRANCH   6  27
HETATM   27  C   UNL     1      44.064 -19.955   3.694  1.00  0.00     0.060 A 
HETATM   28  C   UNL     1      44.508 -20.697   4.797  1.00  0.00     0.031 A 
HETATM   29  C   UNL     1      44.875 -22.037   4.641  1.00  0.00     0.002 A 
HETATM   30  C   UNL     1      44.790 -22.649   3.392  1.00  0.00     0.000 A 
HETATM   31  C   UNL     1      44.316 -21.929   2.297  1.00  0.00     0.002 A 
HETATM   32  C   UNL     1      43.948 -20.591   2.447  1.00  0.00     0.031 A 
ENDBRANCH   6  27
TORSDOF 6
ENDMDL
