MODEL 1
REMARK VINA RESULT:      -8.3      0.000      0.000
REMARK  7 active torsions:
REMARK  status: ('A' for Active; 'I' for Inactive)
REMARK    1  A    between atoms: C_7  and  C_8 
REMARK    2  A    between atoms: C_8  and  C_9 
REMARK    3  A    between atoms: C_9  and  C_10 
REMARK    4  A    between atoms: C_10  and  O_11 
REMARK    5  A    between atoms: C_13  and  C_14 
REMARK    6  A    between atoms: C_22  and  C_23 
REMARK       I    between atoms: C_23  and  N_24 
REMARK    7  A    between atoms: N_24  and  C_25 
ROOT
HETATM    1  C   UNL     1      43.963 -15.354   6.250  1.00  0.00     0.070 C 
HETATM    2  C   UNL     1      42.737 -14.892   5.498  1.00  0.00     0.037 C 
HETATM    3  N   UNL     1      41.987 -13.910   6.134  1.00  0.00    -0.192 N 
HETATM    4  C   UNL     1      40.991 -13.236   5.531  1.00  0.00     0.726 A 
HETATM    5  N   UNL     1      40.594 -13.602   4.274  1.00  0.00    -0.083 N 
HETATM    6  N   UNL     1      39.608 -12.798   3.817  1.00  0.00    -0.140 NA
HETATM    7  C   UNL     1      39.486 -11.943   4.846  1.00  0.00     0.166 A 
HETATM    8  N   UNL     1      40.304 -12.194   5.921  1.00  0.00    -0.046 NA
HETATM    9  C   UNL     1      41.173 -14.732   3.530  1.00  0.00     0.204 C 
HETATM   10  C   UNL     1      42.375 -15.330   4.264  1.00  0.00     0.062 C 
HETATM   11  H   UNL     1      42.343 -13.542   7.013  1.00  0.00     0.184 HD
ENDROOT
BRANCH  10  12
HETATM   12  C   UNL     1      43.144 -16.386   3.550  1.00  0.00     0.256 C 
HETATM   13  N   UNL     1      42.719 -17.666   3.843  1.00  0.00    -0.323 N 
HETATM   14  H   UNL     1      41.917 -17.762   4.452  1.00  0.00     0.169 HD
HETATM   15  O   UNL     1      44.039 -16.070   2.780  1.00  0.00    -0.267 OA
BRANCH  13  16
HETATM   16  C   UNL     1      43.346 -18.872   3.455  1.00  0.00     0.035 A 
HETATM   17  C   UNL     1      44.273 -19.560   4.246  1.00  0.00     0.032 A 
HETATM   18  C   UNL     1      44.818 -20.772   3.811  1.00  0.00     0.044 A 
HETATM   19  C   UNL     1      44.437 -21.296   2.583  1.00  0.00     0.116 A 
HETATM   20  F   UNL     1      44.952 -22.462   2.172  1.00  0.00    -0.206 F 
HETATM   21  C   UNL     1      43.525 -20.627   1.780  1.00  0.00     0.044 A 
HETATM   22  C   UNL     1      42.980 -19.414   2.214  1.00  0.00     0.032 A 
ENDBRANCH  13  16
ENDBRANCH  10  12
BRANCH   9  23
HETATM   23  C   UNL     1      41.373 -14.365   2.059  1.00  0.00    -0.005 A 
HETATM   24  C   UNL     1      41.089 -15.233   0.982  1.00  0.00     0.064 A 
HETATM   25 CL   UNL     1      40.476 -16.832   1.275  1.00  0.00    -0.082 Cl
HETATM   26  C   UNL     1      41.299 -14.798  -0.339  1.00  0.00     0.056 A 
HETATM   27 CL   UNL     1      40.969 -15.799  -1.714  1.00  0.00    -0.083 Cl
HETATM   28  C   UNL     1      41.792 -13.516  -0.595  1.00  0.00     0.026 A 
HETATM   29  C   UNL     1      42.081 -12.656   0.458  1.00  0.00     0.002 A 
HETATM   30  C   UNL     1      41.874 -13.076   1.771  1.00  0.00     0.011 A 
ENDBRANCH   9  23
BRANCH   7  31
HETATM   31  C   UNL     1      38.617 -10.741   4.779  1.00  0.00     0.085 C 
BRANCH  31  32
HETATM   32  C   UNL     1      39.357  -9.457   5.163  1.00  0.00     0.034 C 
BRANCH  32  33
HETATM   33  C   UNL     1      38.946  -8.867   6.510  1.00  0.00     0.164 C 
BRANCH  33  34
HETATM   34  O   UNL     1      38.787  -9.884   7.488  1.00  0.00    -0.401 OA
HETATM   35  H   UNL     1      37.966 -10.364   7.259  1.00  0.00     0.209 HD
ENDBRANCH  33  34
ENDBRANCH  32  33
ENDBRANCH  31  32
ENDBRANCH   7  31
TORSDOF 7
ENDMDL
MODEL 2
REMARK VINA RESULT:      -8.3      2.295      3.951
REMARK  7 active torsions:
REMARK  status: ('A' for Active; 'I' for Inactive)
REMARK    1  A    between atoms: C_7  and  C_8 
REMARK    2  A    between atoms: C_8  and  C_9 
REMARK    3  A    between atoms: C_9  and  C_10 
REMARK    4  A    between atoms: C_10  and  O_11 
REMARK    5  A    between atoms: C_13  and  C_14 
REMARK    6  A    between atoms: C_22  and  C_23 
REMARK       I    between atoms: C_23  and  N_24 
REMARK    7  A    between atoms: N_24  and  C_25 
ROOT
HETATM    1  C   UNL     1      39.818 -16.475   1.793  1.00  0.00     0.070 C 
HETATM    2  C   UNL     1      40.415 -15.368   2.628  1.00  0.00     0.037 C 
HETATM    3  N   UNL     1      39.533 -14.358   2.992  1.00  0.00    -0.192 N 
HETATM    4  C   UNL     1      39.830 -13.409   3.898  1.00  0.00     0.726 A 
HETATM    5  N   UNL     1      41.098 -13.336   4.407  1.00  0.00    -0.083 N 
HETATM    6  N   UNL     1      41.204 -12.347   5.322  1.00  0.00    -0.140 NA
HETATM    7  C   UNL     1      39.942 -11.885   5.337  1.00  0.00     0.166 A 
HETATM    8  N   UNL     1      39.079 -12.500   4.463  1.00  0.00    -0.046 NA
HETATM    9  C   UNL     1      42.196 -14.226   3.996  1.00  0.00     0.204 C 
HETATM   10  C   UNL     1      41.701 -15.335   3.066  1.00  0.00     0.062 C 
HETATM   11  H   UNL     1      38.557 -14.467   2.724  1.00  0.00     0.184 HD
ENDROOT
BRANCH  10  12
HETATM   12  C   UNL     1      42.683 -16.391   2.694  1.00  0.00     0.256 C 
HETATM   13  N   UNL     1      42.297 -17.659   3.080  1.00  0.00    -0.323 N 
HETATM   14  H   UNL     1      41.389 -17.756   3.517  1.00  0.00     0.169 HD
HETATM   15  O   UNL     1      43.700 -16.088   2.088  1.00  0.00    -0.267 OA
BRANCH  13  16
HETATM   16  C   UNL     1      43.079 -18.834   3.015  1.00  0.00     0.035 A 
HETATM   17  C   UNL     1      43.995 -19.218   4.001  1.00  0.00     0.032 A 
HETATM   18  C   UNL     1      44.702 -20.420   3.886  1.00  0.00     0.044 A 
HETATM   19  C   UNL     1      44.492 -21.237   2.785  1.00  0.00     0.116 A 
HETATM   20  F   UNL     1      45.162 -22.393   2.681  1.00  0.00    -0.206 F 
HETATM   21  C   UNL     1      43.593 -20.874   1.793  1.00  0.00     0.044 A 
HETATM   22  C   UNL     1      42.888 -19.672   1.906  1.00  0.00     0.032 A 
ENDBRANCH  13  16
ENDBRANCH  10  12
BRANCH   9  23
HETATM   23  C   UNL     1      43.024 -14.656   5.207  1.00  0.00    -0.005 A 
HETATM   24  C   UNL     1      42.637 -15.670   6.110  1.00  0.00     0.064 A 
HETATM   25 CL   UNL     1      41.138 -16.520   5.892  1.00  0.00    -0.082 Cl
HETATM   26  C   UNL     1      43.474 -15.999   7.192  1.00  0.00     0.056 A 
HETATM   27 CL   UNL     1      43.074 -17.235   8.338  1.00  0.00    -0.083 Cl
HETATM   28  C   UNL     1      44.683 -15.326   7.385  1.00  0.00     0.026 A 
HETATM   29  C   UNL     1      45.071 -14.321   6.506  1.00  0.00     0.002 A 
HETATM   30  C   UNL     1      44.250 -13.990   5.429  1.00  0.00     0.011 A 
ENDBRANCH   9  23
BRANCH   7  31
HETATM   31  C   UNL     1      39.483 -10.867   6.315  1.00  0.00     0.085 C 
BRANCH  31  32
HETATM   32  C   UNL     1      40.184 -10.994   7.671  1.00  0.00     0.034 C 
BRANCH  32  33
HETATM   33  C   UNL     1      39.252 -11.308   8.839  1.00  0.00     0.164 C 
BRANCH  33  34
HETATM   34  O   UNL     1      38.837 -12.666   8.813  1.00  0.00    -0.401 OA
HETATM   35  H   UNL     1      39.423 -13.148   9.430  1.00  0.00     0.209 HD
ENDBRANCH  33  34
ENDBRANCH  32  33
ENDBRANCH  31  32
ENDBRANCH   7  31
TORSDOF 7
ENDMDL
MODEL 3
REMARK VINA RESULT:      -8.1      3.351      6.139
REMARK  7 active torsions:
REMARK  status: ('A' for Active; 'I' for Inactive)
REMARK    1  A    between atoms: C_7  and  C_8 
REMARK    2  A    between atoms: C_8  and  C_9 
REMARK    3  A    between atoms: C_9  and  C_10 
REMARK    4  A    between atoms: C_10  and  O_11 
REMARK    5  A    between atoms: C_13  and  C_14 
REMARK    6  A    between atoms: C_22  and  C_23 
REMARK       I    between atoms: C_23  and  N_24 
REMARK    7  A    between atoms: N_24  and  C_25 
ROOT
HETATM    1  C   UNL     1      39.330 -12.475   3.364  1.00  0.00     0.070 C 
HETATM    2  C   UNL     1      40.657 -13.068   3.774  1.00  0.00     0.037 C 
HETATM    3  N   UNL     1      41.256 -12.474   4.879  1.00  0.00    -0.192 N 
HETATM    4  C   UNL     1      42.325 -12.995   5.508  1.00  0.00     0.726 A 
HETATM    5  N   UNL     1      42.950 -14.092   4.979  1.00  0.00    -0.083 N 
HETATM    6  N   UNL     1      43.979 -14.493   5.758  1.00  0.00    -0.140 NA
HETATM    7  C   UNL     1      43.893 -13.605   6.763  1.00  0.00     0.166 A 
HETATM    8  N   UNL     1      42.903 -12.662   6.632  1.00  0.00    -0.046 NA
HETATM    9  C   UNL     1      42.543 -14.737   3.720  1.00  0.00     0.204 C 
HETATM   10  C   UNL     1      41.246 -14.136   3.176  1.00  0.00     0.062 C 
HETATM   11  H   UNL     1      40.739 -11.740   5.356  1.00  0.00     0.184 HD
ENDROOT
BRANCH  10  12
HETATM   12  C   UNL     1      40.646 -14.797   1.984  1.00  0.00     0.256 C 
HETATM   13  N   UNL     1      41.073 -14.260   0.787  1.00  0.00    -0.323 N 
HETATM   14  H   UNL     1      41.772 -13.529   0.827  1.00  0.00     0.169 HD
HETATM   15  O   UNL     1      39.871 -15.730   2.133  1.00  0.00    -0.267 OA
BRANCH  13  16
HETATM   16  C   UNL     1      40.567 -14.559  -0.499  1.00  0.00     0.035 A 
HETATM   17  C   UNL     1      39.450 -13.934  -1.064  1.00  0.00     0.032 A 
HETATM   18  C   UNL     1      39.035 -14.253  -2.361  1.00  0.00     0.044 A 
HETATM   19  C   UNL     1      39.739 -15.198  -3.093  1.00  0.00     0.116 A 
HETATM   20  F   UNL     1      39.348 -15.496  -4.339  1.00  0.00    -0.206 F 
HETATM   21  C   UNL     1      40.846 -15.835  -2.551  1.00  0.00     0.044 A 
HETATM   22  C   UNL     1      41.260 -15.517  -1.254  1.00  0.00     0.032 A 
ENDBRANCH  13  16
ENDBRANCH  10  12
BRANCH   9  23
HETATM   23  C   UNL     1      42.600 -16.259   3.851  1.00  0.00    -0.005 A 
HETATM   24  C   UNL     1      43.229 -17.110   2.916  1.00  0.00     0.064 A 
HETATM   25 CL   UNL     1      44.002 -16.453   1.506  1.00  0.00    -0.082 Cl
HETATM   26  C   UNL     1      43.234 -18.500   3.130  1.00  0.00     0.056 A 
HETATM   27 CL   UNL     1      43.990 -19.610   2.036  1.00  0.00    -0.083 Cl
HETATM   28  C   UNL     1      42.617 -19.048   4.258  1.00  0.00     0.026 A 
HETATM   29  C   UNL     1      41.989 -18.220   5.181  1.00  0.00     0.002 A 
HETATM   30  C   UNL     1      41.980 -16.840   4.980  1.00  0.00     0.011 A 
ENDBRANCH   9  23
BRANCH   7  31
HETATM   31  C   UNL     1      44.727 -13.710   7.986  1.00  0.00     0.085 C 
BRANCH  31  32
HETATM   32  C   UNL     1      45.442 -12.399   8.327  1.00  0.00     0.034 C 
BRANCH  32  33
HETATM   33  C   UNL     1      46.864 -12.292   7.782  1.00  0.00     0.164 C 
BRANCH  33  34
HETATM   34  O   UNL     1      47.350 -10.961   7.876  1.00  0.00    -0.401 OA
HETATM   35  H   UNL     1      47.571 -10.811   8.817  1.00  0.00     0.209 HD
ENDBRANCH  33  34
ENDBRANCH  32  33
ENDBRANCH  31  32
ENDBRANCH   7  31
TORSDOF 7
ENDMDL
MODEL 4
REMARK VINA RESULT:      -8.0      1.992      4.035
REMARK  7 active torsions:
REMARK  status: ('A' for Active; 'I' for Inactive)
REMARK    1  A    between atoms: C_7  and  C_8 
REMARK    2  A    between atoms: C_8  and  C_9 
REMARK    3  A    between atoms: C_9  and  C_10 
REMARK    4  A    between atoms: C_10  and  O_11 
REMARK    5  A    between atoms: C_13  and  C_14 
REMARK    6  A    between atoms: C_22  and  C_23 
REMARK       I    between atoms: C_23  and  N_24 
REMARK    7  A    between atoms: N_24  and  C_25 
ROOT
HETATM    1  C   UNL     1      41.789 -15.670  -0.252  1.00  0.00     0.070 C 
HETATM    2  C   UNL     1      42.114 -14.914   1.013  1.00  0.00     0.037 C 
HETATM    3  N   UNL     1      41.497 -13.675   1.139  1.00  0.00    -0.192 N 
HETATM    4  C   UNL     1      41.502 -12.959   2.278  1.00  0.00     0.726 A 
HETATM    5  N   UNL     1      42.249 -13.389   3.341  1.00  0.00    -0.083 N 
HETATM    6  N   UNL     1      42.109 -12.567   4.404  1.00  0.00    -0.140 NA
HETATM    7  C   UNL     1      41.230 -11.676   3.917  1.00  0.00     0.166 A 
HETATM    8  N   UNL     1      40.851 -11.875   2.611  1.00  0.00    -0.046 NA
HETATM    9  C   UNL     1      43.096 -14.593   3.311  1.00  0.00     0.204 C 
HETATM   10  C   UNL     1      42.902 -15.383   2.015  1.00  0.00     0.062 C 
HETATM   11  H   UNL     1      40.840 -13.401   0.412  1.00  0.00     0.184 HD
ENDROOT
BRANCH  10  12
HETATM   12  C   UNL     1      43.590 -16.700   1.920  1.00  0.00     0.256 C 
HETATM   13  N   UNL     1      42.891 -17.728   2.520  1.00  0.00    -0.323 N 
HETATM   14  H   UNL     1      41.982 -17.508   2.908  1.00  0.00     0.169 HD
HETATM   15  O   UNL     1      44.659 -16.786   1.333  1.00  0.00    -0.267 OA
BRANCH  13  16
HETATM   16  C   UNL     1      43.351 -19.047   2.736  1.00  0.00     0.035 A 
HETATM   17  C   UNL     1      43.206 -20.086   1.811  1.00  0.00     0.032 A 
HETATM   18  C   UNL     1      43.727 -21.356   2.078  1.00  0.00     0.044 A 
HETATM   19  C   UNL     1      44.393 -21.587   3.274  1.00  0.00     0.116 A 
HETATM   20  F   UNL     1      44.900 -22.800   3.526  1.00  0.00    -0.206 F 
HETATM   21  C   UNL     1      44.543 -20.573   4.209  1.00  0.00     0.044 A 
HETATM   22  C   UNL     1      44.020 -19.303   3.942  1.00  0.00     0.032 A 
ENDBRANCH  13  16
ENDBRANCH  10  12
BRANCH   9  23
HETATM   23  C   UNL     1      42.973 -15.371   4.621  1.00  0.00    -0.005 A 
HETATM   24  C   UNL     1      41.773 -15.953   5.086  1.00  0.00     0.064 A 
HETATM   25 CL   UNL     1      40.308 -15.809   4.164  1.00  0.00    -0.082 Cl
HETATM   26  C   UNL     1      41.765 -16.657   6.304  1.00  0.00     0.056 A 
HETATM   27 CL   UNL     1      40.337 -17.404   6.939  1.00  0.00    -0.083 Cl
HETATM   28  C   UNL     1      42.933 -16.783   7.061  1.00  0.00     0.026 A 
HETATM   29  C   UNL     1      44.118 -16.209   6.615  1.00  0.00     0.002 A 
HETATM   30  C   UNL     1      44.138 -15.511   5.409  1.00  0.00     0.011 A 
ENDBRANCH   9  23
BRANCH   7  31
HETATM   31  C   UNL     1      40.616 -10.623   4.765  1.00  0.00     0.085 C 
BRANCH  31  32
HETATM   32  C   UNL     1      40.132 -11.161   6.114  1.00  0.00     0.034 C 
BRANCH  32  33
HETATM   33  C   UNL     1      39.258 -12.410   6.022  1.00  0.00     0.164 C 
BRANCH  33  34
HETATM   34  O   UNL     1      39.857 -13.505   6.699  1.00  0.00    -0.401 OA
HETATM   35  H   UNL     1      40.735 -13.638   6.291  1.00  0.00     0.209 HD
ENDBRANCH  33  34
ENDBRANCH  32  33
ENDBRANCH  31  32
ENDBRANCH   7  31
TORSDOF 7
ENDMDL
MODEL 5
REMARK VINA RESULT:      -7.8      4.230      8.017
REMARK  7 active torsions:
REMARK  status: ('A' for Active; 'I' for Inactive)
REMARK    1  A    between atoms: C_7  and  C_8 
REMARK    2  A    between atoms: C_8  and  C_9 
REMARK    3  A    between atoms: C_9  and  C_10 
REMARK    4  A    between atoms: C_10  and  O_11 
REMARK    5  A    between atoms: C_13  and  C_14 
REMARK    6  A    between atoms: C_22  and  C_23 
REMARK       I    between atoms: C_23  and  N_24 
REMARK    7  A    between atoms: N_24  and  C_25 
ROOT
HETATM    1  C   UNL     1      43.542 -17.510   8.174  1.00  0.00     0.070 C 
HETATM    2  C   UNL     1      43.766 -17.448   6.682  1.00  0.00     0.037 C 
HETATM    3  N   UNL     1      43.895 -18.680   6.050  1.00  0.00    -0.192 N 
HETATM    4  C   UNL     1      43.891 -18.827   4.713  1.00  0.00     0.726 A 
HETATM    5  N   UNL     1      43.889 -17.718   3.913  1.00  0.00    -0.083 N 
HETATM    6  N   UNL     1      43.854 -18.057   2.604  1.00  0.00    -0.140 NA
HETATM    7  C   UNL     1      43.801 -19.396   2.695  1.00  0.00     0.166 A 
HETATM    8  N   UNL     1      43.841 -19.903   3.971  1.00  0.00    -0.046 NA
HETATM    9  C   UNL     1      43.926 -16.339   4.426  1.00  0.00     0.204 C 
HETATM   10  C   UNL     1      43.797 -16.304   5.949  1.00  0.00     0.062 C 
HETATM   11  H   UNL     1      43.772 -19.515   6.618  1.00  0.00     0.184 HD
ENDROOT
BRANCH  10  12
HETATM   12  C   UNL     1      43.672 -14.964   6.585  1.00  0.00     0.256 C 
HETATM   13  N   UNL     1      44.856 -14.499   7.120  1.00  0.00    -0.323 N 
HETATM   14  H   UNL     1      45.682 -15.069   6.988  1.00  0.00     0.169 HD
HETATM   15  O   UNL     1      42.596 -14.385   6.577  1.00  0.00    -0.267 OA
BRANCH  13  16
HETATM   16  C   UNL     1      45.025 -13.348   7.922  1.00  0.00     0.035 A 
HETATM   17  C   UNL     1      44.083 -12.901   8.855  1.00  0.00     0.032 A 
HETATM   18  C   UNL     1      44.340 -11.774   9.644  1.00  0.00     0.044 A 
HETATM   19  C   UNL     1      45.541 -11.094   9.498  1.00  0.00     0.116 A 
HETATM   20  F   UNL     1      45.791 -10.022  10.260  1.00  0.00    -0.206 F 
HETATM   21  C   UNL     1      46.487 -11.516   8.574  1.00  0.00     0.044 A 
HETATM   22  C   UNL     1      46.229 -12.641   7.785  1.00  0.00     0.032 A 
ENDBRANCH  13  16
ENDBRANCH  10  12
BRANCH   9  23
HETATM   23  C   UNL     1      42.979 -15.441   3.630  1.00  0.00    -0.005 A 
HETATM   24  C   UNL     1      41.616 -15.732   3.406  1.00  0.00     0.064 A 
HETATM   25 CL   UNL     1      40.907 -17.184   4.043  1.00  0.00    -0.082 Cl
HETATM   26  C   UNL     1      40.823 -14.836   2.665  1.00  0.00     0.056 A 
HETATM   27 CL   UNL     1      39.142 -15.117   2.353  1.00  0.00    -0.083 Cl
HETATM   28  C   UNL     1      41.375 -13.664   2.143  1.00  0.00     0.026 A 
HETATM   29  C   UNL     1      42.718 -13.371   2.352  1.00  0.00     0.002 A 
HETATM   30  C   UNL     1      43.511 -14.250   3.087  1.00  0.00     0.011 A 
ENDBRANCH   9  23
BRANCH   7  31
HETATM   31  C   UNL     1      43.590 -20.263   1.508  1.00  0.00     0.085 C 
BRANCH  31  32
HETATM   32  C   UNL     1      43.430 -21.741   1.878  1.00  0.00     0.034 C 
BRANCH  32  33
HETATM   33  C   UNL     1      44.742 -22.469   2.157  1.00  0.00     0.164 C 
BRANCH  33  34
HETATM   34  O   UNL     1      44.722 -23.088   3.435  1.00  0.00    -0.401 OA
HETATM   35  H   UNL     1      44.492 -22.389   4.079  1.00  0.00     0.209 HD
ENDBRANCH  33  34
ENDBRANCH  32  33
ENDBRANCH  31  32
ENDBRANCH   7  31
TORSDOF 7
ENDMDL
MODEL 6
REMARK VINA RESULT:      -7.6      3.605      7.867
REMARK  7 active torsions:
REMARK  status: ('A' for Active; 'I' for Inactive)
REMARK    1  A    between atoms: C_7  and  C_8 
REMARK    2  A    between atoms: C_8  and  C_9 
REMARK    3  A    between atoms: C_9  and  C_10 
REMARK    4  A    between atoms: C_10  and  O_11 
REMARK    5  A    between atoms: C_13  and  C_14 
REMARK    6  A    between atoms: C_22  and  C_23 
REMARK       I    between atoms: C_23  and  N_24 
REMARK    7  A    between atoms: N_24  and  C_25 
ROOT
HETATM    1  C   UNL     1      43.303 -17.108   8.544  1.00  0.00     0.070 C 
HETATM    2  C   UNL     1      43.771 -17.639   7.210  1.00  0.00     0.037 C 
HETATM    3  N   UNL     1      44.087 -18.992   7.187  1.00  0.00    -0.192 N 
HETATM    4  C   UNL     1      44.318 -19.677   6.053  1.00  0.00     0.726 A 
HETATM    5  N   UNL     1      44.376 -19.008   4.861  1.00  0.00    -0.083 N 
HETATM    6  N   UNL     1      44.585 -19.858   3.831  1.00  0.00    -0.140 NA
HETATM    7  C   UNL     1      44.608 -21.035   4.479  1.00  0.00     0.166 A 
HETATM    8  N   UNL     1      44.467 -20.960   5.843  1.00  0.00    -0.046 NA
HETATM    9  C   UNL     1      44.233 -17.549   4.735  1.00  0.00     0.204 C 
HETATM   10  C   UNL     1      43.847 -16.906   6.068  1.00  0.00     0.062 C 
HETATM   11  H   UNL     1      43.926 -19.526   8.038  1.00  0.00     0.184 HD
ENDROOT
BRANCH  10  12
HETATM   12  C   UNL     1      43.527 -15.452   6.048  1.00  0.00     0.256 C 
HETATM   13  N   UNL     1      42.186 -15.189   5.853  1.00  0.00    -0.323 N 
HETATM   14  H   UNL     1      41.559 -15.981   5.798  1.00  0.00     0.169 HD
HETATM   15  O   UNL     1      44.418 -14.632   6.214  1.00  0.00    -0.267 OA
BRANCH  13  16
HETATM   16  C   UNL     1      41.600 -13.923   5.626  1.00  0.00     0.035 A 
HETATM   17  C   UNL     1      42.231 -12.881   4.937  1.00  0.00     0.032 A 
HETATM   18  C   UNL     1      41.569 -11.670   4.715  1.00  0.00     0.044 A 
HETATM   19  C   UNL     1      40.274 -11.500   5.182  1.00  0.00     0.116 A 
HETATM   20  F   UNL     1      39.636 -10.343   4.960  1.00  0.00    -0.206 F 
HETATM   21  C   UNL     1      39.630 -12.516   5.873  1.00  0.00     0.044 A 
HETATM   22  C   UNL     1      40.293 -13.727   6.097  1.00  0.00     0.032 A 
ENDBRANCH  13  16
ENDBRANCH  10  12
BRANCH   9  23
HETATM   23  C   UNL     1      43.375 -17.194   3.520  1.00  0.00    -0.005 A 
HETATM   24  C   UNL     1      41.972 -17.344   3.473  1.00  0.00     0.064 A 
HETATM   25 CL   UNL     1      41.105 -17.968   4.842  1.00  0.00    -0.082 Cl
HETATM   26  C   UNL     1      41.270 -16.981   2.309  1.00  0.00     0.056 A 
HETATM   27 CL   UNL     1      39.549 -17.127   2.174  1.00  0.00    -0.083 Cl
HETATM   28  C   UNL     1      41.950 -16.478   1.197  1.00  0.00     0.026 A 
HETATM   29  C   UNL     1      43.332 -16.332   1.231  1.00  0.00     0.002 A 
HETATM   30  C   UNL     1      44.037 -16.686   2.380  1.00  0.00     0.011 A 
ENDBRANCH   9  23
BRANCH   7  31
HETATM   31  C   UNL     1      44.659 -22.333   3.761  1.00  0.00     0.085 C 
BRANCH  31  32
HETATM   32  C   UNL     1      44.662 -22.166   2.238  1.00  0.00     0.034 C 
BRANCH  32  33
HETATM   33  C   UNL     1      43.284 -21.930   1.625  1.00  0.00     0.164 C 
BRANCH  33  34
HETATM   34  O   UNL     1      42.924 -20.558   1.685  1.00  0.00    -0.401 OA
HETATM   35  H   UNL     1      43.500 -20.148   2.361  1.00  0.00     0.209 HD
ENDBRANCH  33  34
ENDBRANCH  32  33
ENDBRANCH  31  32
ENDBRANCH   7  31
TORSDOF 7
ENDMDL
MODEL 7
REMARK VINA RESULT:      -7.6      3.983      8.368
REMARK  7 active torsions:
REMARK  status: ('A' for Active; 'I' for Inactive)
REMARK    1  A    between atoms: C_7  and  C_8 
REMARK    2  A    between atoms: C_8  and  C_9 
REMARK    3  A    between atoms: C_9  and  C_10 
REMARK    4  A    between atoms: C_10  and  O_11 
REMARK    5  A    between atoms: C_13  and  C_14 
REMARK    6  A    between atoms: C_22  and  C_23 
REMARK       I    between atoms: C_23  and  N_24 
REMARK    7  A    between atoms: N_24  and  C_25 
ROOT
HETATM    1  C   UNL     1      39.443 -11.030   3.285  1.00  0.00     0.070 C 
HETATM    2  C   UNL     1      39.925 -12.458   3.366  1.00  0.00     0.037 C 
HETATM    3  N   UNL     1      40.093 -13.098   2.144  1.00  0.00    -0.192 N 
HETATM    4  C   UNL     1      40.707 -14.288   2.013  1.00  0.00     0.726 A 
HETATM    5  N   UNL     1      41.081 -14.982   3.131  1.00  0.00    -0.083 N 
HETATM    6  N   UNL     1      41.708 -16.134   2.808  1.00  0.00    -0.140 NA
HETATM    7  C   UNL     1      41.707 -16.051   1.467  1.00  0.00     0.166 A 
HETATM    8  N   UNL     1      41.085 -14.943   0.945  1.00  0.00    -0.046 NA
HETATM    9  C   UNL     1      40.820 -14.520   4.504  1.00  0.00     0.204 C 
HETATM   10  C   UNL     1      40.239 -13.105   4.519  1.00  0.00     0.062 C 
HETATM   11  H   UNL     1      39.939 -12.550   1.301  1.00  0.00     0.184 HD
ENDROOT
BRANCH  10  12
HETATM   12  C   UNL     1      40.066 -12.461   5.851  1.00  0.00     0.256 C 
HETATM   13  N   UNL     1      40.954 -11.431   6.081  1.00  0.00    -0.323 N 
HETATM   14  H   UNL     1      41.583 -11.181   5.328  1.00  0.00     0.169 HD
HETATM   15  O   UNL     1      39.186 -12.852   6.605  1.00  0.00    -0.267 OA
BRANCH  13  16
HETATM   16  C   UNL     1      41.147 -10.740   7.298  1.00  0.00     0.035 A 
HETATM   17  C   UNL     1      40.232  -9.824   7.830  1.00  0.00     0.032 A 
HETATM   18  C   UNL     1      40.473  -9.212   9.064  1.00  0.00     0.044 A 
HETATM   19  C   UNL     1      41.631  -9.514   9.766  1.00  0.00     0.116 A 
HETATM   20  F   UNL     1      41.856  -8.935  10.953  1.00  0.00    -0.206 F 
HETATM   21  C   UNL     1      42.555 -10.414   9.255  1.00  0.00     0.044 A 
HETATM   22  C   UNL     1      42.315 -11.025   8.021  1.00  0.00     0.032 A 
ENDBRANCH  13  16
ENDBRANCH  10  12
BRANCH   9  23
HETATM   23  C   UNL     1      42.031 -14.781   5.400  1.00  0.00    -0.005 A 
HETATM   24  C   UNL     1      42.101 -15.822   6.352  1.00  0.00     0.064 A 
HETATM   25 CL   UNL     1      40.762 -16.906   6.573  1.00  0.00    -0.082 Cl
HETATM   26  C   UNL     1      43.265 -15.985   7.125  1.00  0.00     0.056 A 
HETATM   27 CL   UNL     1      43.431 -17.240   8.307  1.00  0.00    -0.083 Cl
HETATM   28  C   UNL     1      44.352 -15.122   6.963  1.00  0.00     0.026 A 
HETATM   29  C   UNL     1      44.291 -14.090   6.033  1.00  0.00     0.002 A 
HETATM   30  C   UNL     1      43.143 -13.921   5.260  1.00  0.00     0.011 A 
ENDBRANCH   9  23
BRANCH   7  31
HETATM   31  C   UNL     1      42.433 -17.024   0.612  1.00  0.00     0.085 C 
BRANCH  31  32
HETATM   32  C   UNL     1      43.726 -17.528   1.260  1.00  0.00     0.034 C 
BRANCH  32  33
HETATM   33  C   UNL     1      43.645 -18.948   1.815  1.00  0.00     0.164 C 
BRANCH  33  34
HETATM   34  O   UNL     1      42.888 -18.986   3.016  1.00  0.00    -0.401 OA
HETATM   35  H   UNL     1      43.519 -19.187   3.736  1.00  0.00     0.209 HD
ENDBRANCH  33  34
ENDBRANCH  32  33
ENDBRANCH  31  32
ENDBRANCH   7  31
TORSDOF 7
ENDMDL
MODEL 8
REMARK VINA RESULT:      -7.5      2.133      2.754
REMARK  7 active torsions:
REMARK  status: ('A' for Active; 'I' for Inactive)
REMARK    1  A    between atoms: C_7  and  C_8 
REMARK    2  A    between atoms: C_8  and  C_9 
REMARK    3  A    between atoms: C_9  and  C_10 
REMARK    4  A    between atoms: C_10  and  O_11 
REMARK    5  A    between atoms: C_13  and  C_14 
REMARK    6  A    between atoms: C_22  and  C_23 
REMARK       I    between atoms: C_23  and  N_24 
REMARK    7  A    between atoms: N_24  and  C_25 
ROOT
HETATM    1  C   UNL     1      42.272 -13.755   5.523  1.00  0.00     0.070 C 
HETATM    2  C   UNL     1      41.240 -13.644   4.427  1.00  0.00     0.037 C 
HETATM    3  N   UNL     1      40.246 -12.696   4.641  1.00  0.00    -0.192 N 
HETATM    4  C   UNL     1      39.372 -12.315   3.692  1.00  0.00     0.726 A 
HETATM    5  N   UNL     1      39.358 -12.966   2.489  1.00  0.00    -0.083 N 
HETATM    6  N   UNL     1      38.442 -12.430   1.652  1.00  0.00    -0.140 NA
HETATM    7  C   UNL     1      37.963 -11.431   2.412  1.00  0.00     0.166 A 
HETATM    8  N   UNL     1      38.498 -11.343   3.674  1.00  0.00    -0.046 NA
HETATM    9  C   UNL     1      40.231 -14.106   2.166  1.00  0.00     0.204 C 
HETATM   10  C   UNL     1      41.259 -14.356   3.270  1.00  0.00     0.062 C 
HETATM   11  H   UNL     1      40.320 -12.118   5.475  1.00  0.00     0.184 HD
ENDROOT
BRANCH  10  12
HETATM   12  C   UNL     1      42.299 -15.388   3.002  1.00  0.00     0.256 C 
HETATM   13  N   UNL     1      41.837 -16.680   3.147  1.00  0.00    -0.323 N 
HETATM   14  H   UNL     1      40.856 -16.803   3.360  1.00  0.00     0.169 HD
HETATM   15  O   UNL     1      43.425 -15.044   2.672  1.00  0.00    -0.267 OA
BRANCH  13  16
HETATM   16  C   UNL     1      42.614 -17.860   3.120  1.00  0.00     0.035 A 
HETATM   17  C   UNL     1      42.743 -18.686   1.997  1.00  0.00     0.032 A 
HETATM   18  C   UNL     1      43.566 -19.816   2.035  1.00  0.00     0.044 A 
HETATM   19  C   UNL     1      44.260 -20.121   3.197  1.00  0.00     0.116 A 
HETATM   20  F   UNL     1      45.057 -21.198   3.229  1.00  0.00    -0.206 F 
HETATM   21  C   UNL     1      44.143 -19.321   4.324  1.00  0.00     0.044 A 
HETATM   22  C   UNL     1      43.319 -18.192   4.287  1.00  0.00     0.032 A 
ENDBRANCH  13  16
ENDBRANCH  10  12
BRANCH   9  23
HETATM   23  C   UNL     1      40.762 -13.991   0.737  1.00  0.00    -0.005 A 
HETATM   24  C   UNL     1      41.573 -12.929   0.279  1.00  0.00     0.064 A 
HETATM   25 CL   UNL     1      42.028 -11.640   1.351  1.00  0.00    -0.082 Cl
HETATM   26  C   UNL     1      42.019 -12.917  -1.056  1.00  0.00     0.056 A 
HETATM   27 CL   UNL     1      43.021 -11.655  -1.692  1.00  0.00    -0.083 Cl
HETATM   28  C   UNL     1      41.663 -13.944  -1.933  1.00  0.00     0.026 A 
HETATM   29  C   UNL     1      40.861 -14.991  -1.494  1.00  0.00     0.002 A 
HETATM   30  C   UNL     1      40.415 -15.013  -0.174  1.00  0.00     0.011 A 
ENDBRANCH   9  23
BRANCH   7  31
HETATM   31  C   UNL     1      37.015 -10.418   1.884  1.00  0.00     0.085 C 
BRANCH  31  32
HETATM   32  C   UNL     1      37.358  -8.996   2.336  1.00  0.00     0.034 C 
BRANCH  32  33
HETATM   33  C   UNL     1      36.442  -8.438   3.423  1.00  0.00     0.164 C 
BRANCH  33  34
HETATM   34  O   UNL     1      36.054  -9.452   4.337  1.00  0.00    -0.401 OA
HETATM   35  H   UNL     1      35.359  -9.064   4.905  1.00  0.00     0.209 HD
ENDBRANCH  33  34
ENDBRANCH  32  33
ENDBRANCH  31  32
ENDBRANCH   7  31
TORSDOF 7
ENDMDL
MODEL 9
REMARK VINA RESULT:      -7.5      3.768      8.580
REMARK  7 active torsions:
REMARK  status: ('A' for Active; 'I' for Inactive)
REMARK    1  A    between atoms: C_7  and  C_8 
REMARK    2  A    between atoms: C_8  and  C_9 
REMARK    3  A    between atoms: C_9  and  C_10 
REMARK    4  A    between atoms: C_10  and  O_11 
REMARK    5  A    between atoms: C_13  and  C_14 
REMARK    6  A    between atoms: C_22  and  C_23 
REMARK       I    between atoms: C_23  and  N_24 
REMARK    7  A    between atoms: N_24  and  C_25 
ROOT
HETATM    1  C   UNL     1      41.498 -14.833  -0.384  1.00  0.00     0.070 C 
HETATM    2  C   UNL     1      41.639 -15.973   0.596  1.00  0.00     0.037 C 
HETATM    3  N   UNL     1      42.531 -16.971   0.222  1.00  0.00    -0.192 N 
HETATM    4  C   UNL     1      42.938 -17.947   1.053  1.00  0.00     0.726 A 
HETATM    5  N   UNL     1      42.366 -18.061   2.290  1.00  0.00    -0.083 N 
HETATM    6  N   UNL     1      42.918 -19.073   2.996  1.00  0.00    -0.140 NA
HETATM    7  C   UNL     1      43.846 -19.506   2.126  1.00  0.00     0.166 A 
HETATM    8  N   UNL     1      43.874 -18.851   0.919  1.00  0.00    -0.046 NA
HETATM    9  C   UNL     1      41.284 -17.188   2.774  1.00  0.00     0.204 C 
HETATM   10  C   UNL     1      41.005 -16.046   1.796  1.00  0.00     0.062 C 
HETATM   11  H   UNL     1      43.056 -16.833  -0.638  1.00  0.00     0.184 HD
ENDROOT
BRANCH  10  12
HETATM   12  C   UNL     1      40.034 -15.005   2.233  1.00  0.00     0.256 C 
HETATM   13  N   UNL     1      40.637 -13.874   2.746  1.00  0.00    -0.323 N 
HETATM   14  H   UNL     1      41.648 -13.837   2.726  1.00  0.00     0.169 HD
HETATM   15  O   UNL     1      38.835 -15.199   2.101  1.00  0.00    -0.267 OA
BRANCH  13  16
HETATM   16  C   UNL     1      39.992 -12.792   3.385  1.00  0.00     0.035 A 
HETATM   17  C   UNL     1      40.012 -12.576   4.768  1.00  0.00     0.032 A 
HETATM   18  C   UNL     1      39.386 -11.456   5.323  1.00  0.00     0.044 A 
HETATM   19  C   UNL     1      38.738 -10.551   4.495  1.00  0.00     0.116 A 
HETATM   20  F   UNL     1      38.148  -9.472   5.027  1.00  0.00    -0.206 F 
HETATM   21  C   UNL     1      38.701 -10.747   3.122  1.00  0.00     0.044 A 
HETATM   22  C   UNL     1      39.325 -11.868   2.567  1.00  0.00     0.032 A 
ENDBRANCH  13  16
ENDBRANCH  10  12
BRANCH   9  23
HETATM   23  C   UNL     1      41.513 -16.805   4.237  1.00  0.00    -0.005 A 
HETATM   24  C   UNL     1      42.564 -15.973   4.681  1.00  0.00     0.064 A 
HETATM   25 CL   UNL     1      43.705 -15.313   3.550  1.00  0.00    -0.082 Cl
HETATM   26  C   UNL     1      42.686 -15.673   6.051  1.00  0.00     0.056 A 
HETATM   27 CL   UNL     1      43.941 -14.656   6.674  1.00  0.00    -0.083 Cl
HETATM   28  C   UNL     1      41.779 -16.196   6.976  1.00  0.00     0.026 A 
HETATM   29  C   UNL     1      40.744 -17.021   6.550  1.00  0.00     0.002 A 
HETATM   30  C   UNL     1      40.613 -17.323   5.195  1.00  0.00     0.011 A 
ENDBRANCH   9  23
BRANCH   7  31
HETATM   31  C   UNL     1      44.853 -20.535   2.489  1.00  0.00     0.085 C 
BRANCH  31  32
HETATM   32  C   UNL     1      44.961 -20.747   4.002  1.00  0.00     0.034 C 
BRANCH  32  33
HETATM   33  C   UNL     1      44.737 -22.186   4.458  1.00  0.00     0.164 C 
BRANCH  33  34
HETATM   34  O   UNL     1      44.836 -23.091   3.368  1.00  0.00    -0.401 OA
HETATM   35  H   UNL     1      43.932 -23.424   3.200  1.00  0.00     0.209 HD
ENDBRANCH  33  34
ENDBRANCH  32  33
ENDBRANCH  31  32
ENDBRANCH   7  31
TORSDOF 7
ENDMDL
MODEL 10
REMARK VINA RESULT:      -7.5      3.804      8.501
REMARK  7 active torsions:
REMARK  status: ('A' for Active; 'I' for Inactive)
REMARK    1  A    between atoms: C_7  and  C_8 
REMARK    2  A    between atoms: C_8  and  C_9 
REMARK    3  A    between atoms: C_9  and  C_10 
REMARK    4  A    between atoms: C_10  and  O_11 
REMARK    5  A    between atoms: C_13  and  C_14 
REMARK    6  A    between atoms: C_22  and  C_23 
REMARK       I    between atoms: C_23  and  N_24 
REMARK    7  A    between atoms: N_24  and  C_25 
ROOT
HETATM    1  C   UNL     1      39.873 -12.813   1.967  1.00  0.00     0.070 C 
HETATM    2  C   UNL     1      40.425 -14.129   2.460  1.00  0.00     0.037 C 
HETATM    3  N   UNL     1      40.872 -14.994   1.468  1.00  0.00    -0.192 N 
HETATM    4  C   UNL     1      41.578 -16.110   1.724  1.00  0.00     0.726 A 
HETATM    5  N   UNL     1      41.770 -16.502   3.021  1.00  0.00    -0.083 N 
HETATM    6  N   UNL     1      42.525 -17.622   3.088  1.00  0.00    -0.140 NA
HETATM    7  C   UNL     1      42.781 -17.829   1.785  1.00  0.00     0.166 A 
HETATM    8  N   UNL     1      42.201 -16.932   0.921  1.00  0.00    -0.046 NA
HETATM    9  C   UNL     1      41.215 -15.789   4.182  1.00  0.00     0.204 C 
HETATM   10  C   UNL     1      40.549 -14.476   3.768  1.00  0.00     0.062 C 
HETATM   11  H   UNL     1      40.849 -14.659   0.508  1.00  0.00     0.184 HD
ENDROOT
BRANCH  10  12
HETATM   12  C   UNL     1      40.076 -13.585   4.863  1.00  0.00     0.256 C 
HETATM   13  N   UNL     1      40.765 -12.392   4.935  1.00  0.00    -0.323 N 
HETATM   14  H   UNL     1      41.467 -12.216   4.228  1.00  0.00     0.169 HD
HETATM   15  O   UNL     1      39.148 -13.939   5.576  1.00  0.00    -0.267 OA
BRANCH  13  16
HETATM   16  C   UNL     1      40.661 -11.419   5.954  1.00  0.00     0.035 A 
HETATM   17  C   UNL     1      39.583 -10.535   6.084  1.00  0.00     0.032 A 
HETATM   18  C   UNL     1      39.530  -9.627   7.146  1.00  0.00     0.044 A 
HETATM   19  C   UNL     1      40.557  -9.602   8.080  1.00  0.00     0.116 A 
HETATM   20  F   UNL     1      40.501  -8.739   9.103  1.00  0.00    -0.206 F 
HETATM   21  C   UNL     1      41.638 -10.464   7.967  1.00  0.00     0.044 A 
HETATM   22  C   UNL     1      41.692 -11.371   6.904  1.00  0.00     0.032 A 
ENDBRANCH  13  16
ENDBRANCH  10  12
BRANCH   9  23
HETATM   23  C   UNL     1      42.242 -15.718   5.313  1.00  0.00    -0.005 A 
HETATM   24  C   UNL     1      43.353 -14.847   5.318  1.00  0.00     0.064 A 
HETATM   25 CL   UNL     1      43.633 -13.767   3.987  1.00  0.00    -0.082 Cl
HETATM   26  C   UNL     1      44.239 -14.851   6.411  1.00  0.00     0.056 A 
HETATM   27 CL   UNL     1      45.620 -13.810   6.496  1.00  0.00    -0.083 Cl
HETATM   28  C   UNL     1      44.031 -15.714   7.490  1.00  0.00     0.026 A 
HETATM   29  C   UNL     1      42.944 -16.580   7.493  1.00  0.00     0.002 A 
HETATM   30  C   UNL     1      42.059 -16.582   6.416  1.00  0.00     0.011 A 
ENDBRANCH   9  23
BRANCH   7  31
HETATM   31  C   UNL     1      43.724 -18.877   1.319  1.00  0.00     0.085 C 
BRANCH  31  32
HETATM   32  C   UNL     1      43.517 -20.216   2.033  1.00  0.00     0.034 C 
BRANCH  32  33
HETATM   33  C   UNL     1      44.595 -20.561   3.058  1.00  0.00     0.164 C 
BRANCH  33  34
HETATM   34  O   UNL     1      44.428 -19.808   4.250  1.00  0.00    -0.401 OA
HETATM   35  H   UNL     1      43.762 -19.120   4.055  1.00  0.00     0.209 HD
ENDBRANCH  33  34
ENDBRANCH  32  33
ENDBRANCH  31  32
ENDBRANCH   7  31
TORSDOF 7
ENDMDL
