MODEL 1
REMARK VINA RESULT:      -8.9      0.000      0.000
REMARK  5 active torsions:
REMARK  status: ('A' for Active; 'I' for Inactive)
REMARK       I    between atoms: N_2  and  C_3 
REMARK    1  A    between atoms: C_3  and  C_4 
REMARK    2  A    between atoms: C_6  and  N_7 
REMARK    3  A    between atoms: N_7  and  C_8 
REMARK    4  A    between atoms: C_8  and  C_9 
REMARK    5  A    between atoms: C_19  and  O_20 
ROOT
HETATM    1  C   UNL     1      41.014 -15.150  -1.233  1.00  0.00     0.033 A 
HETATM    2  C   UNL     1      41.370 -16.201  -0.379  1.00  0.00     0.043 A 
HETATM    3  C   UNL     1      41.701 -15.968   0.962  1.00  0.00     0.043 A 
HETATM    4  C   UNL     1      41.626 -14.643   1.455  1.00  0.00     0.089 A 
HETATM    5  C   UNL     1      41.292 -13.588   0.600  1.00  0.00     0.039 A 
HETATM    6  C   UNL     1      40.994 -13.842  -0.741  1.00  0.00     0.020 A 
ENDROOT
BRANCH   3   7
HETATM    7  N   UNL     1      41.984 -17.016   1.864  1.00  0.00    -0.286 NA
HETATM    8  H   UNL     1      41.930 -16.636   2.810  1.00  0.00     0.128 HD
BRANCH   7   9
HETATM    9  C   UNL     1      43.186 -17.830   1.663  1.00  0.00     0.132 C 
BRANCH   9  10
HETATM   10  C   UNL     1      43.687 -18.442   2.961  1.00  0.00    -0.034 A 
HETATM   11  C   UNL     1      44.036 -19.820   3.093  1.00  0.00    -0.018 A 
HETATM   12  C   UNL     1      44.489 -20.287   4.356  1.00  0.00    -0.025 A 
HETATM   13  C   UNL     1      43.949 -20.776   2.049  1.00  0.00     0.013 A 
HETATM   14  C   UNL     1      44.818 -21.641   4.537  1.00  0.00     0.012 A 
HETATM   15  C   UNL     1      44.607 -19.400   5.435  1.00  0.00     0.012 A 
HETATM   16  C   UNL     1      44.711 -22.553   3.490  1.00  0.00     0.001 A 
HETATM   17  C   UNL     1      44.278 -22.121   2.246  1.00  0.00     0.001 A 
HETATM   18  C   UNL     1      44.283 -18.056   5.294  1.00  0.00     0.002 A 
HETATM   19  C   UNL     1      43.830 -17.582   4.069  1.00  0.00     0.009 A 
ENDBRANCH   9  10
ENDBRANCH   7   9
ENDBRANCH   3   7
BRANCH   4  20
HETATM   20  O   UNL     1      41.946 -14.500   2.787  1.00  0.00    -0.354 OA
HETATM   21  C   UNL     1      43.097 -13.721   3.090  1.00  0.00     0.210 C 
ENDBRANCH   4  20
BRANCH   1  22
HETATM   22  C   UNL     1      40.680 -15.381  -2.666  1.00  0.00     0.251 C 
HETATM   23  N   UNL     1      39.397 -15.807  -2.944  1.00  0.00    -0.361 N 
HETATM   24  C   UNL     1      38.964 -16.004  -4.304  1.00  0.00     0.149 C 
HETATM   25  H   UNL     1      38.688 -15.770  -2.223  1.00  0.00     0.162 HD
HETATM   26  O   UNL     1      41.521 -15.171  -3.533  1.00  0.00    -0.268 OA
ENDBRANCH   1  22
TORSDOF 5
ENDMDL
MODEL 2
REMARK VINA RESULT:      -8.4      2.293      2.499
REMARK  5 active torsions:
REMARK  status: ('A' for Active; 'I' for Inactive)
REMARK       I    between atoms: N_2  and  C_3 
REMARK    1  A    between atoms: C_3  and  C_4 
REMARK    2  A    between atoms: C_6  and  N_7 
REMARK    3  A    between atoms: N_7  and  C_8 
REMARK    4  A    between atoms: C_8  and  C_9 
REMARK    5  A    between atoms: C_19  and  O_20 
ROOT
HETATM    1  C   UNL     1      39.077 -14.269   1.556  1.00  0.00     0.033 A 
HETATM    2  C   UNL     1      39.730 -15.496   1.725  1.00  0.00     0.043 A 
HETATM    3  C   UNL     1      40.527 -15.746   2.850  1.00  0.00     0.043 A 
HETATM    4  C   UNL     1      40.624 -14.742   3.844  1.00  0.00     0.089 A 
HETATM    5  C   UNL     1      39.991 -13.508   3.667  1.00  0.00     0.039 A 
HETATM    6  C   UNL     1      39.226 -13.271   2.523  1.00  0.00     0.020 A 
ENDROOT
BRANCH   3   7
HETATM    7  N   UNL     1      41.129 -17.000   3.086  1.00  0.00    -0.286 NA
HETATM    8  H   UNL     1      41.110 -17.171   4.092  1.00  0.00     0.128 HD
BRANCH   7   9
HETATM    9  C   UNL     1      42.443 -17.285   2.502  1.00  0.00     0.132 C 
BRANCH   9  10
HETATM   10  C   UNL     1      43.297 -18.154   3.410  1.00  0.00    -0.034 A 
HETATM   11  C   UNL     1      43.671 -19.494   3.087  1.00  0.00    -0.018 A 
HETATM   12  C   UNL     1      44.469 -20.217   4.013  1.00  0.00    -0.025 A 
HETATM   13  C   UNL     1      43.288 -20.172   1.903  1.00  0.00     0.013 A 
HETATM   14  C   UNL     1      44.837 -21.546   3.747  1.00  0.00     0.012 A 
HETATM   15  C   UNL     1      44.891 -19.611   5.204  1.00  0.00     0.012 A 
HETATM   16  C   UNL     1      44.435 -22.184   2.576  1.00  0.00     0.001 A 
HETATM   17  C   UNL     1      43.661 -21.497   1.653  1.00  0.00     0.001 A 
HETATM   18  C   UNL     1      44.539 -18.301   5.503  1.00  0.00     0.002 A 
HETATM   19  C   UNL     1      43.752 -17.580   4.615  1.00  0.00     0.009 A 
ENDBRANCH   9  10
ENDBRANCH   7   9
ENDBRANCH   3   7
BRANCH   4  20
HETATM   20  O   UNL     1      41.408 -15.072   4.927  1.00  0.00    -0.354 OA
HETATM   21  C   UNL     1      42.053 -14.000   5.604  1.00  0.00     0.210 C 
ENDBRANCH   4  20
BRANCH   1  22
HETATM   22  C   UNL     1      38.244 -13.981   0.354  1.00  0.00     0.251 C 
HETATM   23  N   UNL     1      38.788 -14.309  -0.871  1.00  0.00    -0.361 N 
HETATM   24  C   UNL     1      38.037 -14.120  -2.086  1.00  0.00     0.149 C 
HETATM   25  H   UNL     1      39.618 -14.886  -0.915  1.00  0.00     0.162 HD
HETATM   26  O   UNL     1      37.125 -13.498   0.485  1.00  0.00    -0.268 OA
ENDBRANCH   1  22
TORSDOF 5
ENDMDL
MODEL 3
REMARK VINA RESULT:      -8.3      0.957      2.418
REMARK  5 active torsions:
REMARK  status: ('A' for Active; 'I' for Inactive)
REMARK       I    between atoms: N_2  and  C_3 
REMARK    1  A    between atoms: C_3  and  C_4 
REMARK    2  A    between atoms: C_6  and  N_7 
REMARK    3  A    between atoms: N_7  and  C_8 
REMARK    4  A    between atoms: C_8  and  C_9 
REMARK    5  A    between atoms: C_19  and  O_20 
ROOT
HETATM    1  C   UNL     1      40.530 -14.907  -1.361  1.00  0.00     0.033 A 
HETATM    2  C   UNL     1      41.370 -15.891  -0.826  1.00  0.00     0.043 A 
HETATM    3  C   UNL     1      41.923 -15.757   0.454  1.00  0.00     0.043 A 
HETATM    4  C   UNL     1      41.578 -14.619   1.223  1.00  0.00     0.089 A 
HETATM    5  C   UNL     1      40.756 -13.624   0.683  1.00  0.00     0.039 A 
HETATM    6  C   UNL     1      40.241 -13.766  -0.608  1.00  0.00     0.020 A 
ENDROOT
BRANCH   3   7
HETATM    7  N   UNL     1      42.706 -16.769   1.049  1.00  0.00    -0.286 NA
HETATM    8  H   UNL     1      43.400 -17.070   0.363  1.00  0.00     0.128 HD
BRANCH   7   9
HETATM    9  C   UNL     1      42.041 -17.903   1.697  1.00  0.00     0.132 C 
BRANCH   9  10
HETATM   10  C   UNL     1      43.017 -18.774   2.470  1.00  0.00    -0.034 A 
HETATM   11  C   UNL     1      43.512 -18.435   3.766  1.00  0.00    -0.018 A 
HETATM   12  C   UNL     1      44.427 -19.321   4.395  1.00  0.00    -0.025 A 
HETATM   13  C   UNL     1      43.169 -17.256   4.475  1.00  0.00     0.013 A 
HETATM   14  C   UNL     1      44.958 -19.013   5.659  1.00  0.00     0.012 A 
HETATM   15  C   UNL     1      44.809 -20.510   3.759  1.00  0.00     0.012 A 
HETATM   16  C   UNL     1      44.605 -17.840   6.322  1.00  0.00     0.001 A 
HETATM   17  C   UNL     1      43.709 -16.963   5.731  1.00  0.00     0.001 A 
HETATM   18  C   UNL     1      44.309 -20.843   2.506  1.00  0.00     0.002 A 
HETATM   19  C   UNL     1      43.421 -19.984   1.870  1.00  0.00     0.009 A 
ENDBRANCH   9  10
ENDBRANCH   7   9
ENDBRANCH   3   7
BRANCH   4  20
HETATM   20  O   UNL     1      42.145 -14.572   2.476  1.00  0.00    -0.354 OA
HETATM   21  C   UNL     1      42.741 -13.340   2.865  1.00  0.00     0.210 C 
ENDBRANCH   4  20
BRANCH   1  22
HETATM   22  C   UNL     1      39.953 -15.026  -2.730  1.00  0.00     0.251 C 
HETATM   23  N   UNL     1      38.584 -15.180  -2.814  1.00  0.00    -0.361 N 
HETATM   24  C   UNL     1      37.928 -15.248  -4.095  1.00  0.00     0.149 C 
HETATM   25  H   UNL     1      38.009 -15.022  -1.997  1.00  0.00     0.162 HD
HETATM   26  O   UNL     1      40.684 -14.964  -3.711  1.00  0.00    -0.268 OA
ENDBRANCH   1  22
TORSDOF 5
ENDMDL
MODEL 4
REMARK VINA RESULT:      -8.2      2.043      4.034
REMARK  5 active torsions:
REMARK  status: ('A' for Active; 'I' for Inactive)
REMARK       I    between atoms: N_2  and  C_3 
REMARK    1  A    between atoms: C_3  and  C_4 
REMARK    2  A    between atoms: C_6  and  N_7 
REMARK    3  A    between atoms: N_7  and  C_8 
REMARK    4  A    between atoms: C_8  and  C_9 
REMARK    5  A    between atoms: C_19  and  O_20 
ROOT
HETATM    1  C   UNL     1      40.230 -14.473   2.812  1.00  0.00     0.033 A 
HETATM    2  C   UNL     1      40.816 -15.739   2.694  1.00  0.00     0.043 A 
HETATM    3  C   UNL     1      41.134 -16.279   1.441  1.00  0.00     0.043 A 
HETATM    4  C   UNL     1      40.892 -15.495   0.288  1.00  0.00     0.089 A 
HETATM    5  C   UNL     1      40.287 -14.239   0.401  1.00  0.00     0.039 A 
HETATM    6  C   UNL     1      39.951 -13.734   1.660  1.00  0.00     0.020 A 
ENDROOT
BRANCH   3   7
HETATM    7  N   UNL     1      41.798 -17.516   1.298  1.00  0.00    -0.286 NA
HETATM    8  H   UNL     1      41.337 -18.190   1.910  1.00  0.00     0.128 HD
BRANCH   7   9
HETATM    9  C   UNL     1      43.258 -17.565   1.421  1.00  0.00     0.132 C 
BRANCH   9  10
HETATM   10  C   UNL     1      43.701 -18.253   2.701  1.00  0.00    -0.034 A 
HETATM   11  C   UNL     1      43.996 -19.649   2.778  1.00  0.00    -0.018 A 
HETATM   12  C   UNL     1      44.397 -20.189   4.030  1.00  0.00    -0.025 A 
HETATM   13  C   UNL     1      43.903 -20.552   1.690  1.00  0.00     0.013 A 
HETATM   14  C   UNL     1      44.672 -21.561   4.155  1.00  0.00     0.012 A 
HETATM   15  C   UNL     1      44.518 -19.357   5.151  1.00  0.00     0.012 A 
HETATM   16  C   UNL     1      44.561 -22.420   3.065  1.00  0.00     0.001 A 
HETATM   17  C   UNL     1      44.178 -21.915   1.832  1.00  0.00     0.001 A 
HETATM   18  C   UNL     1      44.248 -17.997   5.064  1.00  0.00     0.002 A 
HETATM   19  C   UNL     1      43.845 -17.451   3.852  1.00  0.00     0.009 A 
ENDBRANCH   9  10
ENDBRANCH   7   9
ENDBRANCH   3   7
BRANCH   4  20
HETATM   20  O   UNL     1      41.251 -16.086  -0.903  1.00  0.00    -0.354 OA
HETATM   21  C   UNL     1      40.973 -15.357  -2.092  1.00  0.00     0.210 C 
ENDBRANCH   4  20
BRANCH   1  22
HETATM   22  C   UNL     1      39.867 -13.896   4.137  1.00  0.00     0.251 C 
HETATM   23  N   UNL     1      39.514 -12.562   4.158  1.00  0.00    -0.361 N 
HETATM   24  C   UNL     1      39.094 -11.929   5.382  1.00  0.00     0.149 C 
HETATM   25  H   UNL     1      39.330 -12.077   3.289  1.00  0.00     0.162 HD
HETATM   26  O   UNL     1      39.871 -14.606   5.137  1.00  0.00    -0.268 OA
ENDBRANCH   1  22
TORSDOF 5
ENDMDL
MODEL 5
REMARK VINA RESULT:      -8.1      3.166      4.292
REMARK  5 active torsions:
REMARK  status: ('A' for Active; 'I' for Inactive)
REMARK       I    between atoms: N_2  and  C_3 
REMARK    1  A    between atoms: C_3  and  C_4 
REMARK    2  A    between atoms: C_6  and  N_7 
REMARK    3  A    between atoms: N_7  and  C_8 
REMARK    4  A    between atoms: C_8  and  C_9 
REMARK    5  A    between atoms: C_19  and  O_20 
ROOT
HETATM    1  C   UNL     1      40.998 -14.146   4.141  1.00  0.00     0.033 A 
HETATM    2  C   UNL     1      41.400 -15.460   4.408  1.00  0.00     0.043 A 
HETATM    3  C   UNL     1      42.435 -15.734   5.312  1.00  0.00     0.043 A 
HETATM    4  C   UNL     1      43.042 -14.650   5.991  1.00  0.00     0.089 A 
HETATM    5  C   UNL     1      42.658 -13.335   5.710  1.00  0.00     0.039 A 
HETATM    6  C   UNL     1      41.644 -13.085   4.782  1.00  0.00     0.020 A 
ENDROOT
BRANCH   3   7
HETATM    7  N   UNL     1      42.805 -17.050   5.661  1.00  0.00    -0.286 NA
HETATM    8  H   UNL     1      42.648 -17.163   6.663  1.00  0.00     0.128 HD
BRANCH   7   9
HETATM    9  C   UNL     1      44.114 -17.561   5.245  1.00  0.00     0.132 C 
BRANCH   9  10
HETATM   10  C   UNL     1      44.017 -18.456   4.021  1.00  0.00    -0.034 A 
HETATM   11  C   UNL     1      44.247 -19.865   4.060  1.00  0.00    -0.018 A 
HETATM   12  C   UNL     1      44.135 -20.604   2.852  1.00  0.00    -0.025 A 
HETATM   13  C   UNL     1      44.600 -20.590   5.226  1.00  0.00     0.013 A 
HETATM   14  C   UNL     1      44.379 -21.988   2.842  1.00  0.00     0.012 A 
HETATM   15  C   UNL     1      43.784 -19.958   1.659  1.00  0.00     0.012 A 
HETATM   16  C   UNL     1      44.732 -22.666   4.006  1.00  0.00     0.001 A 
HETATM   17  C   UNL     1      44.842 -21.967   5.198  1.00  0.00     0.001 A 
HETATM   18  C   UNL     1      43.543 -18.590   1.632  1.00  0.00     0.002 A 
HETATM   19  C   UNL     1      43.657 -17.848   2.801  1.00  0.00     0.009 A 
ENDBRANCH   9  10
ENDBRANCH   7   9
ENDBRANCH   3   7
BRANCH   4  20
HETATM   20  O   UNL     1      44.035 -15.003   6.877  1.00  0.00    -0.354 OA
HETATM   21  C   UNL     1      44.737 -13.941   7.513  1.00  0.00     0.210 C 
ENDBRANCH   4  20
BRANCH   1  22
HETATM   22  C   UNL     1      39.914 -13.839   3.166  1.00  0.00     0.251 C 
HETATM   23  N   UNL     1      39.477 -14.881   2.374  1.00  0.00    -0.361 N 
HETATM   24  C   UNL     1      38.395 -14.695   1.442  1.00  0.00     0.149 C 
HETATM   25  H   UNL     1      39.752 -15.829   2.595  1.00  0.00     0.162 HD
HETATM   26  O   UNL     1      39.440 -12.709   3.112  1.00  0.00    -0.268 OA
ENDBRANCH   1  22
TORSDOF 5
ENDMDL
MODEL 6
REMARK VINA RESULT:      -8.1      3.263      5.582
REMARK  5 active torsions:
REMARK  status: ('A' for Active; 'I' for Inactive)
REMARK       I    between atoms: N_2  and  C_3 
REMARK    1  A    between atoms: C_3  and  C_4 
REMARK    2  A    between atoms: C_6  and  N_7 
REMARK    3  A    between atoms: N_7  and  C_8 
REMARK    4  A    between atoms: C_8  and  C_9 
REMARK    5  A    between atoms: C_19  and  O_20 
ROOT
HETATM    1  C   UNL     1      39.564 -12.921   4.933  1.00  0.00     0.033 A 
HETATM    2  C   UNL     1      39.969 -14.256   5.047  1.00  0.00     0.043 A 
HETATM    3  C   UNL     1      40.139 -15.063   3.915  1.00  0.00     0.043 A 
HETATM    4  C   UNL     1      39.936 -14.487   2.638  1.00  0.00     0.089 A 
HETATM    5  C   UNL     1      39.510 -13.159   2.522  1.00  0.00     0.039 A 
HETATM    6  C   UNL     1      39.318 -12.383   3.667  1.00  0.00     0.020 A 
ENDROOT
BRANCH   3   7
HETATM    7  N   UNL     1      40.624 -16.386   3.996  1.00  0.00    -0.286 NA
HETATM    8  H   UNL     1      39.895 -16.960   4.422  1.00  0.00     0.128 HD
BRANCH   7   9
HETATM    9  C   UNL     1      41.940 -16.632   4.593  1.00  0.00     0.132 C 
BRANCH   9  10
HETATM   10  C   UNL     1      42.735 -17.669   3.818  1.00  0.00    -0.034 A 
HETATM   11  C   UNL     1      43.344 -18.807   4.430  1.00  0.00    -0.018 A 
HETATM   12  C   UNL     1      44.070 -19.711   3.609  1.00  0.00    -0.025 A 
HETATM   13  C   UNL     1      43.291 -19.099   5.816  1.00  0.00     0.013 A 
HETATM   14  C   UNL     1      44.706 -20.830   4.174  1.00  0.00     0.012 A 
HETATM   15  C   UNL     1      44.162 -19.492   2.228  1.00  0.00     0.012 A 
HETATM   16  C   UNL     1      44.640 -21.080   5.543  1.00  0.00     0.001 A 
HETATM   17  C   UNL     1      43.932 -20.215   6.364  1.00  0.00     0.001 A 
HETATM   18  C   UNL     1      43.551 -18.393   1.637  1.00  0.00     0.002 A 
HETATM   19  C   UNL     1      42.845 -17.493   2.423  1.00  0.00     0.009 A 
ENDBRANCH   9  10
ENDBRANCH   7   9
ENDBRANCH   3   7
BRANCH   4  20
HETATM   20  O   UNL     1      40.143 -15.339   1.577  1.00  0.00    -0.354 OA
HETATM   21  C   UNL     1      40.968 -14.861   0.521  1.00  0.00     0.210 C 
ENDBRANCH   4  20
BRANCH   1  22
HETATM   22  C   UNL     1      39.358 -12.057   6.130  1.00  0.00     0.251 C 
HETATM   23  N   UNL     1      39.373 -12.684   7.358  1.00  0.00    -0.361 N 
HETATM   24  C   UNL     1      39.239 -11.925   8.575  1.00  0.00     0.149 C 
HETATM   25  H   UNL     1      39.700 -13.639   7.431  1.00  0.00     0.162 HD
HETATM   26  O   UNL     1      39.208 -10.847   5.994  1.00  0.00    -0.268 OA
ENDBRANCH   1  22
TORSDOF 5
ENDMDL
MODEL 7
REMARK VINA RESULT:      -8.1      2.618      3.873
REMARK  5 active torsions:
REMARK  status: ('A' for Active; 'I' for Inactive)
REMARK       I    between atoms: N_2  and  C_3 
REMARK    1  A    between atoms: C_3  and  C_4 
REMARK    2  A    between atoms: C_6  and  N_7 
REMARK    3  A    between atoms: N_7  and  C_8 
REMARK    4  A    between atoms: C_8  and  C_9 
REMARK    5  A    between atoms: C_19  and  O_20 
ROOT
HETATM    1  C   UNL     1      40.641 -14.139   2.697  1.00  0.00     0.033 A 
HETATM    2  C   UNL     1      40.295 -14.788   3.889  1.00  0.00     0.043 A 
HETATM    3  C   UNL     1      41.079 -14.654   5.042  1.00  0.00     0.043 A 
HETATM    4  C   UNL     1      42.213 -13.808   4.994  1.00  0.00     0.089 A 
HETATM    5  C   UNL     1      42.572 -13.175   3.799  1.00  0.00     0.039 A 
HETATM    6  C   UNL     1      41.791 -13.347   2.654  1.00  0.00     0.020 A 
ENDROOT
BRANCH   3   7
HETATM    7  N   UNL     1      40.711 -15.231   6.277  1.00  0.00    -0.286 NA
HETATM    8  H   UNL     1      41.284 -14.802   7.005  1.00  0.00     0.128 HD
BRANCH   7   9
HETATM    9  C   UNL     1      40.661 -16.690   6.401  1.00  0.00     0.132 C 
BRANCH   9  10
HETATM   10  C   UNL     1      42.048 -17.309   6.438  1.00  0.00    -0.034 A 
HETATM   11  C   UNL     1      42.672 -17.900   5.297  1.00  0.00    -0.018 A 
HETATM   12  C   UNL     1      43.971 -18.456   5.447  1.00  0.00    -0.025 A 
HETATM   13  C   UNL     1      42.080 -17.990   4.012  1.00  0.00     0.013 A 
HETATM   14  C   UNL     1      44.611 -19.069   4.357  1.00  0.00     0.012 A 
HETATM   15  C   UNL     1      44.624 -18.400   6.686  1.00  0.00     0.012 A 
HETATM   16  C   UNL     1      43.994 -19.147   3.110  1.00  0.00     0.001 A 
HETATM   17  C   UNL     1      42.729 -18.607   2.938  1.00  0.00     0.001 A 
HETATM   18  C   UNL     1      44.018 -17.807   7.787  1.00  0.00     0.002 A 
HETATM   19  C   UNL     1      42.744 -17.266   7.663  1.00  0.00     0.009 A 
ENDBRANCH   9  10
ENDBRANCH   7   9
ENDBRANCH   3   7
BRANCH   4  20
HETATM   20  O   UNL     1      42.918 -13.713   6.173  1.00  0.00    -0.354 OA
HETATM   21  C   UNL     1      44.253 -14.202   6.163  1.00  0.00     0.210 C 
ENDBRANCH   4  20
BRANCH   1  22
HETATM   22  C   UNL     1      39.828 -14.289   1.457  1.00  0.00     0.251 C 
HETATM   23  N   UNL     1      40.418 -13.886   0.276  1.00  0.00    -0.361 N 
HETATM   24  C   UNL     1      39.732 -14.043  -0.981  1.00  0.00     0.149 C 
HETATM   25  H   UNL     1      41.410 -13.688   0.252  1.00  0.00     0.162 HD
HETATM   26  O   UNL     1      38.703 -14.771   1.516  1.00  0.00    -0.268 OA
ENDBRANCH   1  22
TORSDOF 5
ENDMDL
MODEL 8
REMARK VINA RESULT:      -7.9      3.165      6.071
REMARK  5 active torsions:
REMARK  status: ('A' for Active; 'I' for Inactive)
REMARK       I    between atoms: N_2  and  C_3 
REMARK    1  A    between atoms: C_3  and  C_4 
REMARK    2  A    between atoms: C_6  and  N_7 
REMARK    3  A    between atoms: N_7  and  C_8 
REMARK    4  A    between atoms: C_8  and  C_9 
REMARK    5  A    between atoms: C_19  and  O_20 
ROOT
HETATM    1  C   UNL     1      43.237 -13.813   5.616  1.00  0.00     0.033 A 
HETATM    2  C   UNL     1      43.334 -14.845   4.674  1.00  0.00     0.043 A 
HETATM    3  C   UNL     1      42.471 -14.906   3.572  1.00  0.00     0.043 A 
HETATM    4  C   UNL     1      41.519 -13.872   3.402  1.00  0.00     0.089 A 
HETATM    5  C   UNL     1      41.406 -12.852   4.352  1.00  0.00     0.039 A 
HETATM    6  C   UNL     1      42.258 -12.829   5.459  1.00  0.00     0.020 A 
ENDROOT
BRANCH   3   7
HETATM    7  N   UNL     1      42.599 -15.887   2.566  1.00  0.00    -0.286 NA
HETATM    8  H   UNL     1      42.381 -15.446   1.671  1.00  0.00     0.128 HD
BRANCH   7   9
HETATM    9  C   UNL     1      41.917 -17.174   2.729  1.00  0.00     0.132 C 
BRANCH   9  10
HETATM   10  C   UNL     1      42.871 -18.278   3.151  1.00  0.00    -0.034 A 
HETATM   11  C   UNL     1      43.149 -18.593   4.517  1.00  0.00    -0.018 A 
HETATM   12  C   UNL     1      44.063 -19.643   4.798  1.00  0.00    -0.025 A 
HETATM   13  C   UNL     1      42.586 -17.917   5.628  1.00  0.00     0.013 A 
HETATM   14  C   UNL     1      44.384 -19.968   6.127  1.00  0.00     0.012 A 
HETATM   15  C   UNL     1      44.656 -20.362   3.751  1.00  0.00     0.012 A 
HETATM   16  C   UNL     1      43.818 -19.275   7.194  1.00  0.00     0.001 A 
HETATM   17  C   UNL     1      42.918 -18.250   6.945  1.00  0.00     0.001 A 
HETATM   18  C   UNL     1      44.366 -20.063   2.425  1.00  0.00     0.002 A 
HETATM   19  C   UNL     1      43.482 -19.033   2.130  1.00  0.00     0.009 A 
ENDBRANCH   9  10
ENDBRANCH   7   9
ENDBRANCH   3   7
BRANCH   4  20
HETATM   20  O   UNL     1      40.724 -13.993   2.285  1.00  0.00    -0.354 OA
HETATM   21  C   UNL     1      39.361 -14.340   2.501  1.00  0.00     0.210 C 
ENDBRANCH   4  20
BRANCH   1  22
HETATM   22  C   UNL     1      44.134 -13.747   6.804  1.00  0.00     0.251 C 
HETATM   23  N   UNL     1      43.859 -12.768   7.736  1.00  0.00    -0.361 N 
HETATM   24  C   UNL     1      44.636 -12.661   8.945  1.00  0.00     0.149 C 
HETATM   25  H   UNL     1      42.982 -12.265   7.693  1.00  0.00     0.162 HD
HETATM   26  O   UNL     1      45.049 -14.554   6.926  1.00  0.00    -0.268 OA
ENDBRANCH   1  22
TORSDOF 5
ENDMDL
MODEL 9
REMARK VINA RESULT:      -7.8      1.806      4.804
REMARK  5 active torsions:
REMARK  status: ('A' for Active; 'I' for Inactive)
REMARK       I    between atoms: N_2  and  C_3 
REMARK    1  A    between atoms: C_3  and  C_4 
REMARK    2  A    between atoms: C_6  and  N_7 
REMARK    3  A    between atoms: N_7  and  C_8 
REMARK    4  A    between atoms: C_8  and  C_9 
REMARK    5  A    between atoms: C_19  and  O_20 
ROOT
HETATM    1  C   UNL     1      42.310 -13.676   2.720  1.00  0.00     0.033 A 
HETATM    2  C   UNL     1      42.418 -15.048   2.464  1.00  0.00     0.043 A 
HETATM    3  C   UNL     1      42.127 -15.577   1.200  1.00  0.00     0.043 A 
HETATM    4  C   UNL     1      41.762 -14.685   0.163  1.00  0.00     0.089 A 
HETATM    5  C   UNL     1      41.633 -13.316   0.421  1.00  0.00     0.039 A 
HETATM    6  C   UNL     1      41.899 -12.816   1.698  1.00  0.00     0.020 A 
ENDROOT
BRANCH   3   7
HETATM    7  N   UNL     1      42.305 -16.943   0.893  1.00  0.00    -0.286 NA
HETATM    8  H   UNL     1      42.026 -17.083  -0.079  1.00  0.00     0.128 HD
BRANCH   7   9
HETATM    9  C   UNL     1      41.737 -17.958   1.783  1.00  0.00     0.132 C 
BRANCH   9  10
HETATM   10  C   UNL     1      42.809 -18.816   2.433  1.00  0.00    -0.034 A 
HETATM   11  C   UNL     1      43.388 -18.518   3.704  1.00  0.00    -0.018 A 
HETATM   12  C   UNL     1      44.389 -19.387   4.214  1.00  0.00    -0.025 A 
HETATM   13  C   UNL     1      43.046 -17.396   4.500  1.00  0.00     0.013 A 
HETATM   14  C   UNL     1      45.002 -19.117   5.449  1.00  0.00     0.012 A 
HETATM   15  C   UNL     1      44.776 -20.521   3.487  1.00  0.00     0.012 A 
HETATM   16  C   UNL     1      44.646 -17.999   6.200  1.00  0.00     0.001 A 
HETATM   17  C   UNL     1      43.667 -17.139   5.726  1.00  0.00     0.001 A 
HETATM   18  C   UNL     1      44.196 -20.816   2.260  1.00  0.00     0.002 A 
HETATM   19  C   UNL     1      43.222 -19.973   1.739  1.00  0.00     0.009 A 
ENDBRANCH   9  10
ENDBRANCH   7   9
ENDBRANCH   3   7
BRANCH   4  20
HETATM   20  O   UNL     1      41.513 -15.279  -1.054  1.00  0.00    -0.354 OA
HETATM   21  C   UNL     1      40.426 -14.762  -1.811  1.00  0.00     0.210 C 
ENDBRANCH   4  20
BRANCH   1  22
HETATM   22  C   UNL     1      42.595 -13.102   4.066  1.00  0.00     0.251 C 
HETATM   23  N   UNL     1      41.602 -12.333   4.636  1.00  0.00    -0.361 N 
HETATM   24  C   UNL     1      41.763 -11.782   5.957  1.00  0.00     0.149 C 
HETATM   25  H   UNL     1      40.673 -12.334   4.235  1.00  0.00     0.162 HD
HETATM   26  O   UNL     1      43.662 -13.342   4.620  1.00  0.00    -0.268 OA
ENDBRANCH   1  22
TORSDOF 5
ENDMDL
MODEL 10
REMARK VINA RESULT:      -7.8      3.453      5.808
REMARK  5 active torsions:
REMARK  status: ('A' for Active; 'I' for Inactive)
REMARK       I    between atoms: N_2  and  C_3 
REMARK    1  A    between atoms: C_3  and  C_4 
REMARK    2  A    between atoms: C_6  and  N_7 
REMARK    3  A    between atoms: N_7  and  C_8 
REMARK    4  A    between atoms: C_8  and  C_9 
REMARK    5  A    between atoms: C_19  and  O_20 
ROOT
HETATM    1  C   UNL     1      39.941 -12.660   5.631  1.00  0.00     0.033 A 
HETATM    2  C   UNL     1      40.356 -13.988   5.472  1.00  0.00     0.043 A 
HETATM    3  C   UNL     1      40.211 -14.653   4.248  1.00  0.00     0.043 A 
HETATM    4  C   UNL     1      39.672 -13.938   3.151  1.00  0.00     0.089 A 
HETATM    5  C   UNL     1      39.237 -12.619   3.313  1.00  0.00     0.039 A 
HETATM    6  C   UNL     1      39.365 -11.986   4.551  1.00  0.00     0.020 A 
ENDROOT
BRANCH   3   7
HETATM    7  N   UNL     1      40.694 -15.963   4.038  1.00  0.00    -0.286 NA
HETATM    8  H   UNL     1      40.663 -16.454   4.933  1.00  0.00     0.128 HD
BRANCH   7   9
HETATM    9  C   UNL     1      41.971 -16.154   3.346  1.00  0.00     0.132 C 
BRANCH   9  10
HETATM   10  C   UNL     1      42.918 -17.049   4.127  1.00  0.00    -0.034 A 
HETATM   11  C   UNL     1      43.399 -18.300   3.634  1.00  0.00    -0.018 A 
HETATM   12  C   UNL     1      44.277 -19.059   4.453  1.00  0.00    -0.025 A 
HETATM   13  C   UNL     1      43.049 -18.858   2.379  1.00  0.00     0.013 A 
HETATM   14  C   UNL     1      44.753 -20.307   4.017  1.00  0.00     0.012 A 
HETATM   15  C   UNL     1      44.673 -18.570   5.705  1.00  0.00     0.012 A 
HETATM   16  C   UNL     1      44.381 -20.828   2.780  1.00  0.00     0.001 A 
HETATM   17  C   UNL     1      43.529 -20.102   1.960  1.00  0.00     0.001 A 
HETATM   18  C   UNL     1      44.216 -17.344   6.171  1.00  0.00     0.002 A 
HETATM   19  C   UNL     1      43.349 -16.591   5.389  1.00  0.00     0.009 A 
ENDBRANCH   9  10
ENDBRANCH   7   9
ENDBRANCH   3   7
BRANCH   4  20
HETATM   20  O   UNL     1      39.582 -14.655   1.979  1.00  0.00    -0.354 OA
HETATM   21  C   UNL     1      38.372 -14.529   1.241  1.00  0.00     0.210 C 
ENDBRANCH   4  20
BRANCH   1  22
HETATM   22  C   UNL     1      40.070 -11.947   6.933  1.00  0.00     0.251 C 
HETATM   23  N   UNL     1      41.311 -11.424   7.234  1.00  0.00    -0.361 N 
HETATM   24  C   UNL     1      41.519 -10.670   8.444  1.00  0.00     0.149 C 
HETATM   25  H   UNL     1      42.021 -11.369   6.516  1.00  0.00     0.162 HD
HETATM   26  O   UNL     1      39.095 -11.829   7.667  1.00  0.00    -0.268 OA
ENDBRANCH   1  22
TORSDOF 5
ENDMDL
