MODEL 1
REMARK VINA RESULT:      -8.3      0.000      0.000
REMARK  9 active torsions:
REMARK  status: ('A' for Active; 'I' for Inactive)
REMARK    1  A    between atoms: N_5  and  C_6 
REMARK    2  A    between atoms: C_6  and  C_7 
REMARK    3  A    between atoms: C_7  and  O_8 
REMARK    4  A    between atoms: C_7  and  C_9 
REMARK    5  A    between atoms: C_9  and  O_10 
REMARK    6  A    between atoms: O_10  and  C_11 
REMARK    7  A    between atoms: N_23  and  C_24 
REMARK    8  A    between atoms: C_24  and  C_25 
REMARK    9  A    between atoms: C_25  and  N_26 
ROOT
HETATM    1  C   UNL     1      38.864 -10.570   3.257  1.00  0.00     0.002 A 
HETATM    2  C   UNL     1      38.350 -11.563   2.425  1.00  0.00     0.032 A 
HETATM    3  C   UNL     1      38.868 -12.839   2.564  1.00  0.00     0.079 A 
HETATM    4  C   UNL     1      39.883 -13.169   3.502  1.00  0.00     0.079 A 
HETATM    5  N   UNL     1      40.164 -14.540   3.396  1.00  0.00    -0.179 N 
HETATM    6  C   UNL     1      39.394 -15.009   2.277  1.00  0.00     0.681 A 
HETATM    7  N   UNL     1      39.492 -16.244   1.728  1.00  0.00    -0.234 N 
HETATM    8  H   UNL     1      39.003 -16.526   0.891  1.00  0.00     0.174 HD
HETATM    9  H   UNL     1      40.130 -16.931   2.118  1.00  0.00     0.174 HD
HETATM   10  N   UNL     1      38.540 -14.012   1.796  1.00  0.00    -0.180 N 
HETATM   11  C   UNL     1      40.389 -12.171   4.304  1.00  0.00     0.032 A 
HETATM   12  C   UNL     1      39.873 -10.872   4.181  1.00  0.00     0.002 A 
ENDROOT
BRANCH   5  13
HETATM   13  C   UNL     1      41.437 -15.167   3.791  1.00  0.00     0.181 C 
BRANCH  13  14
HETATM   14  C   UNL     1      41.454 -16.281   4.850  1.00  0.00     0.161 C 
BRANCH  14  15
HETATM   15  O   UNL     1      40.604 -17.348   4.422  1.00  0.00    -0.392 OA
HETATM   16  H   UNL     1      39.886 -16.947   3.888  1.00  0.00     0.210 HD
ENDBRANCH  14  15
BRANCH  14  17
HETATM   17  C   UNL     1      42.832 -16.808   5.265  1.00  0.00     0.209 C 
BRANCH  17  18
HETATM   18  O   UNL     1      43.649 -16.797   4.080  1.00  0.00    -0.347 OA
BRANCH  18  19
HETATM   19  C   UNL     1      43.886 -18.055   3.590  1.00  0.00     0.090 A 
HETATM   20  C   UNL     1      43.585 -18.352   2.255  1.00  0.00     0.069 A 
HETATM   21 CL   UNL     1      42.997 -17.134   1.183  1.00  0.00    -0.081 Cl
HETATM   22  C   UNL     1      43.779 -19.642   1.759  1.00  0.00     0.050 A 
HETATM   23  C   UNL     1      44.255 -20.633   2.613  1.00  0.00     0.035 A 
HETATM   24 CL   UNL     1      44.501 -22.227   2.014  1.00  0.00    -0.084 Cl
HETATM   25  C   UNL     1      44.533 -20.350   3.952  1.00  0.00     0.026 A 
HETATM   26  C   UNL     1      44.342 -19.058   4.446  1.00  0.00     0.040 A 
ENDBRANCH  18  19
ENDBRANCH  17  18
ENDBRANCH  14  17
ENDBRANCH  13  14
ENDBRANCH   5  13
BRANCH  10  27
HETATM   27  C   UNL     1      37.662 -14.030   0.614  1.00  0.00     0.175 C 
BRANCH  27  28
HETATM   28  C   UNL     1      38.345 -13.455  -0.644  1.00  0.00     0.256 C 
BRANCH  28  29
HETATM   29  N   UNL     1      38.869 -14.492  -1.615  1.00  0.00    -0.066 N 
HETATM   30  H   UNL     1      38.636 -15.408  -1.201  1.00  0.00     0.280 HD
HETATM   31  C   UNL     1      38.158 -14.498  -2.976  1.00  0.00     0.261 C 
HETATM   32  C   UNL     1      38.673 -15.672  -3.818  1.00  0.00     0.195 C 
HETATM   33  O   UNL     1      40.092 -15.587  -3.976  1.00  0.00    -0.388 OA
HETATM   34  C   UNL     1      40.778 -15.682  -2.724  1.00  0.00     0.195 C 
HETATM   35  C   UNL     1      40.388 -14.513  -1.812  1.00  0.00     0.261 C 
ENDBRANCH  28  29
ENDBRANCH  27  28
ENDBRANCH  10  27
TORSDOF 9
ENDMDL
MODEL 2
REMARK VINA RESULT:      -7.9      2.185      3.608
REMARK  9 active torsions:
REMARK  status: ('A' for Active; 'I' for Inactive)
REMARK    1  A    between atoms: N_5  and  C_6 
REMARK    2  A    between atoms: C_6  and  C_7 
REMARK    3  A    between atoms: C_7  and  O_8 
REMARK    4  A    between atoms: C_7  and  C_9 
REMARK    5  A    between atoms: C_9  and  O_10 
REMARK    6  A    between atoms: O_10  and  C_11 
REMARK    7  A    between atoms: N_23  and  C_24 
REMARK    8  A    between atoms: C_24  and  C_25 
REMARK    9  A    between atoms: C_25  and  N_26 
ROOT
HETATM    1  C   UNL     1      42.579 -17.218   0.860  1.00  0.00     0.002 A 
HETATM    2  C   UNL     1      41.437 -16.424   0.771  1.00  0.00     0.032 A 
HETATM    3  C   UNL     1      41.378 -15.304   1.581  1.00  0.00     0.079 A 
HETATM    4  C   UNL     1      42.414 -14.939   2.482  1.00  0.00     0.079 A 
HETATM    5  N   UNL     1      42.047 -13.751   3.131  1.00  0.00    -0.179 N 
HETATM    6  C   UNL     1      40.702 -13.474   2.706  1.00  0.00     0.681 A 
HETATM    7  N   UNL     1      39.909 -12.503   3.218  1.00  0.00    -0.234 N 
HETATM    8  H   UNL     1      38.939 -12.379   2.963  1.00  0.00     0.174 HD
HETATM    9  H   UNL     1      40.255 -11.884   3.944  1.00  0.00     0.174 HD
HETATM   10  N   UNL     1      40.295 -14.363   1.706  1.00  0.00    -0.180 N 
HETATM   11  C   UNL     1      43.527 -15.745   2.567  1.00  0.00     0.032 A 
HETATM   12  C   UNL     1      43.608 -16.882   1.750  1.00  0.00     0.002 A 
ENDROOT
BRANCH   5  13
HETATM   13  C   UNL     1      42.558 -13.321   4.445  1.00  0.00     0.181 C 
BRANCH  13  14
HETATM   14  C   UNL     1      41.857 -13.778   5.735  1.00  0.00     0.161 C 
BRANCH  14  15
HETATM   15  O   UNL     1      41.053 -12.706   6.235  1.00  0.00    -0.392 OA
HETATM   16  H   UNL     1      40.138 -12.860   5.917  1.00  0.00     0.210 HD
ENDBRANCH  14  15
BRANCH  14  17
HETATM   17  C   UNL     1      41.050 -15.077   5.650  1.00  0.00     0.209 C 
BRANCH  17  18
HETATM   18  O   UNL     1      41.643 -15.991   6.589  1.00  0.00    -0.347 OA
BRANCH  18  19
HETATM   19  C   UNL     1      42.380 -16.973   5.979  1.00  0.00     0.090 A 
HETATM   20  C   UNL     1      43.776 -16.968   6.090  1.00  0.00     0.069 A 
HETATM   21 CL   UNL     1      44.588 -15.792   7.057  1.00  0.00    -0.081 Cl
HETATM   22  C   UNL     1      44.538 -17.935   5.433  1.00  0.00     0.050 A 
HETATM   23  C   UNL     1      43.895 -18.891   4.651  1.00  0.00     0.035 A 
HETATM   24 CL   UNL     1      44.822 -20.090   3.839  1.00  0.00    -0.084 Cl
HETATM   25  C   UNL     1      42.505 -18.886   4.516  1.00  0.00     0.026 A 
HETATM   26  C   UNL     1      41.744 -17.920   5.176  1.00  0.00     0.040 A 
ENDBRANCH  18  19
ENDBRANCH  17  18
ENDBRANCH  14  17
ENDBRANCH  13  14
ENDBRANCH   5  13
BRANCH  10  27
HETATM   27  C   UNL     1      38.975 -14.503   1.068  1.00  0.00     0.175 C 
BRANCH  27  28
HETATM   28  C   UNL     1      38.886 -13.768  -0.285  1.00  0.00     0.256 C 
BRANCH  28  29
HETATM   29  N   UNL     1      39.196 -14.624  -1.496  1.00  0.00    -0.066 N 
HETATM   30  H   UNL     1      39.064 -15.601  -1.191  1.00  0.00     0.280 HD
HETATM   31  C   UNL     1      38.208 -14.452  -2.658  1.00  0.00     0.261 C 
HETATM   32  C   UNL     1      38.537 -15.462  -3.764  1.00  0.00     0.195 C 
HETATM   33  O   UNL     1      39.888 -15.296  -4.204  1.00  0.00    -0.388 OA
HETATM   34  C   UNL     1      40.829 -15.553  -3.157  1.00  0.00     0.195 C 
HETATM   35  C   UNL     1      40.637 -14.553  -2.011  1.00  0.00     0.261 C 
ENDBRANCH  28  29
ENDBRANCH  27  28
ENDBRANCH  10  27
TORSDOF 9
ENDMDL
MODEL 3
REMARK VINA RESULT:      -7.7      1.376      1.707
REMARK  9 active torsions:
REMARK  status: ('A' for Active; 'I' for Inactive)
REMARK    1  A    between atoms: N_5  and  C_6 
REMARK    2  A    between atoms: C_6  and  C_7 
REMARK    3  A    between atoms: C_7  and  O_8 
REMARK    4  A    between atoms: C_7  and  C_9 
REMARK    5  A    between atoms: C_9  and  O_10 
REMARK    6  A    between atoms: O_10  and  C_11 
REMARK    7  A    between atoms: N_23  and  C_24 
REMARK    8  A    between atoms: C_24  and  C_25 
REMARK    9  A    between atoms: C_25  and  N_26 
ROOT
HETATM    1  C   UNL     1      39.193 -10.748   4.739  1.00  0.00     0.002 A 
HETATM    2  C   UNL     1      39.111 -11.594   3.634  1.00  0.00     0.032 A 
HETATM    3  C   UNL     1      39.487 -12.914   3.816  1.00  0.00     0.079 A 
HETATM    4  C   UNL     1      39.941 -13.429   5.059  1.00  0.00     0.079 A 
HETATM    5  N   UNL     1      40.219 -14.796   4.904  1.00  0.00    -0.179 N 
HETATM    6  C   UNL     1      40.054 -15.070   3.504  1.00  0.00     0.681 A 
HETATM    7  N   UNL     1      40.379 -16.236   2.895  1.00  0.00    -0.234 N 
HETATM    8  H   UNL     1      40.333 -16.379   1.897  1.00  0.00     0.174 HD
HETATM    9  H   UNL     1      40.752 -17.012   3.434  1.00  0.00     0.174 HD
HETATM   10  N   UNL     1      39.538 -13.960   2.828  1.00  0.00    -0.180 N 
HETATM   11  C   UNL     1      40.029 -12.574   6.135  1.00  0.00     0.032 A 
HETATM   12  C   UNL     1      39.649 -11.234   5.972  1.00  0.00     0.002 A 
ENDROOT
BRANCH   5  13
HETATM   13  C   UNL     1      41.152 -15.562   5.749  1.00  0.00     0.181 C 
BRANCH  13  14
HETATM   14  C   UNL     1      42.664 -15.296   5.670  1.00  0.00     0.161 C 
BRANCH  14  15
HETATM   15  O   UNL     1      43.102 -14.712   6.901  1.00  0.00    -0.392 OA
HETATM   16  H   UNL     1      42.320 -14.283   7.309  1.00  0.00     0.210 HD
ENDBRANCH  14  15
BRANCH  14  17
HETATM   17  C   UNL     1      43.548 -16.485   5.281  1.00  0.00     0.209 C 
BRANCH  17  18
HETATM   18  O   UNL     1      43.329 -16.717   3.878  1.00  0.00    -0.347 OA
BRANCH  18  19
HETATM   19  C   UNL     1      43.673 -17.986   3.492  1.00  0.00     0.090 A 
HETATM   20  C   UNL     1      43.556 -18.363   2.147  1.00  0.00     0.069 A 
HETATM   21 CL   UNL     1      43.066 -17.226   0.945  1.00  0.00    -0.081 Cl
HETATM   22  C   UNL     1      43.859 -19.666   1.752  1.00  0.00     0.050 A 
HETATM   23  C   UNL     1      44.258 -20.592   2.712  1.00  0.00     0.035 A 
HETATM   24 CL   UNL     1      44.637 -22.201   2.237  1.00  0.00    -0.084 Cl
HETATM   25  C   UNL     1      44.352 -20.231   4.057  1.00  0.00     0.026 A 
HETATM   26  C   UNL     1      44.052 -18.925   4.452  1.00  0.00     0.040 A 
ENDBRANCH  18  19
ENDBRANCH  17  18
ENDBRANCH  14  17
ENDBRANCH  13  14
ENDBRANCH   5  13
BRANCH  10  27
HETATM   27  C   UNL     1      39.313 -13.771   1.385  1.00  0.00     0.175 C 
BRANCH  27  28
HETATM   28  C   UNL     1      40.627 -13.730   0.578  1.00  0.00     0.256 C 
BRANCH  28  29
HETATM   29  N   UNL     1      40.485 -14.081  -0.889  1.00  0.00    -0.066 N 
HETATM   30  H   UNL     1      39.470 -14.143  -1.066  1.00  0.00     0.280 HD
HETATM   31  C   UNL     1      40.972 -12.985  -1.849  1.00  0.00     0.261 C 
HETATM   32  C   UNL     1      40.651 -13.390  -3.293  1.00  0.00     0.195 C 
HETATM   33  O   UNL     1      41.250 -14.653  -3.601  1.00  0.00    -0.388 OA
HETATM   34  C   UNL     1      40.732 -15.706  -2.783  1.00  0.00     0.195 C 
HETATM   35  C   UNL     1      41.052 -15.441  -1.307  1.00  0.00     0.261 C 
ENDBRANCH  28  29
ENDBRANCH  27  28
ENDBRANCH  10  27
TORSDOF 9
ENDMDL
MODEL 4
REMARK VINA RESULT:      -7.6      3.609      6.926
REMARK  9 active torsions:
REMARK  status: ('A' for Active; 'I' for Inactive)
REMARK    1  A    between atoms: N_5  and  C_6 
REMARK    2  A    between atoms: C_6  and  C_7 
REMARK    3  A    between atoms: C_7  and  O_8 
REMARK    4  A    between atoms: C_7  and  C_9 
REMARK    5  A    between atoms: C_9  and  O_10 
REMARK    6  A    between atoms: O_10  and  C_11 
REMARK    7  A    between atoms: N_23  and  C_24 
REMARK    8  A    between atoms: C_24  and  C_25 
REMARK    9  A    between atoms: C_25  and  N_26 
ROOT
HETATM    1  C   UNL     1      41.276 -17.063   6.096  1.00  0.00     0.002 A 
HETATM    2  C   UNL     1      41.692 -17.567   4.865  1.00  0.00     0.032 A 
HETATM    3  C   UNL     1      41.315 -16.868   3.732  1.00  0.00     0.079 A 
HETATM    4  C   UNL     1      40.536 -15.680   3.773  1.00  0.00     0.079 A 
HETATM    5  N   UNL     1      40.349 -15.219   2.462  1.00  0.00    -0.179 N 
HETATM    6  C   UNL     1      40.916 -16.228   1.610  1.00  0.00     0.681 A 
HETATM    7  N   UNL     1      40.809 -16.257   0.260  1.00  0.00    -0.234 N 
HETATM    8  H   UNL     1      41.143 -17.019  -0.313  1.00  0.00     0.174 HD
HETATM    9  H   UNL     1      40.318 -15.518  -0.234  1.00  0.00     0.174 HD
HETATM   10  N   UNL     1      41.576 -17.209   2.357  1.00  0.00    -0.180 N 
HETATM   11  C   UNL     1      40.122 -15.206   4.998  1.00  0.00     0.032 A 
HETATM   12  C   UNL     1      40.498 -15.898   6.158  1.00  0.00     0.002 A 
ENDROOT
BRANCH   5  13
HETATM   13  C   UNL     1      39.234 -14.361   2.026  1.00  0.00     0.181 C 
BRANCH  13  14
HETATM   14  C   UNL     1      39.430 -12.841   1.902  1.00  0.00     0.161 C 
BRANCH  14  15
HETATM   15  O   UNL     1      38.765 -12.192   2.989  1.00  0.00    -0.392 OA
HETATM   16  H   UNL     1      38.393 -11.355   2.640  1.00  0.00     0.210 HD
ENDBRANCH  14  15
BRANCH  14  17
HETATM   17  C   UNL     1      40.875 -12.348   1.767  1.00  0.00     0.209 C 
BRANCH  17  18
HETATM   18  O   UNL     1      41.182 -11.640   2.982  1.00  0.00    -0.347 OA
BRANCH  18  19
HETATM   19  C   UNL     1      41.950 -12.378   3.844  1.00  0.00     0.090 A 
HETATM   20  C   UNL     1      41.814 -12.200   5.227  1.00  0.00     0.069 A 
HETATM   21 CL   UNL     1      40.629 -11.124   5.873  1.00  0.00    -0.081 Cl
HETATM   22  C   UNL     1      42.624 -12.912   6.112  1.00  0.00     0.050 A 
HETATM   23  C   UNL     1      43.582 -13.785   5.604  1.00  0.00     0.035 A 
HETATM   24 CL   UNL     1      44.585 -14.671   6.684  1.00  0.00    -0.084 Cl
HETATM   25  C   UNL     1      43.740 -13.949   4.226  1.00  0.00     0.026 A 
HETATM   26  C   UNL     1      42.927 -13.238   3.342  1.00  0.00     0.040 A 
ENDBRANCH  18  19
ENDBRANCH  17  18
ENDBRANCH  14  17
ENDBRANCH  13  14
ENDBRANCH   5  13
BRANCH  10  27
HETATM   27  C   UNL     1      42.200 -18.463   1.902  1.00  0.00     0.175 C 
BRANCH  27  28
HETATM   28  C   UNL     1      43.735 -18.450   2.043  1.00  0.00     0.256 C 
BRANCH  28  29
HETATM   29  N   UNL     1      44.339 -19.742   2.552  1.00  0.00    -0.066 N 
HETATM   30  H   UNL     1      45.328 -19.725   2.258  1.00  0.00     0.280 HD
HETATM   31  C   UNL     1      44.399 -19.849   4.083  1.00  0.00     0.261 C 
HETATM   32  C   UNL     1      45.152 -21.126   4.478  1.00  0.00     0.195 C 
HETATM   33  O   UNL     1      44.521 -22.274   3.902  1.00  0.00    -0.388 OA
HETATM   34  C   UNL     1      44.547 -22.240   2.471  1.00  0.00     0.195 C 
HETATM   35  C   UNL     1      43.763 -21.029   1.953  1.00  0.00     0.261 C 
ENDBRANCH  28  29
ENDBRANCH  27  28
ENDBRANCH  10  27
TORSDOF 9
ENDMDL
MODEL 5
REMARK VINA RESULT:      -7.5      3.479      8.290
REMARK  9 active torsions:
REMARK  status: ('A' for Active; 'I' for Inactive)
REMARK    1  A    between atoms: N_5  and  C_6 
REMARK    2  A    between atoms: C_6  and  C_7 
REMARK    3  A    between atoms: C_7  and  O_8 
REMARK    4  A    between atoms: C_7  and  C_9 
REMARK    5  A    between atoms: C_9  and  O_10 
REMARK    6  A    between atoms: O_10  and  C_11 
REMARK    7  A    between atoms: N_23  and  C_24 
REMARK    8  A    between atoms: C_24  and  C_25 
REMARK    9  A    between atoms: C_25  and  N_26 
ROOT
HETATM    1  C   UNL     1      44.726 -20.842   4.205  1.00  0.00     0.002 A 
HETATM    2  C   UNL     1      44.470 -19.628   4.840  1.00  0.00     0.032 A 
HETATM    3  C   UNL     1      43.894 -18.624   4.081  1.00  0.00     0.079 A 
HETATM    4  C   UNL     1      43.560 -18.779   2.709  1.00  0.00     0.079 A 
HETATM    5  N   UNL     1      42.981 -17.587   2.249  1.00  0.00    -0.179 N 
HETATM    6  C   UNL     1      43.095 -16.654   3.336  1.00  0.00     0.681 A 
HETATM    7  N   UNL     1      42.803 -15.334   3.263  1.00  0.00    -0.234 N 
HETATM    8  H   UNL     1      42.969 -14.680   4.014  1.00  0.00     0.174 HD
HETATM    9  H   UNL     1      42.453 -14.931   2.399  1.00  0.00     0.174 HD
HETATM   10  N   UNL     1      43.581 -17.279   4.490  1.00  0.00    -0.180 N 
HETATM   11  C   UNL     1      43.835 -19.982   2.096  1.00  0.00     0.032 A 
HETATM   12  C   UNL     1      44.414 -21.013   2.850  1.00  0.00     0.002 A 
ENDROOT
BRANCH   5  13
HETATM   13  C   UNL     1      42.963 -17.153   0.841  1.00  0.00     0.181 C 
BRANCH  13  14
HETATM   14  C   UNL     1      41.634 -16.786   0.162  1.00  0.00     0.161 C 
BRANCH  14  15
HETATM   15  O   UNL     1      40.577 -17.540   0.762  1.00  0.00    -0.392 OA
HETATM   16  H   UNL     1      39.923 -16.896   1.105  1.00  0.00     0.210 HD
ENDBRANCH  14  15
BRANCH  14  17
HETATM   17  C   UNL     1      41.283 -15.295   0.108  1.00  0.00     0.209 C 
BRANCH  17  18
HETATM   18  O   UNL     1      40.672 -14.971   1.369  1.00  0.00    -0.347 OA
BRANCH  18  19
HETATM   19  C   UNL     1      39.673 -14.041   1.249  1.00  0.00     0.090 A 
HETATM   20  C   UNL     1      39.928 -12.699   1.562  1.00  0.00     0.069 A 
HETATM   21 CL   UNL     1      41.509 -12.176   2.015  1.00  0.00    -0.081 Cl
HETATM   22  C   UNL     1      38.905 -11.753   1.489  1.00  0.00     0.050 A 
HETATM   23  C   UNL     1      37.626 -12.161   1.122  1.00  0.00     0.035 A 
HETATM   24 CL   UNL     1      36.357 -11.004   1.025  1.00  0.00    -0.084 Cl
HETATM   25  C   UNL     1      37.359 -13.501   0.834  1.00  0.00     0.026 A 
HETATM   26  C   UNL     1      38.383 -14.447   0.904  1.00  0.00     0.040 A 
ENDBRANCH  18  19
ENDBRANCH  17  18
ENDBRANCH  14  17
ENDBRANCH  13  14
ENDBRANCH   5  13
BRANCH  10  27
HETATM   27  C   UNL     1      43.944 -16.683   5.786  1.00  0.00     0.175 C 
BRANCH  27  28
HETATM   28  C   UNL     1      42.731 -16.505   6.721  1.00  0.00     0.256 C 
BRANCH  28  29
HETATM   29  N   UNL     1      42.017 -15.175   6.591  1.00  0.00    -0.066 N 
HETATM   30  H   UNL     1      41.797 -14.879   7.555  1.00  0.00     0.280 HD
HETATM   31  C   UNL     1      42.891 -14.042   6.036  1.00  0.00     0.261 C 
HETATM   32  C   UNL     1      42.110 -12.722   6.082  1.00  0.00     0.195 C 
HETATM   33  O   UNL     1      40.888 -12.842   5.348  1.00  0.00    -0.388 OA
HETATM   34  C   UNL     1      40.015 -13.824   5.914  1.00  0.00     0.195 C 
HETATM   35  C   UNL     1      40.670 -15.210   5.863  1.00  0.00     0.261 C 
ENDBRANCH  28  29
ENDBRANCH  27  28
ENDBRANCH  10  27
TORSDOF 9
ENDMDL
MODEL 6
REMARK VINA RESULT:      -7.4      5.398      9.242
REMARK  9 active torsions:
REMARK  status: ('A' for Active; 'I' for Inactive)
REMARK    1  A    between atoms: N_5  and  C_6 
REMARK    2  A    between atoms: C_6  and  C_7 
REMARK    3  A    between atoms: C_7  and  O_8 
REMARK    4  A    between atoms: C_7  and  C_9 
REMARK    5  A    between atoms: C_9  and  O_10 
REMARK    6  A    between atoms: O_10  and  C_11 
REMARK    7  A    between atoms: N_23  and  C_24 
REMARK    8  A    between atoms: C_24  and  C_25 
REMARK    9  A    between atoms: C_25  and  N_26 
ROOT
HETATM    1  C   UNL     1      41.140 -16.992   2.970  1.00  0.00     0.002 A 
HETATM    2  C   UNL     1      42.080 -17.123   3.991  1.00  0.00     0.032 A 
HETATM    3  C   UNL     1      42.301 -16.019   4.796  1.00  0.00     0.079 A 
HETATM    4  C   UNL     1      41.620 -14.784   4.627  1.00  0.00     0.079 A 
HETATM    5  N   UNL     1      42.062 -13.889   5.614  1.00  0.00    -0.179 N 
HETATM    6  C   UNL     1      43.127 -14.563   6.302  1.00  0.00     0.681 A 
HETATM    7  N   UNL     1      43.939 -13.996   7.226  1.00  0.00    -0.234 N 
HETATM    8  H   UNL     1      44.734 -14.464   7.637  1.00  0.00     0.174 HD
HETATM    9  H   UNL     1      43.808 -13.027   7.501  1.00  0.00     0.174 HD
HETATM   10  N   UNL     1      43.247 -15.890   5.874  1.00  0.00    -0.180 N 
HETATM   11  C   UNL     1      40.706 -14.670   3.604  1.00  0.00     0.032 A 
HETATM   12  C   UNL     1      40.465 -15.778   2.780  1.00  0.00     0.002 A 
ENDROOT
BRANCH   5  13
HETATM   13  C   UNL     1      42.008 -12.421   5.498  1.00  0.00     0.181 C 
BRANCH  13  14
HETATM   14  C   UNL     1      41.100 -11.604   6.433  1.00  0.00     0.161 C 
BRANCH  14  15
HETATM   15  O   UNL     1      40.285 -12.500   7.195  1.00  0.00    -0.392 OA
HETATM   16  H   UNL     1      40.856 -12.884   7.893  1.00  0.00     0.210 HD
ENDBRANCH  14  15
BRANCH  14  17
HETATM   17  C   UNL     1      41.796 -10.586   7.342  1.00  0.00     0.209 C 
BRANCH  17  18
HETATM   18  O   UNL     1      42.807 -11.308   8.068  1.00  0.00    -0.347 OA
BRANCH  18  19
HETATM   19  C   UNL     1      42.968 -10.847   9.349  1.00  0.00     0.090 A 
HETATM   20  C   UNL     1      44.228 -10.909   9.960  1.00  0.00     0.069 A 
HETATM   21 CL   UNL     1      45.609 -11.479   9.095  1.00  0.00    -0.081 Cl
HETATM   22  C   UNL     1      44.392 -10.487  11.279  1.00  0.00     0.050 A 
HETATM   23  C   UNL     1      43.287 -10.024  11.987  1.00  0.00     0.035 A 
HETATM   24 CL   UNL     1      43.477  -9.497  13.614  1.00  0.00    -0.084 Cl
HETATM   25  C   UNL     1      42.024  -9.983  11.393  1.00  0.00     0.026 A 
HETATM   26  C   UNL     1      41.861 -10.403  10.072  1.00  0.00     0.040 A 
ENDBRANCH  18  19
ENDBRANCH  17  18
ENDBRANCH  14  17
ENDBRANCH  13  14
ENDBRANCH   5  13
BRANCH  10  27
HETATM   27  C   UNL     1      44.259 -16.896   6.236  1.00  0.00     0.175 C 
BRANCH  27  28
HETATM   28  C   UNL     1      43.638 -18.249   6.635  1.00  0.00     0.256 C 
BRANCH  28  29
HETATM   29  N   UNL     1      44.310 -19.463   6.026  1.00  0.00    -0.066 N 
HETATM   30  H   UNL     1      45.281 -19.450   6.372  1.00  0.00     0.280 HD
HETATM   31  C   UNL     1      43.749 -20.806   6.517  1.00  0.00     0.261 C 
HETATM   32  C   UNL     1      44.593 -21.953   5.945  1.00  0.00     0.195 C 
HETATM   33  O   UNL     1      44.613 -21.891   4.516  1.00  0.00    -0.388 OA
HETATM   34  C   UNL     1      45.226 -20.689   4.039  1.00  0.00     0.195 C 
HETATM   35  C   UNL     1      44.426 -19.465   4.498  1.00  0.00     0.261 C 
ENDBRANCH  28  29
ENDBRANCH  27  28
ENDBRANCH  10  27
TORSDOF 9
ENDMDL
MODEL 7
REMARK VINA RESULT:      -7.4      3.697      8.351
REMARK  9 active torsions:
REMARK  status: ('A' for Active; 'I' for Inactive)
REMARK    1  A    between atoms: N_5  and  C_6 
REMARK    2  A    between atoms: C_6  and  C_7 
REMARK    3  A    between atoms: C_7  and  O_8 
REMARK    4  A    between atoms: C_7  and  C_9 
REMARK    5  A    between atoms: C_9  and  O_10 
REMARK    6  A    between atoms: O_10  and  C_11 
REMARK    7  A    between atoms: N_23  and  C_24 
REMARK    8  A    between atoms: C_24  and  C_25 
REMARK    9  A    between atoms: C_25  and  N_26 
ROOT
HETATM    1  C   UNL     1      44.674 -20.645   4.347  1.00  0.00     0.002 A 
HETATM    2  C   UNL     1      44.437 -19.401   4.929  1.00  0.00     0.032 A 
HETATM    3  C   UNL     1      43.891 -18.418   4.123  1.00  0.00     0.079 A 
HETATM    4  C   UNL     1      43.568 -18.622   2.755  1.00  0.00     0.079 A 
HETATM    5  N   UNL     1      43.019 -17.438   2.240  1.00  0.00    -0.179 N 
HETATM    6  C   UNL     1      43.142 -16.464   3.290  1.00  0.00     0.681 A 
HETATM    7  N   UNL     1      42.878 -15.142   3.159  1.00  0.00    -0.234 N 
HETATM    8  H   UNL     1      43.051 -14.462   3.885  1.00  0.00     0.174 HD
HETATM    9  H   UNL     1      42.546 -14.768   2.276  1.00  0.00     0.174 HD
HETATM   10  N   UNL     1      43.602 -17.051   4.473  1.00  0.00    -0.180 N 
HETATM   11  C   UNL     1      43.823 -19.854   2.195  1.00  0.00     0.032 A 
HETATM   12  C   UNL     1      44.373 -20.865   2.996  1.00  0.00     0.002 A 
ENDROOT
BRANCH   5  13
HETATM   13  C   UNL     1      43.025 -17.062   0.816  1.00  0.00     0.181 C 
BRANCH  13  14
HETATM   14  C   UNL     1      41.714 -16.672   0.114  1.00  0.00     0.161 C 
BRANCH  14  15
HETATM   15  O   UNL     1      40.639 -17.432   0.672  1.00  0.00    -0.392 OA
HETATM   16  H   UNL     1      40.997 -18.320   0.888  1.00  0.00     0.210 HD
ENDBRANCH  14  15
BRANCH  14  17
HETATM   17  C   UNL     1      41.373 -15.178   0.084  1.00  0.00     0.209 C 
BRANCH  17  18
HETATM   18  O   UNL     1      40.551 -14.967  -1.078  1.00  0.00    -0.347 OA
BRANCH  18  19
HETATM   19  C   UNL     1      41.008 -13.947  -1.871  1.00  0.00     0.090 A 
HETATM   20  C   UNL     1      40.360 -13.658  -3.079  1.00  0.00     0.069 A 
HETATM   21 CL   UNL     1      38.936 -14.512  -3.551  1.00  0.00    -0.081 Cl
HETATM   22  C   UNL     1      40.845 -12.653  -3.916  1.00  0.00     0.050 A 
HETATM   23  C   UNL     1      41.992 -11.955  -3.546  1.00  0.00     0.035 A 
HETATM   24 CL   UNL     1      42.599 -10.712  -4.567  1.00  0.00    -0.084 Cl
HETATM   25  C   UNL     1      42.657 -12.255  -2.355  1.00  0.00     0.026 A 
HETATM   26  C   UNL     1      42.169 -13.259  -1.517  1.00  0.00     0.040 A 
ENDBRANCH  18  19
ENDBRANCH  17  18
ENDBRANCH  14  17
ENDBRANCH  13  14
ENDBRANCH   5  13
BRANCH  10  27
HETATM   27  C   UNL     1      43.965 -16.410   5.748  1.00  0.00     0.175 C 
BRANCH  27  28
HETATM   28  C   UNL     1      42.762 -16.258   6.702  1.00  0.00     0.256 C 
BRANCH  28  29
HETATM   29  N   UNL     1      41.966 -14.982   6.525  1.00  0.00    -0.066 N 
HETATM   30  H   UNL     1      41.674 -14.699   7.473  1.00  0.00     0.280 HD
HETATM   31  C   UNL     1      42.789 -13.792   6.009  1.00  0.00     0.261 C 
HETATM   32  C   UNL     1      41.917 -12.530   6.004  1.00  0.00     0.195 C 
HETATM   33  O   UNL     1      40.747 -12.737   5.206  1.00  0.00    -0.388 OA
HETATM   34  C   UNL     1      39.915 -13.776   5.731  1.00  0.00     0.195 C 
HETATM   35  C   UNL     1      40.666 -15.113   5.725  1.00  0.00     0.261 C 
ENDBRANCH  28  29
ENDBRANCH  27  28
ENDBRANCH  10  27
TORSDOF 9
ENDMDL
MODEL 8
REMARK VINA RESULT:      -7.3      3.732      7.123
REMARK  9 active torsions:
REMARK  status: ('A' for Active; 'I' for Inactive)
REMARK    1  A    between atoms: N_5  and  C_6 
REMARK    2  A    between atoms: C_6  and  C_7 
REMARK    3  A    between atoms: C_7  and  O_8 
REMARK    4  A    between atoms: C_7  and  C_9 
REMARK    5  A    between atoms: C_9  and  O_10 
REMARK    6  A    between atoms: O_10  and  C_11 
REMARK    7  A    between atoms: N_23  and  C_24 
REMARK    8  A    between atoms: C_24  and  C_25 
REMARK    9  A    between atoms: C_25  and  N_26 
ROOT
HETATM    1  C   UNL     1      39.062 -10.329   2.883  1.00  0.00     0.002 A 
HETATM    2  C   UNL     1      39.742 -10.207   4.093  1.00  0.00     0.032 A 
HETATM    3  C   UNL     1      40.644 -11.205   4.417  1.00  0.00     0.079 A 
HETATM    4  C   UNL     1      40.900 -12.325   3.582  1.00  0.00     0.079 A 
HETATM    5  N   UNL     1      41.875 -13.128   4.192  1.00  0.00    -0.179 N 
HETATM    6  C   UNL     1      42.107 -12.544   5.485  1.00  0.00     0.681 A 
HETATM    7  N   UNL     1      42.860 -13.097   6.465  1.00  0.00    -0.234 N 
HETATM    8  H   UNL     1      42.942 -12.711   7.394  1.00  0.00     0.174 HD
HETATM    9  H   UNL     1      43.334 -13.982   6.313  1.00  0.00     0.174 HD
HETATM   10  N   UNL     1      41.425 -11.330   5.621  1.00  0.00    -0.180 N 
HETATM   11  C   UNL     1      40.207 -12.435   2.397  1.00  0.00     0.032 A 
HETATM   12  C   UNL     1      39.291 -11.431   2.048  1.00  0.00     0.002 A 
ENDROOT
BRANCH   5  13
HETATM   13  C   UNL     1      42.051 -14.569   3.940  1.00  0.00     0.181 C 
BRANCH  13  14
HETATM   14  C   UNL     1      41.048 -15.583   4.514  1.00  0.00     0.161 C 
BRANCH  14  15
HETATM   15  O   UNL     1      39.966 -15.745   3.592  1.00  0.00    -0.392 OA
HETATM   16  H   UNL     1      39.203 -16.092   4.103  1.00  0.00     0.210 HD
ENDBRANCH  14  15
BRANCH  14  17
HETATM   17  C   UNL     1      41.616 -16.941   4.938  1.00  0.00     0.209 C 
BRANCH  17  18
HETATM   18  O   UNL     1      42.986 -16.968   4.498  1.00  0.00    -0.347 OA
BRANCH  18  19
HETATM   19  C   UNL     1      43.324 -18.151   3.895  1.00  0.00     0.090 A 
HETATM   20  C   UNL     1      44.265 -18.998   4.496  1.00  0.00     0.069 A 
HETATM   21 CL   UNL     1      44.948 -18.618   6.035  1.00  0.00    -0.081 Cl
HETATM   22  C   UNL     1      44.652 -20.181   3.866  1.00  0.00     0.050 A 
HETATM   23  C   UNL     1      44.107 -20.500   2.626  1.00  0.00     0.035 A 
HETATM   24 CL   UNL     1      44.572 -21.958   1.840  1.00  0.00    -0.084 Cl
HETATM   25  C   UNL     1      43.188 -19.649   2.009  1.00  0.00     0.026 A 
HETATM   26  C   UNL     1      42.799 -18.466   2.641  1.00  0.00     0.040 A 
ENDBRANCH  18  19
ENDBRANCH  17  18
ENDBRANCH  14  17
ENDBRANCH  13  14
ENDBRANCH   5  13
BRANCH  10  27
HETATM   27  C   UNL     1      41.302 -10.461   6.803  1.00  0.00     0.175 C 
BRANCH  27  28
HETATM   28  C   UNL     1      40.286 -10.994   7.832  1.00  0.00     0.256 C 
BRANCH  28  29
HETATM   29  N   UNL     1      40.849 -11.236   9.218  1.00  0.00    -0.066 N 
HETATM   30  H   UNL     1      40.918 -12.260   9.318  1.00  0.00     0.280 HD
HETATM   31  C   UNL     1      42.289 -10.737   9.408  1.00  0.00     0.261 C 
HETATM   32  C   UNL     1      42.798 -11.159  10.792  1.00  0.00     0.195 C 
HETATM   33  O   UNL     1      41.934 -10.654  11.816  1.00  0.00    -0.388 OA
HETATM   34  C   UNL     1      40.611 -11.189  11.714  1.00  0.00     0.195 C 
HETATM   35  C   UNL     1      39.970 -10.774  10.384  1.00  0.00     0.261 C 
ENDBRANCH  28  29
ENDBRANCH  27  28
ENDBRANCH  10  27
TORSDOF 9
ENDMDL
MODEL 9
REMARK VINA RESULT:      -7.1      2.961      4.485
REMARK  9 active torsions:
REMARK  status: ('A' for Active; 'I' for Inactive)
REMARK    1  A    between atoms: N_5  and  C_6 
REMARK    2  A    between atoms: C_6  and  C_7 
REMARK    3  A    between atoms: C_7  and  O_8 
REMARK    4  A    between atoms: C_7  and  C_9 
REMARK    5  A    between atoms: C_9  and  O_10 
REMARK    6  A    between atoms: O_10  and  C_11 
REMARK    7  A    between atoms: N_23  and  C_24 
REMARK    8  A    between atoms: C_24  and  C_25 
REMARK    9  A    between atoms: C_25  and  N_26 
ROOT
HETATM    1  C   UNL     1      39.328 -14.706  -3.514  1.00  0.00     0.002 A 
HETATM    2  C   UNL     1      39.186 -13.705  -2.555  1.00  0.00     0.032 A 
HETATM    3  C   UNL     1      39.950 -13.815  -1.406  1.00  0.00     0.079 A 
HETATM    4  C   UNL     1      40.855 -14.885  -1.172  1.00  0.00     0.079 A 
HETATM    5  N   UNL     1      41.478 -14.684   0.069  1.00  0.00    -0.179 N 
HETATM    6  C   UNL     1      40.831 -13.539   0.648  1.00  0.00     0.681 A 
HETATM    7  N   UNL     1      41.018 -13.096   1.914  1.00  0.00    -0.234 N 
HETATM    8  H   UNL     1      40.492 -12.340   2.328  1.00  0.00     0.174 HD
HETATM    9  H   UNL     1      41.673 -13.566   2.532  1.00  0.00     0.174 HD
HETATM   10  N   UNL     1      39.946 -12.945  -0.258  1.00  0.00    -0.180 N 
HETATM   11  C   UNL     1      40.969 -15.872  -2.126  1.00  0.00     0.032 A 
HETATM   12  C   UNL     1      40.207 -15.776  -3.299  1.00  0.00     0.002 A 
ENDROOT
BRANCH   5  13
HETATM   13  C   UNL     1      42.066 -15.753   0.894  1.00  0.00     0.181 C 
BRANCH  13  14
HETATM   14  C   UNL     1      41.167 -16.625   1.786  1.00  0.00     0.161 C 
BRANCH  14  15
HETATM   15  O   UNL     1      40.586 -17.663   0.992  1.00  0.00    -0.392 OA
HETATM   16  H   UNL     1      41.284 -17.984   0.383  1.00  0.00     0.210 HD
ENDBRANCH  14  15
BRANCH  14  17
HETATM   17  C   UNL     1      41.811 -17.197   3.053  1.00  0.00     0.209 C 
BRANCH  17  18
HETATM   18  O   UNL     1      43.196 -17.431   2.740  1.00  0.00    -0.347 OA
BRANCH  18  19
HETATM   19  C   UNL     1      43.571 -18.734   2.940  1.00  0.00     0.090 A 
HETATM   20  C   UNL     1      44.191 -19.106   4.140  1.00  0.00     0.069 A 
HETATM   21 CL   UNL     1      44.415 -17.966   5.416  1.00  0.00    -0.081 Cl
HETATM   22  C   UNL     1      44.619 -20.419   4.334  1.00  0.00     0.050 A 
HETATM   23  C   UNL     1      44.442 -21.350   3.313  1.00  0.00     0.035 A 
HETATM   24 CL   UNL     1      44.963 -22.973   3.540  1.00  0.00    -0.084 Cl
HETATM   25  C   UNL     1      43.848 -20.980   2.105  1.00  0.00     0.026 A 
HETATM   26  C   UNL     1      43.417 -19.666   1.913  1.00  0.00     0.040 A 
ENDBRANCH  18  19
ENDBRANCH  17  18
ENDBRANCH  14  17
ENDBRANCH  13  14
ENDBRANCH   5  13
BRANCH  10  27
HETATM   27  C   UNL     1      39.012 -11.826  -0.049  1.00  0.00     0.175 C 
BRANCH  27  28
HETATM   28  C   UNL     1      39.607 -10.467  -0.466  1.00  0.00     0.256 C 
BRANCH  28  29
HETATM   29  N   UNL     1      40.964 -10.543  -1.136  1.00  0.00    -0.066 N 
HETATM   30  H   UNL     1      41.191 -11.548  -1.196  1.00  0.00     0.280 HD
HETATM   31  C   UNL     1      40.974 -10.064  -2.595  1.00  0.00     0.261 C 
HETATM   32  C   UNL     1      42.357 -10.318  -3.208  1.00  0.00     0.195 C 
HETATM   33  O   UNL     1      43.371  -9.662  -2.440  1.00  0.00    -0.388 OA
HETATM   34  C   UNL     1      43.444 -10.169  -1.104  1.00  0.00     0.195 C 
HETATM   35  C   UNL     1      42.126  -9.912  -0.363  1.00  0.00     0.261 C 
ENDBRANCH  28  29
ENDBRANCH  27  28
ENDBRANCH  10  27
TORSDOF 9
ENDMDL
MODEL 10
REMARK VINA RESULT:      -7.1      4.783      8.347
REMARK  9 active torsions:
REMARK  status: ('A' for Active; 'I' for Inactive)
REMARK    1  A    between atoms: N_5  and  C_6 
REMARK    2  A    between atoms: C_6  and  C_7 
REMARK    3  A    between atoms: C_7  and  O_8 
REMARK    4  A    between atoms: C_7  and  C_9 
REMARK    5  A    between atoms: C_9  and  O_10 
REMARK    6  A    between atoms: O_10  and  C_11 
REMARK    7  A    between atoms: N_23  and  C_24 
REMARK    8  A    between atoms: C_24  and  C_25 
REMARK    9  A    between atoms: C_25  and  N_26 
ROOT
HETATM    1  C   UNL     1      45.200 -13.187   7.895  1.00  0.00     0.002 A 
HETATM    2  C   UNL     1      44.179 -12.250   8.039  1.00  0.00     0.032 A 
HETATM    3  C   UNL     1      43.081 -12.373   7.206  1.00  0.00     0.079 A 
HETATM    4  C   UNL     1      42.956 -13.398   6.231  1.00  0.00     0.079 A 
HETATM    5  N   UNL     1      41.724 -13.248   5.576  1.00  0.00    -0.179 N 
HETATM    6  C   UNL     1      41.162 -12.025   6.082  1.00  0.00     0.681 A 
HETATM    7  N   UNL     1      40.049 -11.423   5.599  1.00  0.00    -0.234 N 
HETATM    8  H   UNL     1      39.718 -10.522   5.914  1.00  0.00     0.174 HD
HETATM    9  H   UNL     1      39.526 -11.841   4.836  1.00  0.00     0.174 HD
HETATM   10  N   UNL     1      41.932 -11.509   7.129  1.00  0.00    -0.180 N 
HETATM   11  C   UNL     1      43.982 -14.306   6.093  1.00  0.00     0.032 A 
HETATM   12  C   UNL     1      45.101 -14.200   6.931  1.00  0.00     0.002 A 
ENDROOT
BRANCH   5  13
HETATM   13  C   UNL     1      41.428 -13.746   4.222  1.00  0.00     0.181 C 
BRANCH  13  14
HETATM   14  C   UNL     1      41.096 -15.231   3.999  1.00  0.00     0.161 C 
BRANCH  14  15
HETATM   15  O   UNL     1      39.813 -15.335   3.375  1.00  0.00    -0.392 OA
HETATM   16  H   UNL     1      39.262 -15.911   3.946  1.00  0.00     0.210 HD
ENDBRANCH  14  15
BRANCH  14  17
HETATM   17  C   UNL     1      42.142 -16.059   3.248  1.00  0.00     0.209 C 
BRANCH  17  18
HETATM   18  O   UNL     1      42.766 -16.915   4.222  1.00  0.00    -0.347 OA
BRANCH  18  19
HETATM   19  C   UNL     1      43.171 -18.112   3.692  1.00  0.00     0.090 A 
HETATM   20  C   UNL     1      44.184 -18.847   4.322  1.00  0.00     0.069 A 
HETATM   21 CL   UNL     1      44.878 -18.312   5.808  1.00  0.00    -0.081 Cl
HETATM   22  C   UNL     1      44.636 -20.043   3.764  1.00  0.00     0.050 A 
HETATM   23  C   UNL     1      44.083 -20.487   2.566  1.00  0.00     0.035 A 
HETATM   24 CL   UNL     1      44.629 -21.962   1.871  1.00  0.00    -0.084 Cl
HETATM   25  C   UNL     1      43.090 -19.747   1.921  1.00  0.00     0.026 A 
HETATM   26  C   UNL     1      42.636 -18.552   2.481  1.00  0.00     0.040 A 
ENDBRANCH  18  19
ENDBRANCH  17  18
ENDBRANCH  14  17
ENDBRANCH  13  14
ENDBRANCH   5  13
BRANCH  10  27
HETATM   27  C   UNL     1      41.780 -10.238   7.855  1.00  0.00     0.175 C 
BRANCH  27  28
HETATM   28  C   UNL     1      41.008 -10.397   9.181  1.00  0.00     0.256 C 
BRANCH  28  29
HETATM   29  N   UNL     1      41.768  -9.962  10.417  1.00  0.00    -0.066 N 
HETATM   30  H   UNL     1      42.391  -9.199  10.110  1.00  0.00     0.280 HD
HETATM   31  C   UNL     1      40.891  -9.322  11.503  1.00  0.00     0.261 C 
HETATM   32  C   UNL     1      41.781  -8.797  12.637  1.00  0.00     0.195 C 
HETATM   33  O   UNL     1      42.581  -9.856  13.173  1.00  0.00    -0.388 OA
HETATM   34  C   UNL     1      43.479 -10.396  12.199  1.00  0.00     0.195 C 
HETATM   35  C   UNL     1      42.694 -11.014  11.036  1.00  0.00     0.261 C 
ENDBRANCH  28  29
ENDBRANCH  27  28
ENDBRANCH  10  27
TORSDOF 9
ENDMDL
