MODEL 1
REMARK VINA RESULT:      -8.6      0.000      0.000
REMARK  7 active torsions:
REMARK  status: ('A' for Active; 'I' for Inactive)
REMARK    1  A    between atoms: O_2  and  C_3 
REMARK    2  A    between atoms: C_5  and  C_6 
REMARK    3  A    between atoms: C_6  and  O_7 
REMARK    4  A    between atoms: C_6  and  C_8 
REMARK    5  A    between atoms: C_8  and  N_9 
REMARK       I    between atoms: N_9  and  C_10 
REMARK    6  A    between atoms: C_10  and  C_11 
REMARK    7  A    between atoms: C_12  and  C_13 
ROOT
HETATM    1  C   UNL     1      39.863 -13.539   2.877  1.00  0.00     0.089 C 
HETATM    2  C   UNL     1      39.647 -13.565   4.411  1.00  0.00     0.068 C 
HETATM    3  C   UNL     1      39.631 -12.138   4.999  1.00  0.00     0.013 C 
HETATM    4  C   UNL     1      38.650 -11.218   4.286  1.00  0.00     0.001 C 
HETATM    5  C   UNL     1      38.931 -11.171   2.791  1.00  0.00     0.001 C 
HETATM    6  C   UNL     1      38.882 -12.569   2.192  1.00  0.00     0.015 C 
ENDROOT
BRANCH   1   7
HETATM    7  C   UNL     1      39.684 -14.930   2.262  1.00  0.00     0.222 C 
HETATM    8  N   UNL     1      40.816 -15.713   2.275  1.00  0.00    -0.358 N 
HETATM    9  H   UNL     1      41.582 -15.420   2.886  1.00  0.00     0.162 HD
HETATM   10  O   UNL     1      38.621 -15.328   1.795  1.00  0.00    -0.273 OA
BRANCH   8  11
HETATM   11  C   UNL     1      40.783 -17.101   1.833  1.00  0.00     0.159 C 
BRANCH  11  12
HETATM   12  C   UNL     1      42.105 -17.524   1.163  1.00  0.00     0.169 C 
BRANCH  12  13
HETATM   13  C   UNL     1      42.937 -18.395   2.079  1.00  0.00    -0.025 A 
HETATM   14  C   UNL     1      43.263 -19.720   1.736  1.00  0.00     0.046 A 
HETATM   15  C   UNL     1      44.059 -20.501   2.577  1.00  0.00     0.068 A 
HETATM   16  C   UNL     1      44.534 -19.953   3.770  1.00  0.00     0.037 A 
HETATM   17  C   UNL     1      44.223 -18.641   4.124  1.00  0.00     0.003 A 
HETATM   18  C   UNL     1      43.431 -17.864   3.280  1.00  0.00     0.010 A 
BRANCH  15  19
HETATM   19  O   UNL     1      44.444 -21.794   2.349  1.00  0.00    -0.356 OA
HETATM   20  C   UNL     1      44.698 -22.598   3.495  1.00  0.00     0.210 C 
ENDBRANCH  15  19
ENDBRANCH  12  13
BRANCH  12  21
HETATM   21  O   UNL     1      42.846 -16.347   0.812  1.00  0.00    -0.389 OA
HETATM   22  H   UNL     1      43.559 -16.665   0.229  1.00  0.00     0.210 HD
ENDBRANCH  12  21
ENDBRANCH  11  12
ENDBRANCH   8  11
ENDBRANCH   1   7
BRANCH   2  23
HETATM   23  C   UNL     1      40.704 -14.360   5.132  1.00  0.00     0.110 A 
HETATM   24  N   UNL     1      40.558 -15.540   5.706  1.00  0.00    -0.233 NA
HETATM   25  C   UNL     1      41.798 -15.875   6.194  1.00  0.00     0.087 A 
HETATM   26  C   UNL     1      42.721 -14.871   5.928  1.00  0.00     0.062 A 
HETATM   27  C   UNL     1      42.206 -17.026   6.880  1.00  0.00     0.057 A 
HETATM   28  N   UNL     1      41.998 -13.912   5.265  1.00  0.00    -0.342 N 
HETATM   29  C   UNL     1      44.064 -14.942   6.303  1.00  0.00     0.034 A 
HETATM   30  H   UNL     1      42.358 -13.036   4.913  1.00  0.00     0.167 HD
HETATM   31  C   UNL     1      44.461 -16.100   6.983  1.00  0.00     0.026 A 
HETATM   32  C   UNL     1      43.547 -17.119   7.266  1.00  0.00     0.036 A 
HETATM   33 CL   UNL     1      44.084 -18.522   8.109  1.00  0.00    -0.084 Cl
ENDBRANCH   2  23
TORSDOF 7
ENDMDL
MODEL 2
REMARK VINA RESULT:      -8.5      3.101      7.474
REMARK  7 active torsions:
REMARK  status: ('A' for Active; 'I' for Inactive)
REMARK    1  A    between atoms: O_2  and  C_3 
REMARK    2  A    between atoms: C_5  and  C_6 
REMARK    3  A    between atoms: C_6  and  O_7 
REMARK    4  A    between atoms: C_6  and  C_8 
REMARK    5  A    between atoms: C_8  and  N_9 
REMARK       I    between atoms: N_9  and  C_10 
REMARK    6  A    between atoms: C_10  and  C_11 
REMARK    7  A    between atoms: C_12  and  C_13 
ROOT
HETATM    1  C   UNL     1      43.645 -18.360   3.919  1.00  0.00     0.089 C 
HETATM    2  C   UNL     1      42.552 -18.762   2.897  1.00  0.00     0.068 C 
HETATM    3  C   UNL     1      43.139 -19.621   1.757  1.00  0.00     0.013 C 
HETATM    4  C   UNL     1      43.930 -20.817   2.267  1.00  0.00     0.001 C 
HETATM    5  C   UNL     1      45.032 -20.377   3.219  1.00  0.00     0.001 C 
HETATM    6  C   UNL     1      44.453 -19.587   4.383  1.00  0.00     0.015 C 
ENDROOT
BRANCH   1   7
HETATM    7  C   UNL     1      43.040 -17.678   5.149  1.00  0.00     0.222 C 
HETATM    8  N   UNL     1      43.920 -16.900   5.866  1.00  0.00    -0.358 N 
HETATM    9  H   UNL     1      44.799 -16.646   5.410  1.00  0.00     0.162 HD
HETATM   10  O   UNL     1      41.864 -17.806   5.478  1.00  0.00    -0.273 OA
BRANCH   8  11
HETATM   11  C   UNL     1      43.473 -16.095   6.995  1.00  0.00     0.159 C 
BRANCH  11  12
HETATM   12  C   UNL     1      43.760 -14.596   6.783  1.00  0.00     0.169 C 
BRANCH  12  13
HETATM   13  C   UNL     1      43.026 -14.057   5.575  1.00  0.00    -0.025 A 
HETATM   14  C   UNL     1      41.678 -13.661   5.650  1.00  0.00     0.046 A 
HETATM   15  C   UNL     1      41.023 -13.135   4.534  1.00  0.00     0.068 A 
HETATM   16  C   UNL     1      41.722 -13.002   3.333  1.00  0.00     0.037 A 
HETATM   17  C   UNL     1      43.059 -13.387   3.241  1.00  0.00     0.003 A 
HETATM   18  C   UNL     1      43.709 -13.908   4.358  1.00  0.00     0.010 A 
BRANCH  15  19
HETATM   19  O   UNL     1      39.722 -12.714   4.488  1.00  0.00    -0.356 OA
HETATM   20  C   UNL     1      39.096 -12.432   5.733  1.00  0.00     0.210 C 
ENDBRANCH  15  19
ENDBRANCH  12  13
BRANCH  12  21
HETATM   21  O   UNL     1      45.172 -14.411   6.612  1.00  0.00    -0.389 OA
HETATM   22  H   UNL     1      45.422 -15.035   5.906  1.00  0.00     0.210 HD
ENDBRANCH  12  21
ENDBRANCH  11  12
ENDBRANCH   8  11
ENDBRANCH   1   7
BRANCH   2  23
HETATM   23  C   UNL     1      41.864 -17.570   2.284  1.00  0.00     0.110 A 
HETATM   24  N   UNL     1      42.301 -16.828   1.283  1.00  0.00    -0.233 NA
HETATM   25  C   UNL     1      41.320 -15.893   1.055  1.00  0.00     0.087 A 
HETATM   26  C   UNL     1      40.267 -16.054   1.947  1.00  0.00     0.062 A 
HETATM   27  C   UNL     1      41.268 -14.870   0.099  1.00  0.00     0.057 A 
HETATM   28  N   UNL     1      40.643 -17.118   2.727  1.00  0.00    -0.342 N 
HETATM   29  C   UNL     1      39.128 -15.247   1.945  1.00  0.00     0.034 A 
HETATM   30  H   UNL     1      40.105 -17.517   3.483  1.00  0.00     0.167 HD
HETATM   31  C   UNL     1      39.085 -14.232   0.981  1.00  0.00     0.026 A 
HETATM   32  C   UNL     1      40.137 -14.049   0.079  1.00  0.00     0.036 A 
HETATM   33 CL   UNL     1      40.037 -12.783  -1.085  1.00  0.00    -0.084 Cl
ENDBRANCH   2  23
TORSDOF 7
ENDMDL
MODEL 3
REMARK VINA RESULT:      -8.5      3.108      7.616
REMARK  7 active torsions:
REMARK  status: ('A' for Active; 'I' for Inactive)
REMARK    1  A    between atoms: O_2  and  C_3 
REMARK    2  A    between atoms: C_5  and  C_6 
REMARK    3  A    between atoms: C_6  and  O_7 
REMARK    4  A    between atoms: C_6  and  C_8 
REMARK    5  A    between atoms: C_8  and  N_9 
REMARK       I    between atoms: N_9  and  C_10 
REMARK    6  A    between atoms: C_10  and  C_11 
REMARK    7  A    between atoms: C_12  and  C_13 
ROOT
HETATM    1  C   UNL     1      43.497 -17.997   3.710  1.00  0.00     0.089 C 
HETATM    2  C   UNL     1      42.365 -18.504   2.782  1.00  0.00     0.068 C 
HETATM    3  C   UNL     1      42.915 -19.445   1.689  1.00  0.00     0.013 C 
HETATM    4  C   UNL     1      43.757 -20.579   2.256  1.00  0.00     0.001 C 
HETATM    5  C   UNL     1      44.894 -20.040   3.112  1.00  0.00     0.001 C 
HETATM    6  C   UNL     1      44.354 -19.165   4.234  1.00  0.00     0.015 C 
ENDROOT
BRANCH   1   7
HETATM    7  C   UNL     1      42.937 -17.225   4.908  1.00  0.00     0.222 C 
HETATM    8  N   UNL     1      42.999 -15.855   4.788  1.00  0.00    -0.358 N 
HETATM    9  H   UNL     1      43.173 -15.474   3.856  1.00  0.00     0.162 HD
HETATM   10  O   UNL     1      42.465 -17.773   5.900  1.00  0.00    -0.273 OA
BRANCH   8  11
HETATM   11  C   UNL     1      42.404 -14.979   5.790  1.00  0.00     0.159 C 
BRANCH  11  12
HETATM   12  C   UNL     1      40.932 -14.657   5.471  1.00  0.00     0.169 C 
BRANCH  12  13
HETATM   13  C   UNL     1      40.816 -13.565   4.430  1.00  0.00    -0.025 A 
HETATM   14  C   UNL     1      41.760 -13.434   3.395  1.00  0.00     0.046 A 
HETATM   15  C   UNL     1      41.622 -12.441   2.422  1.00  0.00     0.068 A 
HETATM   16  C   UNL     1      40.529 -11.574   2.483  1.00  0.00     0.037 A 
HETATM   17  C   UNL     1      39.583 -11.692   3.500  1.00  0.00     0.003 A 
HETATM   18  C   UNL     1      39.723 -12.686   4.467  1.00  0.00     0.010 A 
BRANCH  15  19
HETATM   19  O   UNL     1      42.469 -12.220   1.372  1.00  0.00    -0.356 OA
HETATM   20  C   UNL     1      42.076 -11.230   0.429  1.00  0.00     0.210 C 
ENDBRANCH  15  19
ENDBRANCH  12  13
BRANCH  12  21
HETATM   21  O   UNL     1      40.273 -14.245   6.678  1.00  0.00    -0.389 OA
HETATM   22  H   UNL     1      40.821 -14.607   7.397  1.00  0.00     0.210 HD
ENDBRANCH  12  21
ENDBRANCH  11  12
ENDBRANCH   8  11
ENDBRANCH   1   7
BRANCH   2  23
HETATM   23  C   UNL     1      41.621 -17.380   2.106  1.00  0.00     0.110 A 
HETATM   24  N   UNL     1      41.984 -16.729   1.017  1.00  0.00    -0.233 NA
HETATM   25  C   UNL     1      40.976 -15.830   0.767  1.00  0.00     0.087 A 
HETATM   26  C   UNL     1      39.981 -15.920   1.733  1.00  0.00     0.062 A 
HETATM   27  C   UNL     1      40.848 -14.899  -0.273  1.00  0.00     0.057 A 
HETATM   28  N   UNL     1      40.422 -16.903   2.582  1.00  0.00    -0.342 N 
HETATM   29  C   UNL     1      38.831 -15.128   1.729  1.00  0.00     0.034 A 
HETATM   30  H   UNL     1      39.938 -17.237   3.403  1.00  0.00     0.167 HD
HETATM   31  C   UNL     1      38.713 -14.207   0.682  1.00  0.00     0.026 A 
HETATM   32  C   UNL     1      39.705 -14.095  -0.297  1.00  0.00     0.036 A 
HETATM   33 CL   UNL     1      39.513 -12.943  -1.563  1.00  0.00    -0.084 Cl
ENDBRANCH   2  23
TORSDOF 7
ENDMDL
MODEL 4
REMARK VINA RESULT:      -8.2      2.922      7.561
REMARK  7 active torsions:
REMARK  status: ('A' for Active; 'I' for Inactive)
REMARK    1  A    between atoms: O_2  and  C_3 
REMARK    2  A    between atoms: C_5  and  C_6 
REMARK    3  A    between atoms: C_6  and  O_7 
REMARK    4  A    between atoms: C_6  and  C_8 
REMARK    5  A    between atoms: C_8  and  N_9 
REMARK       I    between atoms: N_9  and  C_10 
REMARK    6  A    between atoms: C_10  and  C_11 
REMARK    7  A    between atoms: C_12  and  C_13 
ROOT
HETATM    1  C   UNL     1      43.910 -18.335   3.944  1.00  0.00     0.089 C 
HETATM    2  C   UNL     1      42.649 -18.437   3.050  1.00  0.00     0.068 C 
HETATM    3  C   UNL     1      42.930 -19.263   1.776  1.00  0.00     0.013 C 
HETATM    4  C   UNL     1      43.543 -20.623   2.078  1.00  0.00     0.001 C 
HETATM    5  C   UNL     1      44.811 -20.479   2.906  1.00  0.00     0.001 C 
HETATM    6  C   UNL     1      44.528 -19.724   4.197  1.00  0.00     0.015 C 
ENDROOT
BRANCH   1   7
HETATM    7  C   UNL     1      43.589 -17.689   5.294  1.00  0.00     0.222 C 
HETATM    8  N   UNL     1      43.956 -16.367   5.400  1.00  0.00    -0.358 N 
HETATM    9  H   UNL     1      44.175 -15.870   4.533  1.00  0.00     0.162 HD
HETATM   10  O   UNL     1      43.045 -18.291   6.216  1.00  0.00    -0.273 OA
BRANCH   8  11
HETATM   11  C   UNL     1      43.617 -15.578   6.577  1.00  0.00     0.159 C 
BRANCH  11  12
HETATM   12  C   UNL     1      43.494 -14.078   6.249  1.00  0.00     0.169 C 
BRANCH  12  13
HETATM   13  C   UNL     1      42.101 -13.727   5.773  1.00  0.00    -0.025 A 
HETATM   14  C   UNL     1      41.784 -12.434   5.318  1.00  0.00     0.046 A 
HETATM   15  C   UNL     1      40.502 -12.134   4.851  1.00  0.00     0.068 A 
HETATM   16  C   UNL     1      39.529 -13.135   4.837  1.00  0.00     0.037 A 
HETATM   17  C   UNL     1      39.827 -14.422   5.282  1.00  0.00     0.003 A 
HETATM   18  C   UNL     1      41.108 -14.718   5.744  1.00  0.00     0.010 A 
BRANCH  15  19
HETATM   19  O   UNL     1      40.079 -10.921   4.382  1.00  0.00    -0.356 OA
HETATM   20  C   UNL     1      38.820 -10.892   3.722  1.00  0.00     0.210 C 
ENDBRANCH  15  19
ENDBRANCH  12  13
BRANCH  12  21
HETATM   21  O   UNL     1      44.449 -13.743   5.233  1.00  0.00    -0.389 OA
HETATM   22  H   UNL     1      45.280 -13.579   5.715  1.00  0.00     0.210 HD
ENDBRANCH  12  21
ENDBRANCH  11  12
ENDBRANCH   8  11
ENDBRANCH   1   7
BRANCH   2  23
HETATM   23  C   UNL     1      42.124 -17.088   2.630  1.00  0.00     0.110 A 
HETATM   24  N   UNL     1      42.810 -15.965   2.527  1.00  0.00    -0.233 NA
HETATM   25  C   UNL     1      41.918 -15.022   2.077  1.00  0.00     0.087 A 
HETATM   26  C   UNL     1      40.653 -15.575   1.917  1.00  0.00     0.062 A 
HETATM   27  C   UNL     1      42.123 -13.667   1.786  1.00  0.00     0.057 A 
HETATM   28  N   UNL     1      40.807 -16.887   2.289  1.00  0.00    -0.342 N 
HETATM   29  C   UNL     1      39.549 -14.850   1.466  1.00  0.00     0.034 A 
HETATM   30  H   UNL     1      40.082 -17.590   2.290  1.00  0.00     0.167 HD
HETATM   31  C   UNL     1      39.767 -13.499   1.173  1.00  0.00     0.026 A 
HETATM   32  C   UNL     1      41.030 -12.921   1.333  1.00  0.00     0.036 A 
HETATM   33 CL   UNL     1      41.247 -11.253   0.962  1.00  0.00    -0.084 Cl
ENDBRANCH   2  23
TORSDOF 7
ENDMDL
MODEL 5
REMARK VINA RESULT:      -8.2      3.162      8.019
REMARK  7 active torsions:
REMARK  status: ('A' for Active; 'I' for Inactive)
REMARK    1  A    between atoms: O_2  and  C_3 
REMARK    2  A    between atoms: C_5  and  C_6 
REMARK    3  A    between atoms: C_6  and  O_7 
REMARK    4  A    between atoms: C_6  and  C_8 
REMARK    5  A    between atoms: C_8  and  N_9 
REMARK       I    between atoms: N_9  and  C_10 
REMARK    6  A    between atoms: C_10  and  C_11 
REMARK    7  A    between atoms: C_12  and  C_13 
ROOT
HETATM    1  C   UNL     1      43.670 -18.333   3.786  1.00  0.00     0.089 C 
HETATM    2  C   UNL     1      42.588 -18.828   2.794  1.00  0.00     0.068 C 
HETATM    3  C   UNL     1      43.195 -19.745   1.712  1.00  0.00     0.013 C 
HETATM    4  C   UNL     1      44.015 -20.886   2.299  1.00  0.00     0.001 C 
HETATM    5  C   UNL     1      45.106 -20.359   3.219  1.00  0.00     0.001 C 
HETATM    6  C   UNL     1      44.507 -19.507   4.329  1.00  0.00     0.015 C 
ENDROOT
BRANCH   1   7
HETATM    7  C   UNL     1      43.048 -17.587   4.969  1.00  0.00     0.222 C 
HETATM    8  N   UNL     1      42.842 -16.243   4.756  1.00  0.00    -0.358 N 
HETATM    9  H   UNL     1      42.884 -15.910   3.790  1.00  0.00     0.162 HD
HETATM   10  O   UNL     1      42.750 -18.133   6.027  1.00  0.00    -0.273 OA
BRANCH   8  11
HETATM   11  C   UNL     1      42.155 -15.416   5.740  1.00  0.00     0.159 C 
BRANCH  11  12
HETATM   12  C   UNL     1      40.694 -15.137   5.337  1.00  0.00     0.169 C 
BRANCH  12  13
HETATM   13  C   UNL     1      40.398 -13.654   5.314  1.00  0.00    -0.025 A 
HETATM   14  C   UNL     1      39.815 -13.004   6.417  1.00  0.00     0.046 A 
HETATM   15  C   UNL     1      39.577 -11.627   6.394  1.00  0.00     0.068 A 
HETATM   16  C   UNL     1      39.929 -10.894   5.259  1.00  0.00     0.037 A 
HETATM   17  C   UNL     1      40.511 -11.522   4.159  1.00  0.00     0.003 A 
HETATM   18  C   UNL     1      40.749 -12.894   4.188  1.00  0.00     0.010 A 
BRANCH  15  19
HETATM   19  O   UNL     1      39.021 -10.889   7.402  1.00  0.00    -0.356 OA
HETATM   20  C   UNL     1      39.263 -11.334   8.731  1.00  0.00     0.210 C 
ENDBRANCH  15  19
ENDBRANCH  12  13
BRANCH  12  21
HETATM   21  O   UNL     1      39.821 -15.789   6.271  1.00  0.00    -0.389 OA
HETATM   22  H   UNL     1      39.899 -16.738   6.065  1.00  0.00     0.210 HD
ENDBRANCH  12  21
ENDBRANCH  11  12
ENDBRANCH   8  11
ENDBRANCH   1   7
BRANCH   2  23
HETATM   23  C   UNL     1      41.872 -17.695   2.104  1.00  0.00     0.110 A 
HETATM   24  N   UNL     1      40.786 -17.071   2.520  1.00  0.00    -0.233 NA
HETATM   25  C   UNL     1      40.535 -16.095   1.586  1.00  0.00     0.087 A 
HETATM   26  C   UNL     1      41.478 -16.133   0.566  1.00  0.00     0.062 A 
HETATM   27  C   UNL     1      39.510 -15.140   1.546  1.00  0.00     0.057 A 
HETATM   28  N   UNL     1      42.309 -17.168   0.911  1.00  0.00    -0.342 N 
HETATM   29  C   UNL     1      41.474 -15.253  -0.518  1.00  0.00     0.034 A 
HETATM   30  H   UNL     1      43.118 -17.477   0.391  1.00  0.00     0.167 HD
HETATM   31  C   UNL     1      40.449 -14.300  -0.543  1.00  0.00     0.026 A 
HETATM   32  C   UNL     1      39.486 -14.249   0.469  1.00  0.00     0.036 A 
HETATM   33 CL   UNL     1      38.243 -13.059   0.390  1.00  0.00    -0.084 Cl
ENDBRANCH   2  23
TORSDOF 7
ENDMDL
MODEL 6
REMARK VINA RESULT:      -8.2      3.962      8.116
REMARK  7 active torsions:
REMARK  status: ('A' for Active; 'I' for Inactive)
REMARK    1  A    between atoms: O_2  and  C_3 
REMARK    2  A    between atoms: C_5  and  C_6 
REMARK    3  A    between atoms: C_6  and  O_7 
REMARK    4  A    between atoms: C_6  and  C_8 
REMARK    5  A    between atoms: C_8  and  N_9 
REMARK       I    between atoms: N_9  and  C_10 
REMARK    6  A    between atoms: C_10  and  C_11 
REMARK    7  A    between atoms: C_12  and  C_13 
ROOT
HETATM    1  C   UNL     1      43.861 -18.273   3.906  1.00  0.00     0.089 C 
HETATM    2  C   UNL     1      42.676 -18.732   3.020  1.00  0.00     0.068 C 
HETATM    3  C   UNL     1      43.131 -19.761   1.964  1.00  0.00     0.013 C 
HETATM    4  C   UNL     1      43.894 -20.931   2.570  1.00  0.00     0.001 C 
HETATM    5  C   UNL     1      45.085 -20.444   3.382  1.00  0.00     0.001 C 
HETATM    6  C   UNL     1      44.635 -19.480   4.470  1.00  0.00     0.015 C 
ENDROOT
BRANCH   1   7
HETATM    7  C   UNL     1      43.385 -17.407   5.075  1.00  0.00     0.222 C 
HETATM    8  N   UNL     1      44.392 -16.920   5.876  1.00  0.00    -0.358 N 
HETATM    9  H   UNL     1      45.345 -16.961   5.508  1.00  0.00     0.162 HD
HETATM   10  O   UNL     1      42.202 -17.158   5.289  1.00  0.00    -0.273 OA
BRANCH   8  11
HETATM   11  C   UNL     1      44.114 -15.987   6.961  1.00  0.00     0.159 C 
BRANCH  11  12
HETATM   12  C   UNL     1      43.939 -14.544   6.450  1.00  0.00     0.169 C 
BRANCH  12  13
HETATM   13  C   UNL     1      44.749 -13.564   7.270  1.00  0.00    -0.025 A 
HETATM   14  C   UNL     1      44.219 -12.959   8.424  1.00  0.00     0.046 A 
HETATM   15  C   UNL     1      44.990 -12.080   9.190  1.00  0.00     0.068 A 
HETATM   16  C   UNL     1      46.302 -11.806   8.799  1.00  0.00     0.037 A 
HETATM   17  C   UNL     1      46.843 -12.400   7.660  1.00  0.00     0.003 A 
HETATM   18  C   UNL     1      46.072 -13.278   6.901  1.00  0.00     0.010 A 
BRANCH  15  19
HETATM   19  O   UNL     1      44.586 -11.437  10.327  1.00  0.00    -0.356 OA
HETATM   20  C   UNL     1      44.060 -12.249  11.370  1.00  0.00     0.210 C 
ENDBRANCH  15  19
ENDBRANCH  12  13
BRANCH  12  21
HETATM   21  O   UNL     1      42.550 -14.193   6.511  1.00  0.00    -0.389 OA
HETATM   22  H   UNL     1      42.132 -14.700   5.792  1.00  0.00     0.210 HD
ENDBRANCH  12  21
ENDBRANCH  11  12
ENDBRANCH   8  11
ENDBRANCH   1   7
BRANCH   2  23
HETATM   23  C   UNL     1      42.009 -17.586   2.304  1.00  0.00     0.110 A 
HETATM   24  N   UNL     1      42.427 -16.981   1.208  1.00  0.00    -0.233 NA
HETATM   25  C   UNL     1      41.476 -16.034   0.917  1.00  0.00     0.087 A 
HETATM   26  C   UNL     1      40.460 -16.046   1.865  1.00  0.00     0.062 A 
HETATM   27  C   UNL     1      41.420 -15.123  -0.146  1.00  0.00     0.057 A 
HETATM   28  N   UNL     1      40.829 -17.032   2.744  1.00  0.00    -0.342 N 
HETATM   29  C   UNL     1      39.356 -15.193   1.819  1.00  0.00     0.034 A 
HETATM   30  H   UNL     1      40.312 -17.319   3.563  1.00  0.00     0.167 HD
HETATM   31  C   UNL     1      39.308 -14.291   0.750  1.00  0.00     0.026 A 
HETATM   32  C   UNL     1      40.323 -14.258  -0.211  1.00  0.00     0.036 A 
HETATM   33 CL   UNL     1      40.220 -13.127  -1.507  1.00  0.00    -0.084 Cl
ENDBRANCH   2  23
TORSDOF 7
ENDMDL
MODEL 7
REMARK VINA RESULT:      -8.0      3.240      7.527
REMARK  7 active torsions:
REMARK  status: ('A' for Active; 'I' for Inactive)
REMARK    1  A    between atoms: O_2  and  C_3 
REMARK    2  A    between atoms: C_5  and  C_6 
REMARK    3  A    between atoms: C_6  and  O_7 
REMARK    4  A    between atoms: C_6  and  C_8 
REMARK    5  A    between atoms: C_8  and  N_9 
REMARK       I    between atoms: N_9  and  C_10 
REMARK    6  A    between atoms: C_10  and  C_11 
REMARK    7  A    between atoms: C_12  and  C_13 
ROOT
HETATM    1  C   UNL     1      44.333 -19.101   3.219  1.00  0.00     0.089 C 
HETATM    2  C   UNL     1      42.892 -19.385   2.726  1.00  0.00     0.068 C 
HETATM    3  C   UNL     1      42.874 -20.501   1.661  1.00  0.00     0.013 C 
HETATM    4  C   UNL     1      43.596 -21.762   2.114  1.00  0.00     0.001 C 
HETATM    5  C   UNL     1      45.026 -21.453   2.533  1.00  0.00     0.001 C 
HETATM    6  C   UNL     1      45.048 -20.401   3.632  1.00  0.00     0.015 C 
ENDROOT
BRANCH   1   7
HETATM    7  C   UNL     1      44.339 -18.139   4.410  1.00  0.00     0.222 C 
HETATM    8  N   UNL     1      44.529 -18.741   5.633  1.00  0.00    -0.358 N 
HETATM    9  H   UNL     1      44.885 -19.699   5.633  1.00  0.00     0.162 HD
HETATM   10  O   UNL     1      44.188 -16.926   4.296  1.00  0.00    -0.273 OA
BRANCH   8  11
HETATM   11  C   UNL     1      44.674 -17.954   6.851  1.00  0.00     0.159 C 
BRANCH  11  12
HETATM   12  C   UNL     1      43.334 -17.787   7.592  1.00  0.00     0.169 C 
BRANCH  12  13
HETATM   13  C   UNL     1      42.470 -16.728   6.942  1.00  0.00    -0.025 A 
HETATM   14  C   UNL     1      42.982 -15.458   6.620  1.00  0.00     0.046 A 
HETATM   15  C   UNL     1      42.181 -14.502   5.991  1.00  0.00     0.068 A 
HETATM   16  C   UNL     1      40.858 -14.819   5.679  1.00  0.00     0.037 A 
HETATM   17  C   UNL     1      40.335 -16.073   5.989  1.00  0.00     0.003 A 
HETATM   18  C   UNL     1      41.138 -17.025   6.614  1.00  0.00     0.010 A 
BRANCH  15  19
HETATM   19  O   UNL     1      42.568 -13.241   5.627  1.00  0.00    -0.356 OA
HETATM   20  C   UNL     1      42.471 -12.915   4.246  1.00  0.00     0.210 C 
ENDBRANCH  15  19
ENDBRANCH  12  13
BRANCH  12  21
HETATM   21  O   UNL     1      43.596 -17.426   8.955  1.00  0.00    -0.389 OA
HETATM   22  H   UNL     1      42.767 -17.618   9.429  1.00  0.00     0.210 HD
ENDBRANCH  12  21
ENDBRANCH  11  12
ENDBRANCH   8  11
ENDBRANCH   1   7
BRANCH   2  23
HETATM   23  C   UNL     1      42.226 -18.165   2.143  1.00  0.00     0.110 A 
HETATM   24  N   UNL     1      42.448 -17.629   0.958  1.00  0.00    -0.233 NA
HETATM   25  C   UNL     1      41.583 -16.566   0.861  1.00  0.00     0.087 A 
HETATM   26  C   UNL     1      40.827 -16.437   2.019  1.00  0.00     0.062 A 
HETATM   27  C   UNL     1      41.394 -15.663  -0.194  1.00  0.00     0.057 A 
HETATM   28  N   UNL     1      41.265 -17.457   2.825  1.00  0.00    -0.342 N 
HETATM   29  C   UNL     1      39.862 -15.445   2.200  1.00  0.00     0.034 A 
HETATM   30  H   UNL     1      40.923 -17.666   3.753  1.00  0.00     0.167 HD
HETATM   31  C   UNL     1      39.678 -14.552   1.138  1.00  0.00     0.026 A 
HETATM   32  C   UNL     1      40.433 -14.660  -0.034  1.00  0.00     0.036 A 
HETATM   33 CL   UNL     1      40.171 -13.535  -1.312  1.00  0.00    -0.084 Cl
ENDBRANCH   2  23
TORSDOF 7
ENDMDL
MODEL 8
REMARK VINA RESULT:      -7.9      2.589      6.480
REMARK  7 active torsions:
REMARK  status: ('A' for Active; 'I' for Inactive)
REMARK    1  A    between atoms: O_2  and  C_3 
REMARK    2  A    between atoms: C_5  and  C_6 
REMARK    3  A    between atoms: C_6  and  O_7 
REMARK    4  A    between atoms: C_6  and  C_8 
REMARK    5  A    between atoms: C_8  and  N_9 
REMARK       I    between atoms: N_9  and  C_10 
REMARK    6  A    between atoms: C_10  and  C_11 
REMARK    7  A    between atoms: C_12  and  C_13 
ROOT
HETATM    1  C   UNL     1      43.061 -18.612   5.720  1.00  0.00     0.089 C 
HETATM    2  C   UNL     1      43.632 -17.263   6.226  1.00  0.00     0.068 C 
HETATM    3  C   UNL     1      43.677 -17.217   7.768  1.00  0.00     0.013 C 
HETATM    4  C   UNL     1      44.391 -18.417   8.374  1.00  0.00     0.001 C 
HETATM    5  C   UNL     1      43.765 -19.721   7.902  1.00  0.00     0.001 C 
HETATM    6  C   UNL     1      43.778 -19.804   6.382  1.00  0.00     0.015 C 
ENDROOT
BRANCH   1   7
HETATM    7  C   UNL     1      43.196 -18.742   4.201  1.00  0.00     0.222 C 
HETATM    8  N   UNL     1      42.113 -18.281   3.487  1.00  0.00    -0.358 N 
HETATM    9  H   UNL     1      41.443 -17.688   3.982  1.00  0.00     0.162 HD
HETATM   10  O   UNL     1      44.186 -19.216   3.651  1.00  0.00    -0.273 OA
BRANCH   8  11
HETATM   11  C   UNL     1      42.131 -18.229   2.030  1.00  0.00     0.159 C 
BRANCH  11  12
HETATM   12  C   UNL     1      42.560 -16.844   1.509  1.00  0.00     0.169 C 
BRANCH  12  13
HETATM   13  C   UNL     1      41.371 -15.926   1.333  1.00  0.00    -0.025 A 
HETATM   14  C   UNL     1      41.378 -14.890   0.381  1.00  0.00     0.046 A 
HETATM   15  C   UNL     1      40.260 -14.070   0.207  1.00  0.00     0.068 A 
HETATM   16  C   UNL     1      39.125 -14.289   0.990  1.00  0.00     0.037 A 
HETATM   17  C   UNL     1      39.101 -15.313   1.936  1.00  0.00     0.003 A 
HETATM   18  C   UNL     1      40.217 -16.130   2.104  1.00  0.00     0.010 A 
BRANCH  15  19
HETATM   19  O   UNL     1      40.149 -13.039  -0.685  1.00  0.00    -0.356 OA
HETATM   20  C   UNL     1      38.933 -12.954  -1.418  1.00  0.00     0.210 C 
ENDBRANCH  15  19
ENDBRANCH  12  13
BRANCH  12  21
HETATM   21  O   UNL     1      43.234 -17.008   0.253  1.00  0.00    -0.389 OA
HETATM   22  H   UNL     1      44.164 -16.784   0.438  1.00  0.00     0.210 HD
ENDBRANCH  12  21
ENDBRANCH  11  12
ENDBRANCH   8  11
ENDBRANCH   1   7
BRANCH   2  23
HETATM   23  C   UNL     1      42.837 -16.078   5.742  1.00  0.00     0.110 A 
HETATM   24  N   UNL     1      43.158 -15.251   4.765  1.00  0.00    -0.233 NA
HETATM   25  C   UNL     1      42.114 -14.363   4.668  1.00  0.00     0.087 A 
HETATM   26  C   UNL     1      41.139 -14.641   5.619  1.00  0.00     0.062 A 
HETATM   27  C   UNL     1      41.936 -13.288   3.788  1.00  0.00     0.057 A 
HETATM   28  N   UNL     1      41.629 -15.727   6.299  1.00  0.00    -0.342 N 
HETATM   29  C   UNL     1      39.961 -13.904   5.750  1.00  0.00     0.034 A 
HETATM   30  H   UNL     1      41.171 -16.203   7.063  1.00  0.00     0.167 HD
HETATM   31  C   UNL     1      39.792 -12.835   4.861  1.00  0.00     0.026 A 
HETATM   32  C   UNL     1      40.763 -12.535   3.902  1.00  0.00     0.036 A 
HETATM   33 CL   UNL     1      40.509 -11.208   2.833  1.00  0.00    -0.084 Cl
ENDBRANCH   2  23
TORSDOF 7
ENDMDL
MODEL 9
REMARK VINA RESULT:      -7.8      3.734      5.421
REMARK  7 active torsions:
REMARK  status: ('A' for Active; 'I' for Inactive)
REMARK    1  A    between atoms: O_2  and  C_3 
REMARK    2  A    between atoms: C_5  and  C_6 
REMARK    3  A    between atoms: C_6  and  O_7 
REMARK    4  A    between atoms: C_6  and  C_8 
REMARK    5  A    between atoms: C_8  and  N_9 
REMARK       I    between atoms: N_9  and  C_10 
REMARK    6  A    between atoms: C_10  and  C_11 
REMARK    7  A    between atoms: C_12  and  C_13 
ROOT
HETATM    1  C   UNL     1      40.192 -13.950   3.465  1.00  0.00     0.089 C 
HETATM    2  C   UNL     1      41.608 -13.348   3.289  1.00  0.00     0.068 C 
HETATM    3  C   UNL     1      41.867 -12.215   4.304  1.00  0.00     0.013 C 
HETATM    4  C   UNL     1      41.586 -12.634   5.740  1.00  0.00     0.001 C 
HETATM    5  C   UNL     1      40.166 -13.162   5.887  1.00  0.00     0.001 C 
HETATM    6  C   UNL     1      39.924 -14.325   4.936  1.00  0.00     0.015 C 
ENDROOT
BRANCH   1   7
HETATM    7  C   UNL     1      40.000 -15.197   2.599  1.00  0.00     0.222 C 
HETATM    8  N   UNL     1      41.056 -16.080   2.622  1.00  0.00    -0.358 N 
HETATM    9  H   UNL     1      41.745 -15.968   3.369  1.00  0.00     0.162 HD
HETATM   10  O   UNL     1      38.989 -15.406   1.934  1.00  0.00    -0.273 OA
BRANCH   8  11
HETATM   11  C   UNL     1      40.983 -17.367   1.942  1.00  0.00     0.159 C 
BRANCH  11  12
HETATM   12  C   UNL     1      42.314 -17.734   1.258  1.00  0.00     0.169 C 
BRANCH  12  13
HETATM   13  C   UNL     1      43.165 -18.620   2.141  1.00  0.00    -0.025 A 
HETATM   14  C   UNL     1      43.667 -18.163   3.374  1.00  0.00     0.046 A 
HETATM   15  C   UNL     1      44.425 -19.004   4.193  1.00  0.00     0.068 A 
HETATM   16  C   UNL     1      44.681 -20.312   3.778  1.00  0.00     0.037 A 
HETATM   17  C   UNL     1      44.189 -20.781   2.560  1.00  0.00     0.003 A 
HETATM   18  C   UNL     1      43.431 -19.940   1.748  1.00  0.00     0.010 A 
BRANCH  15  19
HETATM   19  O   UNL     1      44.960 -18.675   5.408  1.00  0.00    -0.356 OA
HETATM   20  C   UNL     1      44.045 -18.481   6.480  1.00  0.00     0.210 C 
ENDBRANCH  15  19
ENDBRANCH  12  13
BRANCH  12  21
HETATM   21  O   UNL     1      43.028 -16.528   0.953  1.00  0.00    -0.389 OA
HETATM   22  H   UNL     1      42.774 -16.312   0.037  1.00  0.00     0.210 HD
ENDBRANCH  12  21
ENDBRANCH  11  12
ENDBRANCH   8  11
ENDBRANCH   1   7
BRANCH   2  23
HETATM   23  C   UNL     1      41.838 -12.802   1.903  1.00  0.00     0.110 A 
HETATM   24  N   UNL     1      41.881 -13.486   0.776  1.00  0.00    -0.233 NA
HETATM   25  C   UNL     1      42.074 -12.557  -0.218  1.00  0.00     0.087 A 
HETATM   26  C   UNL     1      42.169 -11.277   0.313  1.00  0.00     0.062 A 
HETATM   27  C   UNL     1      42.181 -12.742  -1.603  1.00  0.00     0.057 A 
HETATM   28  N   UNL     1      42.030 -11.460   1.666  1.00  0.00    -0.342 N 
HETATM   29  C   UNL     1      42.361 -10.134  -0.465  1.00  0.00     0.034 A 
HETATM   30  H   UNL     1      42.044 -10.732   2.366  1.00  0.00     0.167 HD
HETATM   31  C   UNL     1      42.461 -10.331  -1.848  1.00  0.00     0.026 A 
HETATM   32  C   UNL     1      42.374 -11.611  -2.402  1.00  0.00     0.036 A 
HETATM   33 CL   UNL     1      42.507 -11.800  -4.109  1.00  0.00    -0.084 Cl
ENDBRANCH   2  23
TORSDOF 7
ENDMDL
MODEL 10
REMARK VINA RESULT:      -7.8      3.366      6.507
REMARK  7 active torsions:
REMARK  status: ('A' for Active; 'I' for Inactive)
REMARK    1  A    between atoms: O_2  and  C_3 
REMARK    2  A    between atoms: C_5  and  C_6 
REMARK    3  A    between atoms: C_6  and  O_7 
REMARK    4  A    between atoms: C_6  and  C_8 
REMARK    5  A    between atoms: C_8  and  N_9 
REMARK       I    between atoms: N_9  and  C_10 
REMARK    6  A    between atoms: C_10  and  C_11 
REMARK    7  A    between atoms: C_12  and  C_13 
ROOT
HETATM    1  C   UNL     1      43.027 -15.032   4.714  1.00  0.00     0.089 C 
HETATM    2  C   UNL     1      43.207 -16.221   5.691  1.00  0.00     0.068 C 
HETATM    3  C   UNL     1      44.371 -15.969   6.672  1.00  0.00     0.013 C 
HETATM    4  C   UNL     1      44.257 -14.632   7.392  1.00  0.00     0.001 C 
HETATM    5  C   UNL     1      44.143 -13.485   6.399  1.00  0.00     0.001 C 
HETATM    6  C   UNL     1      42.956 -13.693   5.471  1.00  0.00     0.015 C 
ENDROOT
BRANCH   1   7
HETATM    7  C   UNL     1      41.757 -15.187   3.871  1.00  0.00     0.222 C 
HETATM    8  N   UNL     1      41.946 -15.043   2.516  1.00  0.00    -0.358 N 
HETATM    9  H   UNL     1      42.907 -15.092   2.169  1.00  0.00     0.162 HD
HETATM   10  O   UNL     1      40.654 -15.422   4.355  1.00  0.00    -0.273 OA
BRANCH   8  11
HETATM   11  C   UNL     1      40.862 -15.274   1.570  1.00  0.00     0.159 C 
BRANCH  11  12
HETATM   12  C   UNL     1      40.625 -14.056   0.657  1.00  0.00     0.169 C 
BRANCH  12  13
HETATM   13  C   UNL     1      40.310 -14.478  -0.761  1.00  0.00    -0.025 A 
HETATM   14  C   UNL     1      39.227 -13.925  -1.469  1.00  0.00     0.046 A 
HETATM   15  C   UNL     1      38.968 -14.301  -2.789  1.00  0.00     0.068 A 
HETATM   16  C   UNL     1      39.800 -15.237  -3.407  1.00  0.00     0.037 A 
HETATM   17  C   UNL     1      40.878 -15.793  -2.721  1.00  0.00     0.003 A 
HETATM   18  C   UNL     1      41.135 -15.412  -1.405  1.00  0.00     0.010 A 
BRANCH  15  19
HETATM   19  O   UNL     1      37.953 -13.831  -3.576  1.00  0.00    -0.356 OA
HETATM   20  C   UNL     1      36.998 -14.784  -4.027  1.00  0.00     0.210 C 
ENDBRANCH  15  19
ENDBRANCH  12  13
BRANCH  12  21
HETATM   21  O   UNL     1      41.799 -13.232   0.666  1.00  0.00    -0.389 OA
HETATM   22  H   UNL     1      42.282 -13.476  -0.144  1.00  0.00     0.210 HD
ENDBRANCH  12  21
ENDBRANCH  11  12
ENDBRANCH   8  11
ENDBRANCH   1   7
BRANCH   2  23
HETATM   23  C   UNL     1      43.464 -17.524   4.979  1.00  0.00     0.110 A 
HETATM   24  N   UNL     1      43.179 -17.814   3.723  1.00  0.00    -0.233 NA
HETATM   25  C   UNL     1      43.632 -19.095   3.523  1.00  0.00     0.087 A 
HETATM   26  C   UNL     1      44.192 -19.609   4.687  1.00  0.00     0.062 A 
HETATM   27  C   UNL     1      43.594 -19.885   2.366  1.00  0.00     0.057 A 
HETATM   28  N   UNL     1      44.060 -18.596   5.602  1.00  0.00    -0.342 N 
HETATM   29  C   UNL     1      44.739 -20.890   4.776  1.00  0.00     0.034 A 
HETATM   30  H   UNL     1      44.368 -18.623   6.564  1.00  0.00     0.167 HD
HETATM   31  C   UNL     1      44.699 -21.667   3.612  1.00  0.00     0.026 A 
HETATM   32  C   UNL     1      44.135 -21.172   2.433  1.00  0.00     0.036 A 
HETATM   33 CL   UNL     1      44.108 -22.169   1.028  1.00  0.00    -0.084 Cl
ENDBRANCH   2  23
TORSDOF 7
ENDMDL
