MODEL 1
REMARK VINA RESULT:      -8.1      0.000      0.000
REMARK  10 active torsions:
REMARK  status: ('A' for Active; 'I' for Inactive)
REMARK    1  A    between atoms: C_3  and  C_4 
REMARK    2  A    between atoms: C_4  and  C_5 
REMARK       I    between atoms: C_5  and  N_6 
REMARK    3  A    between atoms: N_6  and  C_7 
REMARK    4  A    between atoms: C_7  and  C_8 
REMARK    5  A    between atoms: C_8  and  O_9 
REMARK    6  A    between atoms: C_15  and  N_16 
REMARK       I    between atoms: N_16  and  C_17 
REMARK    7  A    between atoms: C_17  and  C_18 
REMARK    8  A    between atoms: C_26  and  C_27 
REMARK    9  A    between atoms: C_27  and  O_28 
REMARK   10  A    between atoms: C_30  and  O_31 
ROOT
HETATM    1  C   UNL     1      40.910 -17.609   6.172  1.00  0.00     0.016 C 
HETATM    2  C   UNL     1      42.076 -16.804   5.495  1.00  0.00    -0.030 C 
HETATM    3  C   UNL     1      42.041 -17.263   3.947  1.00  0.00     0.056 C 
HETATM    4  C   UNL     1      41.227 -16.299   3.111  1.00  0.00     0.056 A 
HETATM    5  C   UNL     1      40.542 -15.210   3.604  1.00  0.00     0.012 A 
HETATM    6  S   UNL     1      39.716 -14.401   2.352  1.00  0.00    -0.055 SA
HETATM    7  C   UNL     1      40.400 -15.497   1.237  1.00  0.00     0.173 A 
HETATM    8  N   UNL     1      41.159 -16.440   1.736  1.00  0.00    -0.227 NA
HETATM    9  C   UNL     1      40.509 -14.770   5.016  1.00  0.00     0.055 C 
HETATM   10  C   UNL     1      41.776 -15.258   5.766  1.00  0.00     0.012 C 
HETATM   11  C   UNL     1      43.021 -14.283   5.664  1.00  0.00     0.008 C 
HETATM   12  C   UNL     1      42.640 -12.884   6.231  1.00  0.00     0.020 C 
HETATM   13  C   UNL     1      44.176 -14.847   6.542  1.00  0.00     0.128 C 
HETATM   14  C   UNL     1      44.543 -16.280   6.169  1.00  0.00     0.033 C 
HETATM   15  C   UNL     1      43.351 -17.232   6.273  1.00  0.00     0.013 C 
ENDROOT
BRANCH   3  16
HETATM   16  C   UNL     1      43.378 -17.599   3.253  1.00  0.00     0.114 C 
BRANCH  16  17
HETATM   17  C   UNL     1      43.575 -19.091   3.029  1.00  0.00     0.218 C 
HETATM   18  N   UNL     1      44.525 -19.688   3.812  1.00  0.00    -0.359 N 
HETATM   19  H   UNL     1      45.116 -19.116   4.422  1.00  0.00     0.162 HD
HETATM   20  O   UNL     1      42.885 -19.710   2.221  1.00  0.00    -0.274 OA
BRANCH  18  21
HETATM   21  C   UNL     1      44.717 -21.126   3.843  1.00  0.00     0.148 C 
BRANCH  21  22
HETATM   22  C   UNL     1      44.779 -21.718   5.254  1.00  0.00     0.186 C 
BRANCH  22  23
HETATM   23  O   UNL     1      44.479 -20.709   6.225  1.00  0.00    -0.394 OA
HETATM   24  C   UNL     1      43.546 -21.182   7.187  1.00  0.00     0.201 C 
ENDBRANCH  22  23
ENDBRANCH  21  22
ENDBRANCH  18  21
ENDBRANCH  16  17
ENDBRANCH   3  16
BRANCH  11  25
HETATM   25  C   UNL     1      43.519 -14.060   4.217  1.00  0.00     0.176 C 
BRANCH  25  26
HETATM   26  O   UNL     1      43.098 -12.791   3.725  1.00  0.00    -0.400 OA
HETATM   27  H   UNL     1      42.151 -12.703   3.937  1.00  0.00     0.209 HD
ENDBRANCH  25  26
ENDBRANCH  11  25
BRANCH   7  28
HETATM   28  N   UNL     1      40.079 -15.236  -0.064  1.00  0.00    -0.305 N 
HETATM   29  C   UNL     1      40.867 -14.453  -0.878  1.00  0.00     0.227 C 
HETATM   30  O   UNL     1      41.915 -13.906  -0.528  1.00  0.00    -0.273 OA
HETATM   31  H   UNL     1      39.202 -15.609  -0.394  1.00  0.00     0.171 HD
BRANCH  29  32
HETATM   32  C   UNL     1      40.268 -14.296  -2.307  1.00  0.00     0.078 C 
HETATM   33  C   UNL     1      40.207 -15.574  -3.190  1.00  0.00     0.014 C 
HETATM   34  C   UNL     1      38.873 -15.043  -3.750  1.00  0.00     0.002 C 
HETATM   35  C   UNL     1      38.721 -14.245  -2.440  1.00  0.00     0.014 C 
ENDBRANCH  29  32
ENDBRANCH   7  28
BRANCH  13  36
HETATM   36  O   UNL     1      43.803 -14.848   7.924  1.00  0.00    -0.395 OA
HETATM   37  H   UNL     1      43.266 -14.051   8.077  1.00  0.00     0.210 HD
ENDBRANCH  13  36
TORSDOF 10
ENDMDL
MODEL 2
REMARK VINA RESULT:      -7.5      2.669      5.747
REMARK  10 active torsions:
REMARK  status: ('A' for Active; 'I' for Inactive)
REMARK    1  A    between atoms: C_3  and  C_4 
REMARK    2  A    between atoms: C_4  and  C_5 
REMARK       I    between atoms: C_5  and  N_6 
REMARK    3  A    between atoms: N_6  and  C_7 
REMARK    4  A    between atoms: C_7  and  C_8 
REMARK    5  A    between atoms: C_8  and  O_9 
REMARK    6  A    between atoms: C_15  and  N_16 
REMARK       I    between atoms: N_16  and  C_17 
REMARK    7  A    between atoms: C_17  and  C_18 
REMARK    8  A    between atoms: C_26  and  C_27 
REMARK    9  A    between atoms: C_27  and  O_28 
REMARK   10  A    between atoms: C_30  and  O_31 
ROOT
HETATM    1  C   UNL     1      39.113 -13.597   5.602  1.00  0.00     0.016 C 
HETATM    2  C   UNL     1      40.295 -13.073   4.712  1.00  0.00    -0.030 C 
HETATM    3  C   UNL     1      41.490 -14.130   4.959  1.00  0.00     0.056 C 
HETATM    4  C   UNL     1      41.496 -15.205   3.892  1.00  0.00     0.056 A 
HETATM    5  C   UNL     1      40.567 -15.318   2.880  1.00  0.00     0.012 A 
HETATM    6  S   UNL     1      40.896 -16.681   1.911  1.00  0.00    -0.055 SA
HETATM    7  C   UNL     1      42.294 -16.968   2.847  1.00  0.00     0.173 A 
HETATM    8  N   UNL     1      42.505 -16.150   3.847  1.00  0.00    -0.227 NA
HETATM    9  C   UNL     1      39.434 -14.400   2.634  1.00  0.00     0.055 C 
HETATM   10  C   UNL     1      39.736 -12.995   3.217  1.00  0.00     0.012 C 
HETATM   11  C   UNL     1      40.517 -12.027   2.235  1.00  0.00     0.008 C 
HETATM   12  C   UNL     1      39.697 -11.835   0.926  1.00  0.00     0.020 C 
HETATM   13  C   UNL     1      40.659 -10.632   2.910  1.00  0.00     0.128 C 
HETATM   14  C   UNL     1      41.326 -10.714   4.279  1.00  0.00     0.033 C 
HETATM   15  C   UNL     1      40.575 -11.638   5.239  1.00  0.00     0.013 C 
ENDROOT
BRANCH   3  16
HETATM   16  C   UNL     1      42.914 -13.585   5.196  1.00  0.00     0.114 C 
BRANCH  16  17
HETATM   17  C   UNL     1      43.671 -14.344   6.275  1.00  0.00     0.218 C 
HETATM   18  N   UNL     1      42.975 -15.344   6.897  1.00  0.00    -0.359 N 
HETATM   19  H   UNL     1      41.979 -15.474   6.695  1.00  0.00     0.162 HD
HETATM   20  O   UNL     1      44.847 -14.086   6.528  1.00  0.00    -0.274 OA
BRANCH  18  21
HETATM   21  C   UNL     1      43.601 -16.268   7.824  1.00  0.00     0.148 C 
BRANCH  21  22
HETATM   22  C   UNL     1      43.157 -17.723   7.650  1.00  0.00     0.186 C 
BRANCH  22  23
HETATM   23  O   UNL     1      44.299 -18.568   7.463  1.00  0.00    -0.394 OA
HETATM   24  C   UNL     1      45.275 -17.938   6.643  1.00  0.00     0.201 C 
ENDBRANCH  22  23
ENDBRANCH  21  22
ENDBRANCH  18  21
ENDBRANCH  16  17
ENDBRANCH   3  16
BRANCH  11  25
HETATM   25  C   UNL     1      41.910 -12.555   1.819  1.00  0.00     0.176 C 
BRANCH  25  26
HETATM   26  O   UNL     1      42.593 -11.602   1.009  1.00  0.00    -0.400 OA
HETATM   27  H   UNL     1      43.464 -11.983   0.793  1.00  0.00     0.209 HD
ENDBRANCH  25  26
ENDBRANCH  11  25
BRANCH   7  28
HETATM   28  N   UNL     1      43.043 -18.024   2.413  1.00  0.00    -0.305 N 
HETATM   29  C   UNL     1      43.364 -19.088   3.227  1.00  0.00     0.227 C 
HETATM   30  O   UNL     1      43.030 -19.196   4.409  1.00  0.00    -0.273 OA
HETATM   31  H   UNL     1      43.395 -17.968   1.471  1.00  0.00     0.171 HD
BRANCH  29  32
HETATM   32  C   UNL     1      44.241 -20.148   2.497  1.00  0.00     0.078 C 
HETATM   33  C   UNL     1      44.756 -21.344   3.345  1.00  0.00     0.014 C 
HETATM   34  C   UNL     1      44.566 -22.226   2.097  1.00  0.00     0.002 C 
HETATM   35  C   UNL     1      43.514 -21.205   1.621  1.00  0.00     0.014 C 
ENDBRANCH  29  32
ENDBRANCH   7  28
BRANCH  13  36
HETATM   36  O   UNL     1      39.373 -10.031   3.098  1.00  0.00    -0.395 OA
HETATM   37  H   UNL     1      38.987  -9.898   2.215  1.00  0.00     0.210 HD
ENDBRANCH  13  36
TORSDOF 10
ENDMDL
MODEL 3
REMARK VINA RESULT:      -7.4      2.621      7.253
REMARK  10 active torsions:
REMARK  status: ('A' for Active; 'I' for Inactive)
REMARK    1  A    between atoms: C_3  and  C_4 
REMARK    2  A    between atoms: C_4  and  C_5 
REMARK       I    between atoms: C_5  and  N_6 
REMARK    3  A    between atoms: N_6  and  C_7 
REMARK    4  A    between atoms: C_7  and  C_8 
REMARK    5  A    between atoms: C_8  and  O_9 
REMARK    6  A    between atoms: C_15  and  N_16 
REMARK       I    between atoms: N_16  and  C_17 
REMARK    7  A    between atoms: C_17  and  C_18 
REMARK    8  A    between atoms: C_26  and  C_27 
REMARK    9  A    between atoms: C_27  and  O_28 
REMARK   10  A    between atoms: C_30  and  O_31 
ROOT
HETATM    1  C   UNL     1      41.870 -11.831   1.274  1.00  0.00     0.016 C 
HETATM    2  C   UNL     1      40.797 -12.462   2.231  1.00  0.00    -0.030 C 
HETATM    3  C   UNL     1      40.610 -13.973   1.693  1.00  0.00     0.056 C 
HETATM    4  C   UNL     1      41.493 -14.937   2.457  1.00  0.00     0.056 A 
HETATM    5  C   UNL     1      42.395 -14.577   3.435  1.00  0.00     0.012 A 
HETATM    6  S   UNL     1      43.224 -15.945   4.023  1.00  0.00    -0.055 SA
HETATM    7  C   UNL     1      42.266 -16.923   3.005  1.00  0.00     0.173 A 
HETATM    8  N   UNL     1      41.409 -16.300   2.235  1.00  0.00    -0.227 NA
HETATM    9  C   UNL     1      42.631 -13.205   3.936  1.00  0.00     0.055 C 
HETATM   10  C   UNL     1      41.376 -12.322   3.715  1.00  0.00     0.012 C 
HETATM   11  C   UNL     1      40.308 -12.386   4.883  1.00  0.00     0.008 C 
HETATM   12  C   UNL     1      40.969 -11.948   6.223  1.00  0.00     0.020 C 
HETATM   13  C   UNL     1      39.162 -11.380   4.574  1.00  0.00     0.128 C 
HETATM   14  C   UNL     1      38.527 -11.623   3.209  1.00  0.00     0.033 C 
HETATM   15  C   UNL     1      39.547 -11.554   2.072  1.00  0.00     0.013 C 
ENDROOT
BRANCH   3  16
HETATM   16  C   UNL     1      39.178 -14.530   1.558  1.00  0.00     0.114 C 
BRANCH  16  17
HETATM   17  C   UNL     1      38.546 -14.228   0.207  1.00  0.00     0.218 C 
HETATM   18  N   UNL     1      39.369 -14.368  -0.877  1.00  0.00    -0.359 N 
HETATM   19  H   UNL     1      40.365 -14.562  -0.740  1.00  0.00     0.162 HD
HETATM   20  O   UNL     1      37.359 -13.920   0.114  1.00  0.00    -0.274 OA
BRANCH  18  21
HETATM   21  C   UNL     1      38.880 -14.283  -2.241  1.00  0.00     0.148 C 
BRANCH  21  22
HETATM   22  C   UNL     1      39.987 -14.198  -3.297  1.00  0.00     0.186 C 
BRANCH  22  23
HETATM   23  O   UNL     1      40.101 -15.446  -3.991  1.00  0.00    -0.394 OA
HETATM   24  C   UNL     1      38.826 -16.038  -4.198  1.00  0.00     0.201 C 
ENDBRANCH  22  23
ENDBRANCH  21  22
ENDBRANCH  18  21
ENDBRANCH  16  17
ENDBRANCH   3  16
BRANCH  11  25
HETATM   25  C   UNL     1      39.722 -13.799   5.113  1.00  0.00     0.176 C 
BRANCH  25  26
HETATM   26  O   UNL     1      40.085 -14.296   6.398  1.00  0.00    -0.400 OA
HETATM   27  H   UNL     1      39.917 -13.581   7.038  1.00  0.00     0.209 HD
ENDBRANCH  25  26
ENDBRANCH  11  25
BRANCH   7  28
HETATM   28  N   UNL     1      42.503 -18.260   3.138  1.00  0.00    -0.305 N 
HETATM   29  C   UNL     1      43.290 -18.965   2.254  1.00  0.00     0.227 C 
HETATM   30  O   UNL     1      43.842 -18.481   1.264  1.00  0.00    -0.273 OA
HETATM   31  H   UNL     1      42.032 -18.726   3.898  1.00  0.00     0.171 HD
BRANCH  29  32
HETATM   32  C   UNL     1      43.385 -20.476   2.621  1.00  0.00     0.078 C 
HETATM   33  C   UNL     1      43.843 -21.447   1.498  1.00  0.00     0.014 C 
HETATM   34  C   UNL     1      44.584 -22.249   2.584  1.00  0.00     0.002 C 
HETATM   35  C   UNL     1      44.637 -20.948   3.410  1.00  0.00     0.014 C 
ENDBRANCH  29  32
ENDBRANCH   7  28
BRANCH  13  36
HETATM   36  O   UNL     1      39.656 -10.036   4.580  1.00  0.00    -0.395 OA
HETATM   37  H   UNL     1      40.558 -10.060   4.215  1.00  0.00     0.210 HD
ENDBRANCH  13  36
TORSDOF 10
ENDMDL
MODEL 4
REMARK VINA RESULT:      -7.0      2.731      7.440
REMARK  10 active torsions:
REMARK  status: ('A' for Active; 'I' for Inactive)
REMARK    1  A    between atoms: C_3  and  C_4 
REMARK    2  A    between atoms: C_4  and  C_5 
REMARK       I    between atoms: C_5  and  N_6 
REMARK    3  A    between atoms: N_6  and  C_7 
REMARK    4  A    between atoms: C_7  and  C_8 
REMARK    5  A    between atoms: C_8  and  O_9 
REMARK    6  A    between atoms: C_15  and  N_16 
REMARK       I    between atoms: N_16  and  C_17 
REMARK    7  A    between atoms: C_17  and  C_18 
REMARK    8  A    between atoms: C_26  and  C_27 
REMARK    9  A    between atoms: C_27  and  O_28 
REMARK   10  A    between atoms: C_30  and  O_31 
ROOT
HETATM    1  C   UNL     1      40.300 -17.460   1.530  1.00  0.00     0.016 C 
HETATM    2  C   UNL     1      41.704 -17.014   2.074  1.00  0.00    -0.030 C 
HETATM    3  C   UNL     1      41.545 -15.432   2.359  1.00  0.00     0.056 C 
HETATM    4  C   UNL     1      41.181 -15.172   3.806  1.00  0.00     0.056 A 
HETATM    5  C   UNL     1      40.943 -16.149   4.748  1.00  0.00     0.012 A 
HETATM    6  S   UNL     1      40.523 -15.451   6.245  1.00  0.00    -0.055 SA
HETATM    7  C   UNL     1      40.775 -13.909   5.560  1.00  0.00     0.173 A 
HETATM    8  N   UNL     1      41.107 -13.880   4.294  1.00  0.00    -0.227 NA
HETATM    9  C   UNL     1      41.036 -17.609   4.529  1.00  0.00     0.055 C 
HETATM   10  C   UNL     1      42.001 -17.922   3.356  1.00  0.00     0.012 C 
HETATM   11  C   UNL     1      43.525 -18.055   3.771  1.00  0.00     0.008 C 
HETATM   12  C   UNL     1      43.683 -19.182   4.832  1.00  0.00     0.020 C 
HETATM   13  C   UNL     1      44.354 -18.467   2.520  1.00  0.00     0.128 C 
HETATM   14  C   UNL     1      44.164 -17.504   1.353  1.00  0.00     0.033 C 
HETATM   15  C   UNL     1      42.698 -17.375   0.937  1.00  0.00     0.013 C 
ENDROOT
BRANCH   3  16
HETATM   16  C   UNL     1      42.676 -14.489   1.899  1.00  0.00     0.114 C 
BRANCH  16  17
HETATM   17  C   UNL     1      42.270 -13.592   0.739  1.00  0.00     0.218 C 
HETATM   18  N   UNL     1      41.738 -14.231  -0.347  1.00  0.00    -0.359 N 
HETATM   19  H   UNL     1      41.727 -15.254  -0.381  1.00  0.00     0.162 HD
HETATM   20  O   UNL     1      42.384 -12.369   0.810  1.00  0.00    -0.274 OA
BRANCH  18  21
HETATM   21  C   UNL     1      41.148 -13.512  -1.461  1.00  0.00     0.148 C 
BRANCH  21  22
HETATM   22  C   UNL     1      41.953 -13.607  -2.761  1.00  0.00     0.186 C 
BRANCH  22  23
HETATM   23  O   UNL     1      41.326 -14.526  -3.663  1.00  0.00    -0.394 OA
HETATM   24  C   UNL     1      39.912 -14.503  -3.520  1.00  0.00     0.201 C 
ENDBRANCH  22  23
ENDBRANCH  21  22
ENDBRANCH  18  21
ENDBRANCH  16  17
ENDBRANCH   3  16
BRANCH  11  25
HETATM   25  C   UNL     1      44.114 -16.766   4.392  1.00  0.00     0.176 C 
BRANCH  25  26
HETATM   26  O   UNL     1      44.172 -16.869   5.813  1.00  0.00    -0.400 OA
HETATM   27  H   UNL     1      45.107 -17.005   6.051  1.00  0.00     0.209 HD
ENDBRANCH  25  26
ENDBRANCH  11  25
BRANCH   7  28
HETATM   28  N   UNL     1      40.617 -12.880   6.442  1.00  0.00    -0.305 N 
HETATM   29  C   UNL     1      39.526 -12.040   6.412  1.00  0.00     0.227 C 
HETATM   30  O   UNL     1      38.601 -12.116   5.599  1.00  0.00    -0.273 OA
HETATM   31  H   UNL     1      41.368 -12.730   7.097  1.00  0.00     0.171 HD
BRANCH  29  32
HETATM   32  C   UNL     1      39.596 -10.939   7.511  1.00  0.00     0.078 C 
HETATM   33  C   UNL     1      39.254 -11.370   8.965  1.00  0.00     0.014 C 
HETATM   34  C   UNL     1      40.341 -10.389   9.442  1.00  0.00     0.002 C 
HETATM   35  C   UNL     1      40.998 -10.553   8.057  1.00  0.00     0.014 C 
ENDBRANCH  29  32
ENDBRANCH   7  28
BRANCH  13  36
HETATM   36  O   UNL     1      43.966 -19.768   2.065  1.00  0.00    -0.395 OA
HETATM   37  H   UNL     1      44.444 -19.935   1.234  1.00  0.00     0.210 HD
ENDBRANCH  13  36
TORSDOF 10
ENDMDL
MODEL 5
REMARK VINA RESULT:      -7.0      2.930      6.423
REMARK  10 active torsions:
REMARK  status: ('A' for Active; 'I' for Inactive)
REMARK    1  A    between atoms: C_3  and  C_4 
REMARK    2  A    between atoms: C_4  and  C_5 
REMARK       I    between atoms: C_5  and  N_6 
REMARK    3  A    between atoms: N_6  and  C_7 
REMARK    4  A    between atoms: C_7  and  C_8 
REMARK    5  A    between atoms: C_8  and  O_9 
REMARK    6  A    between atoms: C_15  and  N_16 
REMARK       I    between atoms: N_16  and  C_17 
REMARK    7  A    between atoms: C_17  and  C_18 
REMARK    8  A    between atoms: C_26  and  C_27 
REMARK    9  A    between atoms: C_27  and  O_28 
REMARK   10  A    between atoms: C_30  and  O_31 
ROOT
HETATM    1  C   UNL     1      39.497 -13.348   6.178  1.00  0.00     0.016 C 
HETATM    2  C   UNL     1      40.614 -13.002   5.130  1.00  0.00    -0.030 C 
HETATM    3  C   UNL     1      41.788 -14.072   5.418  1.00  0.00     0.056 C 
HETATM    4  C   UNL     1      41.662 -15.278   4.510  1.00  0.00     0.056 A 
HETATM    5  C   UNL     1      40.644 -15.481   3.604  1.00  0.00     0.012 A 
HETATM    6  S   UNL     1      40.837 -16.974   2.806  1.00  0.00    -0.055 SA
HETATM    7  C   UNL     1      42.302 -17.199   3.652  1.00  0.00     0.173 A 
HETATM    8  N   UNL     1      42.629 -16.267   4.511  1.00  0.00    -0.227 NA
HETATM    9  C   UNL     1      39.526 -14.551   3.331  1.00  0.00     0.055 C 
HETATM   10  C   UNL     1      39.928 -13.097   3.689  1.00  0.00     0.012 C 
HETATM   11  C   UNL     1      40.652 -12.305   2.524  1.00  0.00     0.008 C 
HETATM   12  C   UNL     1      39.727 -12.250   1.273  1.00  0.00     0.020 C 
HETATM   13  C   UNL     1      40.902 -10.841   2.989  1.00  0.00     0.128 C 
HETATM   14  C   UNL     1      41.685 -10.772   4.296  1.00  0.00     0.033 C 
HETATM   15  C   UNL     1      40.990 -11.525   5.431  1.00  0.00     0.013 C 
ENDROOT
BRANCH   3  16
HETATM   16  C   UNL     1      43.245 -13.567   5.460  1.00  0.00     0.114 C 
BRANCH  16  17
HETATM   17  C   UNL     1      43.953 -13.895   6.766  1.00  0.00     0.218 C 
HETATM   18  N   UNL     1      44.531 -12.836   7.410  1.00  0.00    -0.359 N 
HETATM   19  H   UNL     1      44.555 -11.916   6.960  1.00  0.00     0.162 HD
HETATM   20  O   UNL     1      43.958 -15.040   7.217  1.00  0.00    -0.274 OA
BRANCH  18  21
HETATM   21  C   UNL     1      45.096 -12.949   8.742  1.00  0.00     0.148 C 
BRANCH  21  22
HETATM   22  C   UNL     1      44.333 -12.163   9.813  1.00  0.00     0.186 C 
BRANCH  22  23
HETATM   23  O   UNL     1      44.538 -12.757  11.100  1.00  0.00    -0.394 OA
HETATM   24  C   UNL     1      43.673 -12.186  12.073  1.00  0.00     0.201 C 
ENDBRANCH  22  23
ENDBRANCH  21  22
ENDBRANCH  18  21
ENDBRANCH  16  17
ENDBRANCH   3  16
BRANCH  11  25
HETATM   25  C   UNL     1      41.984 -12.949   2.069  1.00  0.00     0.176 C 
BRANCH  25  26
HETATM   26  O   UNL     1      42.698 -12.075   1.198  1.00  0.00    -0.400 OA
HETATM   27  H   UNL     1      43.485 -12.560   0.891  1.00  0.00     0.209 HD
ENDBRANCH  25  26
ENDBRANCH  11  25
BRANCH   7  28
HETATM   28  N   UNL     1      42.971 -18.337   3.306  1.00  0.00    -0.305 N 
HETATM   29  C   UNL     1      43.900 -18.369   2.289  1.00  0.00     0.227 C 
HETATM   30  O   UNL     1      44.212 -17.403   1.590  1.00  0.00    -0.273 OA
HETATM   31  H   UNL     1      42.718 -19.176   3.804  1.00  0.00     0.171 HD
BRANCH  29  32
HETATM   32  C   UNL     1      44.504 -19.791   2.085  1.00  0.00     0.078 C 
HETATM   33  C   UNL     1      44.892 -20.583   3.364  1.00  0.00     0.014 C 
HETATM   34  C   UNL     1      44.428 -21.858   2.635  1.00  0.00     0.002 C 
HETATM   35  C   UNL     1      43.522 -20.954   1.776  1.00  0.00     0.014 C 
ENDBRANCH  29  32
ENDBRANCH   7  28
BRANCH  13  36
HETATM   36  O   UNL     1      39.660 -10.161   3.199  1.00  0.00    -0.395 OA
HETATM   37  H   UNL     1      38.950 -10.782   2.962  1.00  0.00     0.210 HD
ENDBRANCH  13  36
TORSDOF 10
ENDMDL
MODEL 6
REMARK VINA RESULT:      -6.9      2.212      6.326
REMARK  10 active torsions:
REMARK  status: ('A' for Active; 'I' for Inactive)
REMARK    1  A    between atoms: C_3  and  C_4 
REMARK    2  A    between atoms: C_4  and  C_5 
REMARK       I    between atoms: C_5  and  N_6 
REMARK    3  A    between atoms: N_6  and  C_7 
REMARK    4  A    between atoms: C_7  and  C_8 
REMARK    5  A    between atoms: C_8  and  O_9 
REMARK    6  A    between atoms: C_15  and  N_16 
REMARK       I    between atoms: N_16  and  C_17 
REMARK    7  A    between atoms: C_17  and  C_18 
REMARK    8  A    between atoms: C_26  and  C_27 
REMARK    9  A    between atoms: C_27  and  O_28 
REMARK   10  A    between atoms: C_30  and  O_31 
ROOT
HETATM    1  C   UNL     1      39.124 -13.012   3.905  1.00  0.00     0.016 C 
HETATM    2  C   UNL     1      40.173 -13.017   2.737  1.00  0.00    -0.030 C 
HETATM    3  C   UNL     1      41.426 -13.852   3.320  1.00  0.00     0.056 C 
HETATM    4  C   UNL     1      41.345 -15.310   2.917  1.00  0.00     0.056 A 
HETATM    5  C   UNL     1      40.308 -15.876   2.209  1.00  0.00     0.012 A 
HETATM    6  S   UNL     1      40.569 -17.546   1.992  1.00  0.00    -0.055 SA
HETATM    7  C   UNL     1      42.077 -17.379   2.772  1.00  0.00     0.173 A 
HETATM    8  N   UNL     1      42.375 -16.184   3.215  1.00  0.00    -0.227 NA
HETATM    9  C   UNL     1      39.121 -15.165   1.687  1.00  0.00     0.055 C 
HETATM   10  C   UNL     1      39.439 -13.662   1.472  1.00  0.00     0.012 C 
HETATM   11  C   UNL     1      40.063 -13.314   0.058  1.00  0.00     0.008 C 
HETATM   12  C   UNL     1      39.088 -13.761  -1.070  1.00  0.00     0.020 C 
HETATM   13  C   UNL     1      40.233 -11.771  -0.051  1.00  0.00     0.128 C 
HETATM   14  C   UNL     1      41.060 -11.194   1.093  1.00  0.00     0.033 C 
HETATM   15  C   UNL     1      40.461 -11.515   2.463  1.00  0.00     0.013 C 
ENDROOT
BRANCH   3  16
HETATM   16  C   UNL     1      42.847 -13.297   3.089  1.00  0.00     0.114 C 
BRANCH  16  17
HETATM   17  C   UNL     1      43.807 -13.624   4.224  1.00  0.00     0.218 C 
HETATM   18  N   UNL     1      43.226 -13.901   5.431  1.00  0.00    -0.359 N 
HETATM   19  H   UNL     1      42.216 -13.784   5.549  1.00  0.00     0.162 HD
HETATM   20  O   UNL     1      45.022 -13.671   4.036  1.00  0.00    -0.274 OA
BRANCH  18  21
HETATM   21  C   UNL     1      43.985 -14.394   6.565  1.00  0.00     0.148 C 
BRANCH  21  22
HETATM   22  C   UNL     1      44.062 -15.921   6.649  1.00  0.00     0.186 C 
BRANCH  22  23
HETATM   23  O   UNL     1      43.448 -16.379   7.860  1.00  0.00    -0.394 OA
HETATM   24  C   UNL     1      43.449 -17.798   7.932  1.00  0.00     0.201 C 
ENDBRANCH  22  23
ENDBRANCH  21  22
ENDBRANCH  18  21
ENDBRANCH  16  17
ENDBRANCH   3  16
BRANCH  11  25
HETATM   25  C   UNL     1      41.416 -14.014  -0.214  1.00  0.00     0.176 C 
BRANCH  25  26
HETATM   26  O   UNL     1      41.447 -14.565  -1.528  1.00  0.00    -0.400 OA
HETATM   27  H   UNL     1      42.376 -14.782  -1.724  1.00  0.00     0.209 HD
ENDBRANCH  25  26
ENDBRANCH  11  25
BRANCH   7  28
HETATM   28  N   UNL     1      42.807 -18.531   2.819  1.00  0.00    -0.305 N 
HETATM   29  C   UNL     1      43.978 -18.696   2.112  1.00  0.00     0.227 C 
HETATM   30  O   UNL     1      44.477 -17.847   1.370  1.00  0.00    -0.273 OA
HETATM   31  H   UNL     1      42.421 -19.285   3.366  1.00  0.00     0.171 HD
BRANCH  29  32
HETATM   32  C   UNL     1      44.603 -20.106   2.324  1.00  0.00     0.078 C 
HETATM   33  C   UNL     1      44.530 -20.702   3.758  1.00  0.00     0.014 C 
HETATM   34  C   UNL     1      44.329 -22.082   3.103  1.00  0.00     0.002 C 
HETATM   35  C   UNL     1      43.774 -21.339   1.872  1.00  0.00     0.014 C 
ENDBRANCH  29  32
ENDBRANCH   7  28
BRANCH  13  36
HETATM   36  O   UNL     1      38.958 -11.120  -0.026  1.00  0.00    -0.395 OA
HETATM   37  H   UNL     1      39.119 -10.170  -0.158  1.00  0.00     0.210 HD
ENDBRANCH  13  36
TORSDOF 10
ENDMDL
MODEL 7
REMARK VINA RESULT:      -6.8      2.589      7.200
REMARK  10 active torsions:
REMARK  status: ('A' for Active; 'I' for Inactive)
REMARK    1  A    between atoms: C_3  and  C_4 
REMARK    2  A    between atoms: C_4  and  C_5 
REMARK       I    between atoms: C_5  and  N_6 
REMARK    3  A    between atoms: N_6  and  C_7 
REMARK    4  A    between atoms: C_7  and  C_8 
REMARK    5  A    between atoms: C_8  and  O_9 
REMARK    6  A    between atoms: C_15  and  N_16 
REMARK       I    between atoms: N_16  and  C_17 
REMARK    7  A    between atoms: C_17  and  C_18 
REMARK    8  A    between atoms: C_26  and  C_27 
REMARK    9  A    between atoms: C_27  and  O_28 
REMARK   10  A    between atoms: C_30  and  O_31 
ROOT
HETATM    1  C   UNL     1      38.287 -12.609   1.190  1.00  0.00     0.016 C 
HETATM    2  C   UNL     1      39.739 -12.238   0.722  1.00  0.00    -0.030 C 
HETATM    3  C   UNL     1      40.709 -13.076   1.704  1.00  0.00     0.056 C 
HETATM    4  C   UNL     1      41.114 -14.393   1.075  1.00  0.00     0.056 A 
HETATM    5  C   UNL     1      40.664 -14.859  -0.141  1.00  0.00     0.012 A 
HETATM    6  S   UNL     1      41.319 -16.397  -0.475  1.00  0.00    -0.055 SA
HETATM    7  C   UNL     1      42.219 -16.292   0.970  1.00  0.00     0.173 A 
HETATM    8  N   UNL     1      42.034 -15.219   1.697  1.00  0.00    -0.227 NA
HETATM    9  C   UNL     1      39.747 -14.149  -1.058  1.00  0.00     0.055 C 
HETATM   10  C   UNL     1      39.826 -12.618  -0.828  1.00  0.00     0.012 C 
HETATM   11  C   UNL     1      40.958 -11.883  -1.659  1.00  0.00     0.008 C 
HETATM   12  C   UNL     1      40.734 -12.125  -3.179  1.00  0.00     0.020 C 
HETATM   13  C   UNL     1      40.853 -10.351  -1.407  1.00  0.00     0.128 C 
HETATM   14  C   UNL     1      40.915  -9.999   0.076  1.00  0.00     0.033 C 
HETATM   15  C   UNL     1      39.821 -10.695   0.886  1.00  0.00     0.013 C 
ENDROOT
BRANCH   3  16
HETATM   16  C   UNL     1      41.932 -12.359   2.311  1.00  0.00     0.114 C 
BRANCH  16  17
HETATM   17  C   UNL     1      42.013 -12.497   3.825  1.00  0.00     0.218 C 
HETATM   18  N   UNL     1      42.882 -13.446   4.288  1.00  0.00    -0.359 N 
HETATM   19  H   UNL     1      43.351 -14.074   3.628  1.00  0.00     0.162 HD
HETATM   20  O   UNL     1      41.361 -11.763   4.567  1.00  0.00    -0.274 OA
BRANCH  18  21
HETATM   21  C   UNL     1      43.201 -13.589   5.696  1.00  0.00     0.148 C 
BRANCH  21  22
HETATM   22  C   UNL     1      43.635 -15.001   6.099  1.00  0.00     0.186 C 
BRANCH  22  23
HETATM   23  O   UNL     1      44.802 -14.940   6.927  1.00  0.00    -0.394 OA
HETATM   24  C   UNL     1      44.912 -13.677   7.570  1.00  0.00     0.201 C 
ENDBRANCH  22  23
ENDBRANCH  21  22
ENDBRANCH  18  21
ENDBRANCH  16  17
ENDBRANCH   3  16
BRANCH  11  25
HETATM   25  C   UNL     1      42.388 -12.374  -1.330  1.00  0.00     0.176 C 
BRANCH  25  26
HETATM   26  O   UNL     1      42.872 -13.243  -2.351  1.00  0.00    -0.400 OA
HETATM   27  H   UNL     1      42.985 -12.704  -3.154  1.00  0.00     0.209 HD
ENDBRANCH  25  26
ENDBRANCH  11  25
BRANCH   7  28
HETATM   28  N   UNL     1      43.052 -17.352   1.182  1.00  0.00    -0.305 N 
HETATM   29  C   UNL     1      42.946 -18.169   2.286  1.00  0.00     0.227 C 
HETATM   30  O   UNL     1      42.116 -18.030   3.187  1.00  0.00    -0.273 OA
HETATM   31  H   UNL     1      43.790 -17.485   0.508  1.00  0.00     0.171 HD
BRANCH  29  32
HETATM   32  C   UNL     1      44.026 -19.291   2.297  1.00  0.00     0.078 C 
HETATM   33  C   UNL     1      44.383 -19.914   3.676  1.00  0.00     0.014 C 
HETATM   34  C   UNL     1      44.544 -21.263   2.951  1.00  0.00     0.002 C 
HETATM   35  C   UNL     1      43.587 -20.719   1.872  1.00  0.00     0.014 C 
ENDBRANCH  29  32
ENDBRANCH   7  28
BRANCH  13  36
HETATM   36  O   UNL     1      39.614  -9.841  -1.914  1.00  0.00    -0.395 OA
HETATM   37  H   UNL     1      38.901 -10.259  -1.400  1.00  0.00     0.210 HD
ENDBRANCH  13  36
TORSDOF 10
ENDMDL
MODEL 8
REMARK VINA RESULT:      -6.4      2.832      7.824
REMARK  10 active torsions:
REMARK  status: ('A' for Active; 'I' for Inactive)
REMARK    1  A    between atoms: C_3  and  C_4 
REMARK    2  A    between atoms: C_4  and  C_5 
REMARK       I    between atoms: C_5  and  N_6 
REMARK    3  A    between atoms: N_6  and  C_7 
REMARK    4  A    between atoms: C_7  and  C_8 
REMARK    5  A    between atoms: C_8  and  O_9 
REMARK    6  A    between atoms: C_15  and  N_16 
REMARK       I    between atoms: N_16  and  C_17 
REMARK    7  A    between atoms: C_17  and  C_18 
REMARK    8  A    between atoms: C_26  and  C_27 
REMARK    9  A    between atoms: C_27  and  O_28 
REMARK   10  A    between atoms: C_30  and  O_31 
ROOT
HETATM    1  C   UNL     1      41.939 -11.254   0.916  1.00  0.00     0.016 C 
HETATM    2  C   UNL     1      40.909 -12.293   1.486  1.00  0.00    -0.030 C 
HETATM    3  C   UNL     1      41.191 -13.646   0.652  1.00  0.00     0.056 C 
HETATM    4  C   UNL     1      42.142 -14.558   1.398  1.00  0.00     0.056 A 
HETATM    5  C   UNL     1      42.749 -14.255   2.597  1.00  0.00     0.012 A 
HETATM    6  S   UNL     1      43.778 -15.523   3.088  1.00  0.00    -0.055 SA
HETATM    7  C   UNL     1      43.274 -16.416   1.725  1.00  0.00     0.173 A 
HETATM    8  N   UNL     1      42.433 -15.822   0.916  1.00  0.00    -0.227 NA
HETATM    9  C   UNL     1      42.555 -13.016   3.381  1.00  0.00     0.055 C 
HETATM   10  C   UNL     1      41.177 -12.380   3.060  1.00  0.00     0.012 C 
HETATM   11  C   UNL     1      39.977 -12.926   3.938  1.00  0.00     0.008 C 
HETATM   12  C   UNL     1      40.275 -12.680   5.445  1.00  0.00     0.020 C 
HETATM   13  C   UNL     1      38.688 -12.132   3.578  1.00  0.00     0.128 C 
HETATM   14  C   UNL     1      38.371 -12.181   2.087  1.00  0.00     0.033 C 
HETATM   15  C   UNL     1      39.519 -11.647   1.230  1.00  0.00     0.013 C 
ENDROOT
BRANCH   3  16
HETATM   16  C   UNL     1      39.983 -14.438   0.110  1.00  0.00     0.114 C 
BRANCH  16  17
HETATM   17  C   UNL     1      39.885 -14.411  -1.408  1.00  0.00     0.218 C 
HETATM   18  N   UNL     1      39.351 -13.273  -1.949  1.00  0.00    -0.359 N 
HETATM   19  H   UNL     1      38.959 -12.553  -1.335  1.00  0.00     0.162 HD
HETATM   20  O   UNL     1      40.303 -15.346  -2.089  1.00  0.00    -0.274 OA
BRANCH  18  21
HETATM   21  C   UNL     1      39.343 -13.020  -3.377  1.00  0.00     0.148 C 
BRANCH  21  22
HETATM   22  C   UNL     1      40.584 -12.280  -3.887  1.00  0.00     0.186 C 
BRANCH  22  23
HETATM   23  O   UNL     1      40.194 -11.135  -4.654  1.00  0.00    -0.394 OA
HETATM   24  C   UNL     1      39.425 -10.230  -3.873  1.00  0.00     0.201 C 
ENDBRANCH  22  23
ENDBRANCH  21  22
ENDBRANCH  18  21
ENDBRANCH  16  17
ENDBRANCH   3  16
BRANCH  11  25
HETATM   25  C   UNL     1      39.724 -14.443   3.771  1.00  0.00     0.176 C 
BRANCH  25  26
HETATM   26  O   UNL     1      40.033 -15.144   4.973  1.00  0.00    -0.400 OA
HETATM   27  H   UNL     1      40.838 -14.736   5.342  1.00  0.00     0.209 HD
ENDBRANCH  25  26
ENDBRANCH  11  25
BRANCH   7  28
HETATM   28  N   UNL     1      43.806 -17.671   1.658  1.00  0.00    -0.305 N 
HETATM   29  C   UNL     1      43.408 -18.690   2.497  1.00  0.00     0.227 C 
HETATM   30  O   UNL     1      42.558 -18.580   3.383  1.00  0.00    -0.273 OA
HETATM   31  H   UNL     1      44.547 -17.810   0.990  1.00  0.00     0.171 HD
BRANCH  29  32
HETATM   32  C   UNL     1      44.182 -20.014   2.226  1.00  0.00     0.078 C 
HETATM   33  C   UNL     1      44.574 -20.867   3.465  1.00  0.00     0.014 C 
HETATM   34  C   UNL     1      44.307 -22.118   2.605  1.00  0.00     0.002 C 
HETATM   35  C   UNL     1      43.362 -21.246   1.755  1.00  0.00     0.014 C 
ENDBRANCH  29  32
ENDBRANCH   7  28
BRANCH  13  36
HETATM   36  O   UNL     1      38.829 -10.753   3.938  1.00  0.00    -0.395 OA
HETATM   37  H   UNL     1      38.762 -10.702   4.908  1.00  0.00     0.210 HD
ENDBRANCH  13  36
TORSDOF 10
ENDMDL
MODEL 9
REMARK VINA RESULT:      -6.2      2.896      7.992
REMARK  10 active torsions:
REMARK  status: ('A' for Active; 'I' for Inactive)
REMARK    1  A    between atoms: C_3  and  C_4 
REMARK    2  A    between atoms: C_4  and  C_5 
REMARK       I    between atoms: C_5  and  N_6 
REMARK    3  A    between atoms: N_6  and  C_7 
REMARK    4  A    between atoms: C_7  and  C_8 
REMARK    5  A    between atoms: C_8  and  O_9 
REMARK    6  A    between atoms: C_15  and  N_16 
REMARK       I    between atoms: N_16  and  C_17 
REMARK    7  A    between atoms: C_17  and  C_18 
REMARK    8  A    between atoms: C_26  and  C_27 
REMARK    9  A    between atoms: C_27  and  O_28 
REMARK   10  A    between atoms: C_30  and  O_31 
ROOT
HETATM    1  C   UNL     1      40.633 -17.850   3.942  1.00  0.00     0.016 C 
HETATM    2  C   UNL     1      42.194 -17.790   3.780  1.00  0.00    -0.030 C 
HETATM    3  C   UNL     1      42.576 -16.253   4.099  1.00  0.00     0.056 C 
HETATM    4  C   UNL     1      42.972 -16.080   5.550  1.00  0.00     0.056 A 
HETATM    5  C   UNL     1      42.944 -17.077   6.501  1.00  0.00     0.012 A 
HETATM    6  S   UNL     1      43.422 -16.473   8.021  1.00  0.00    -0.055 SA
HETATM    7  C   UNL     1      43.716 -14.959   7.290  1.00  0.00     0.173 A 
HETATM    8  N   UNL     1      43.445 -14.865   6.013  1.00  0.00    -0.227 NA
HETATM    9  C   UNL     1      42.564 -18.488   6.270  1.00  0.00     0.055 C 
HETATM   10  C   UNL     1      42.795 -18.876   4.786  1.00  0.00     0.012 C 
HETATM   11  C   UNL     1      44.258 -19.389   4.457  1.00  0.00     0.008 C 
HETATM   12  C   UNL     1      44.587 -20.633   5.332  1.00  0.00     0.020 C 
HETATM   13  C   UNL     1      44.312 -19.835   2.967  1.00  0.00     0.128 C 
HETATM   14  C   UNL     1      43.868 -18.732   2.013  1.00  0.00     0.033 C 
HETATM   15  C   UNL     1      42.453 -18.235   2.315  1.00  0.00     0.013 C 
ENDROOT
BRANCH   3  16
HETATM   16  C   UNL     1      43.578 -15.540   3.168  1.00  0.00     0.114 C 
BRANCH  16  17
HETATM   17  C   UNL     1      42.941 -14.433   2.342  1.00  0.00     0.218 C 
HETATM   18  N   UNL     1      42.108 -14.846   1.338  1.00  0.00    -0.359 N 
HETATM   19  H   UNL     1      42.026 -15.843   1.122  1.00  0.00     0.162 HD
HETATM   20  O   UNL     1      43.143 -13.248   2.603  1.00  0.00    -0.274 OA
BRANCH  18  21
HETATM   21  C   UNL     1      41.295 -13.920   0.572  1.00  0.00     0.148 C 
BRANCH  21  22
HETATM   22  C   UNL     1      40.498 -14.577  -0.559  1.00  0.00     0.186 C 
BRANCH  22  23
HETATM   23  O   UNL     1      41.348 -14.815  -1.687  1.00  0.00    -0.394 OA
HETATM   24  C   UNL     1      40.655 -15.508  -2.716  1.00  0.00     0.201 C 
ENDBRANCH  22  23
ENDBRANCH  21  22
ENDBRANCH  18  21
ENDBRANCH  16  17
ENDBRANCH   3  16
BRANCH  11  25
HETATM   25  C   UNL     1      45.361 -18.341   4.733  1.00  0.00     0.176 C 
BRANCH  25  26
HETATM   26  O   UNL     1      45.852 -18.460   6.066  1.00  0.00    -0.400 OA
HETATM   27  H   UNL     1      46.770 -18.136   6.062  1.00  0.00     0.209 HD
ENDBRANCH  25  26
ENDBRANCH  11  25
BRANCH   7  28
HETATM   28  N   UNL     1      44.228 -14.024   8.142  1.00  0.00    -0.305 N 
HETATM   29  C   UNL     1      45.311 -13.237   7.815  1.00  0.00     0.227 C 
HETATM   30  O   UNL     1      45.928 -13.297   6.750  1.00  0.00    -0.273 OA
HETATM   31  H   UNL     1      43.801 -13.966   9.054  1.00  0.00     0.171 HD
BRANCH  29  32
HETATM   32  C   UNL     1      45.705 -12.266   8.967  1.00  0.00     0.078 C 
HETATM   33  C   UNL     1      44.811 -11.011   9.169  1.00  0.00     0.014 C 
HETATM   34  C   UNL     1      45.044 -11.171  10.684  1.00  0.00     0.002 C 
HETATM   35  C   UNL     1      45.308 -12.665  10.415  1.00  0.00     0.014 C 
ENDBRANCH  29  32
ENDBRANCH   7  28
BRANCH  13  36
HETATM   36  O   UNL     1      43.454 -20.960   2.746  1.00  0.00    -0.395 OA
HETATM   37  H   UNL     1      43.994 -21.761   2.867  1.00  0.00     0.210 HD
ENDBRANCH  13  36
TORSDOF 10
ENDMDL
MODEL 10
REMARK VINA RESULT:      -6.2      4.536      7.555
REMARK  10 active torsions:
REMARK  status: ('A' for Active; 'I' for Inactive)
REMARK    1  A    between atoms: C_3  and  C_4 
REMARK    2  A    between atoms: C_4  and  C_5 
REMARK       I    between atoms: C_5  and  N_6 
REMARK    3  A    between atoms: N_6  and  C_7 
REMARK    4  A    between atoms: C_7  and  C_8 
REMARK    5  A    between atoms: C_8  and  O_9 
REMARK    6  A    between atoms: C_15  and  N_16 
REMARK       I    between atoms: N_16  and  C_17 
REMARK    7  A    between atoms: C_17  and  C_18 
REMARK    8  A    between atoms: C_26  and  C_27 
REMARK    9  A    between atoms: C_27  and  O_28 
REMARK   10  A    between atoms: C_30  and  O_31 
ROOT
HETATM    1  C   UNL     1      42.132 -12.135   0.763  1.00  0.00     0.016 C 
HETATM    2  C   UNL     1      40.992 -13.057   0.201  1.00  0.00    -0.030 C 
HETATM    3  C   UNL     1      39.842 -13.018   1.333  1.00  0.00     0.056 C 
HETATM    4  C   UNL     1      38.801 -11.964   1.017  1.00  0.00     0.056 A 
HETATM    5  C   UNL     1      38.854 -11.098  -0.053  1.00  0.00     0.012 A 
HETATM    6  S   UNL     1      37.519 -10.038  -0.037  1.00  0.00    -0.055 SA
HETATM    7  C   UNL     1      36.923 -10.863   1.333  1.00  0.00     0.173 A 
HETATM    8  N   UNL     1      37.666 -11.836   1.797  1.00  0.00    -0.227 NA
HETATM    9  C   UNL     1      39.904 -11.066  -1.095  1.00  0.00     0.055 C 
HETATM   10  C   UNL     1      40.584 -12.454  -1.222  1.00  0.00     0.012 C 
HETATM   11  C   UNL     1      39.862 -13.455  -2.216  1.00  0.00     0.008 C 
HETATM   12  C   UNL     1      39.793 -12.825  -3.637  1.00  0.00     0.020 C 
HETATM   13  C   UNL     1      40.705 -14.758  -2.320  1.00  0.00     0.128 C 
HETATM   14  C   UNL     1      40.962 -15.395  -0.959  1.00  0.00     0.033 C 
HETATM   15  C   UNL     1      41.669 -14.442   0.006  1.00  0.00     0.013 C 
ENDROOT
BRANCH   3  16
HETATM   16  C   UNL     1      39.172 -14.346   1.742  1.00  0.00     0.114 C 
BRANCH  16  17
HETATM   17  C   UNL     1      39.852 -15.017   2.926  1.00  0.00     0.218 C 
HETATM   18  N   UNL     1      40.293 -16.295   2.711  1.00  0.00    -0.359 N 
HETATM   19  H   UNL     1      40.068 -16.770   1.832  1.00  0.00     0.162 HD
HETATM   20  O   UNL     1      40.022 -14.418   3.987  1.00  0.00    -0.274 OA
BRANCH  18  21
HETATM   21  C   UNL     1      41.106 -17.010   3.676  1.00  0.00     0.148 C 
BRANCH  21  22
HETATM   22  C   UNL     1      42.531 -17.303   3.197  1.00  0.00     0.186 C 
BRANCH  22  23
HETATM   23  O   UNL     1      42.496 -18.006   1.949  1.00  0.00    -0.394 OA
HETATM   24  C   UNL     1      43.526 -17.558   1.078  1.00  0.00     0.201 C 
ENDBRANCH  22  23
ENDBRANCH  21  22
ENDBRANCH  18  21
ENDBRANCH  16  17
ENDBRANCH   3  16
BRANCH  11  25
HETATM   25  C   UNL     1      38.410 -13.798  -1.806  1.00  0.00     0.176 C 
BRANCH  25  26
HETATM   26  O   UNL     1      37.922 -14.911  -2.551  1.00  0.00    -0.400 OA
HETATM   27  H   UNL     1      38.070 -15.705  -2.006  1.00  0.00     0.209 HD
ENDBRANCH  25  26
ENDBRANCH  11  25
BRANCH   7  28
HETATM   28  N   UNL     1      35.712 -10.409   1.768  1.00  0.00    -0.305 N 
HETATM   29  C   UNL     1      34.551 -10.592   1.050  1.00  0.00     0.227 C 
HETATM   30  O   UNL     1      34.480 -11.162  -0.041  1.00  0.00    -0.273 OA
HETATM   31  H   UNL     1      35.712  -9.885   2.629  1.00  0.00     0.171 HD
BRANCH  29  32
HETATM   32  C   UNL     1      33.313  -9.964   1.758  1.00  0.00     0.078 C 
HETATM   33  C   UNL     1      32.369 -10.933   2.522  1.00  0.00     0.014 C 
HETATM   34  C   UNL     1      32.173  -9.816   3.564  1.00  0.00     0.002 C 
HETATM   35  C   UNL     1      33.543  -9.262   3.124  1.00  0.00     0.014 C 
ENDBRANCH  29  32
ENDBRANCH   7  28
BRANCH  13  36
HETATM   36  O   UNL     1      41.981 -14.487  -2.911  1.00  0.00    -0.395 OA
HETATM   37  H   UNL     1      41.855 -14.488  -3.877  1.00  0.00     0.210 HD
ENDBRANCH  13  36
TORSDOF 10
ENDMDL
