MODEL 1
REMARK VINA RESULT:      -8.3      0.000      0.000
REMARK  6 active torsions:
REMARK  status: ('A' for Active; 'I' for Inactive)
REMARK    1  A    between atoms: C_2  and  O_3 
REMARK    2  A    between atoms: O_3  and  C_4 
REMARK    3  A    between atoms: C_7  and  C_8 
REMARK       I    between atoms: N_11  and  C_12 
REMARK       I    between atoms: C_12  and  N_13 
REMARK    4  A    between atoms: N_13  and  C_14 
REMARK    5  A    between atoms: C_14  and  C_15 
REMARK    6  A    between atoms: C_15  and  C_16 
ROOT
HETATM    1  C   UNL     1      42.132 -16.103   4.762  1.00  0.00    -0.049 C 
HETATM    2  C   UNL     1      42.732 -15.277   5.866  1.00  0.00     0.059 C 
HETATM    3  C   UNL     1      42.184 -13.849   5.854  1.00  0.00     0.132 C 
HETATM    4  N   UNL     1      40.721 -13.823   5.777  1.00  0.00    -0.331 N 
HETATM    5  C   UNL     1      39.949 -12.766   6.247  1.00  0.00     0.318 C 
HETATM    6  N   UNL     1      40.579 -11.915   7.108  1.00  0.00    -0.338 N 
HETATM    7  O   UNL     1      38.792 -12.573   5.876  1.00  0.00    -0.247 OA
HETATM    8  C   UNL     1      40.110 -14.587   4.694  1.00  0.00     0.155 C 
HETATM    9  C   UNL     1      40.937 -15.758   4.245  1.00  0.00     0.001 C 
HETATM   10  H   UNL     1      41.300 -12.296   7.710  1.00  0.00     0.164 HD
ENDROOT
BRANCH   6  11
HETATM   11  C   UNL     1      39.954 -10.713   7.646  1.00  0.00     0.087 C 
HETATM   12  C   UNL     1      39.102 -11.033   8.876  1.00  0.00     0.032 C 
BRANCH  11  13
HETATM   13  C   UNL     1      41.013  -9.630   7.928  1.00  0.00     0.085 C 
BRANCH  13  14
HETATM   14  C   UNL     1      42.035  -9.989   8.965  1.00  0.00     0.058 A 
HETATM   15  N   UNL     1      43.114 -10.725   8.657  1.00  0.00    -0.179 NA
HETATM   16  N   UNL     1      43.793 -10.808   9.814  1.00  0.00    -0.282 N 
HETATM   17  H   UNL     1      44.664 -11.329   9.824  1.00  0.00     0.189 HD
HETATM   18  C   UNL     1      43.194 -10.149  10.850  1.00  0.00     0.026 A 
HETATM   19  C   UNL     1      43.779 -10.094  12.208  1.00  0.00     0.070 C 
HETATM   20  C   UNL     1      42.043  -9.606  10.327  1.00  0.00     0.055 A 
ENDBRANCH  13  14
ENDBRANCH  11  13
ENDBRANCH   6  11
BRANCH   1  21
HETATM   21  C   UNL     1      42.898 -17.242   4.219  1.00  0.00    -0.030 A 
HETATM   22  C   UNL     1      43.209 -17.313   2.854  1.00  0.00     0.014 A 
HETATM   23  C   UNL     1      43.945 -18.386   2.334  1.00  0.00     0.037 A 
HETATM   24  C   UNL     1      44.381 -19.409   3.174  1.00  0.00     0.068 A 
HETATM   25  C   UNL     1      44.066 -19.352   4.532  1.00  0.00     0.037 A 
HETATM   26  C   UNL     1      43.335 -18.279   5.052  1.00  0.00     0.014 A 
BRANCH  24  27
HETATM   27  O   UNL     1      45.105 -20.505   2.794  1.00  0.00    -0.352 OA
BRANCH  27  28
HETATM   28  C   UNL     1      44.421 -21.758   2.788  1.00  0.00     0.171 C 
HETATM   29  C   UNL     1      43.786 -21.942   1.422  1.00  0.00     0.034 C 
ENDBRANCH  27  28
ENDBRANCH  24  27
ENDBRANCH   1  21
TORSDOF 6
ENDMDL
MODEL 2
REMARK VINA RESULT:      -7.7      6.232      8.395
REMARK  6 active torsions:
REMARK  status: ('A' for Active; 'I' for Inactive)
REMARK    1  A    between atoms: C_2  and  O_3 
REMARK    2  A    between atoms: O_3  and  C_4 
REMARK    3  A    between atoms: C_7  and  C_8 
REMARK       I    between atoms: N_11  and  C_12 
REMARK       I    between atoms: C_12  and  N_13 
REMARK    4  A    between atoms: N_13  and  C_14 
REMARK    5  A    between atoms: C_14  and  C_15 
REMARK    6  A    between atoms: C_15  and  C_16 
ROOT
HETATM    1  C   UNL     1      42.004 -17.103   2.166  1.00  0.00    -0.049 C 
HETATM    2  C   UNL     1      42.471 -16.361   0.944  1.00  0.00     0.059 C 
HETATM    3  C   UNL     1      41.293 -15.924   0.073  1.00  0.00     0.132 C 
HETATM    4  N   UNL     1      40.253 -15.249   0.853  1.00  0.00    -0.331 N 
HETATM    5  C   UNL     1      39.362 -14.331   0.308  1.00  0.00     0.318 C 
HETATM    6  N   UNL     1      39.720 -13.811  -0.901  1.00  0.00    -0.338 N 
HETATM    7  O   UNL     1      38.295 -14.043   0.848  1.00  0.00    -0.247 OA
HETATM    8  C   UNL     1      39.753 -15.960   2.027  1.00  0.00     0.155 C 
HETATM    9  C   UNL     1      40.756 -16.900   2.631  1.00  0.00     0.001 C 
HETATM   10  H   UNL     1      40.708 -13.705  -1.098  1.00  0.00     0.164 HD
ENDROOT
BRANCH   6  11
HETATM   11  C   UNL     1      38.878 -12.891  -1.657  1.00  0.00     0.087 C 
HETATM   12  C   UNL     1      39.054 -11.451  -1.171  1.00  0.00     0.032 C 
BRANCH  11  13
HETATM   13  C   UNL     1      39.136 -13.038  -3.169  1.00  0.00     0.085 C 
BRANCH  13  14
HETATM   14  C   UNL     1      40.387 -12.382  -3.673  1.00  0.00     0.058 A 
HETATM   15  N   UNL     1      41.590 -12.956  -3.514  1.00  0.00    -0.179 NA
HETATM   16  N   UNL     1      42.439 -12.101  -4.108  1.00  0.00    -0.282 N 
HETATM   17  H   UNL     1      43.428 -12.331  -4.113  1.00  0.00     0.189 HD
HETATM   18  C   UNL     1      41.828 -11.005  -4.646  1.00  0.00     0.026 A 
HETATM   19  C   UNL     1      42.571  -9.946  -5.364  1.00  0.00     0.070 C 
HETATM   20  C   UNL     1      40.487 -11.158  -4.376  1.00  0.00     0.055 A 
ENDBRANCH  13  14
ENDBRANCH  11  13
ENDBRANCH   6  11
BRANCH   1  21
HETATM   21  C   UNL     1      42.903 -18.089   2.796  1.00  0.00    -0.030 A 
HETATM   22  C   UNL     1      43.633 -18.995   2.015  1.00  0.00     0.014 A 
HETATM   23  C   UNL     1      44.497 -19.927   2.605  1.00  0.00     0.037 A 
HETATM   24  C   UNL     1      44.642 -19.969   3.990  1.00  0.00     0.068 A 
HETATM   25  C   UNL     1      43.909 -19.079   4.776  1.00  0.00     0.037 A 
HETATM   26  C   UNL     1      43.050 -18.145   4.186  1.00  0.00     0.014 A 
BRANCH  24  27
HETATM   27  O   UNL     1      45.449 -20.825   4.687  1.00  0.00    -0.352 OA
BRANCH  27  28
HETATM   28  C   UNL     1      44.826 -21.971   5.268  1.00  0.00     0.171 C 
HETATM   29  C   UNL     1      44.559 -22.974   4.160  1.00  0.00     0.034 C 
ENDBRANCH  27  28
ENDBRANCH  24  27
ENDBRANCH   1  21
TORSDOF 6
ENDMDL
MODEL 3
REMARK VINA RESULT:      -7.7      6.156      8.456
REMARK  6 active torsions:
REMARK  status: ('A' for Active; 'I' for Inactive)
REMARK    1  A    between atoms: C_2  and  O_3 
REMARK    2  A    between atoms: O_3  and  C_4 
REMARK    3  A    between atoms: C_7  and  C_8 
REMARK       I    between atoms: N_11  and  C_12 
REMARK       I    between atoms: C_12  and  N_13 
REMARK    4  A    between atoms: N_13  and  C_14 
REMARK    5  A    between atoms: C_14  and  C_15 
REMARK    6  A    between atoms: C_15  and  C_16 
ROOT
HETATM    1  C   UNL     1      41.339 -16.280   1.863  1.00  0.00    -0.049 C 
HETATM    2  C   UNL     1      41.842 -15.230   0.912  1.00  0.00     0.059 C 
HETATM    3  C   UNL     1      40.703 -14.636   0.084  1.00  0.00     0.132 C 
HETATM    4  N   UNL     1      39.569 -14.231   0.918  1.00  0.00    -0.331 N 
HETATM    5  C   UNL     1      38.661 -13.244   0.550  1.00  0.00     0.318 C 
HETATM    6  N   UNL     1      39.069 -12.415  -0.454  1.00  0.00    -0.338 N 
HETATM    7  O   UNL     1      37.542 -13.152   1.053  1.00  0.00    -0.247 OA
HETATM    8  C   UNL     1      39.035 -15.241   1.828  1.00  0.00     0.155 C 
HETATM    9  C   UNL     1      40.051 -16.260   2.257  1.00  0.00     0.001 C 
HETATM   10  H   UNL     1      40.060 -12.218  -0.534  1.00  0.00     0.164 HD
ENDROOT
BRANCH   6  11
HETATM   11  C   UNL     1      38.226 -11.370  -1.021  1.00  0.00     0.087 C 
HETATM   12  C   UNL     1      38.933 -10.013  -1.000  1.00  0.00     0.032 C 
BRANCH  11  13
HETATM   13  C   UNL     1      37.748 -11.764  -2.432  1.00  0.00     0.085 C 
BRANCH  13  14
HETATM   14  C   UNL     1      38.426 -12.964  -3.026  1.00  0.00     0.058 A 
HETATM   15  N   UNL     1      39.713 -12.922  -3.406  1.00  0.00    -0.179 NA
HETATM   16  N   UNL     1      39.961 -14.166  -3.850  1.00  0.00    -0.282 N 
HETATM   17  H   UNL     1      40.892 -14.376  -4.196  1.00  0.00     0.189 HD
HETATM   18  C   UNL     1      38.886 -15.004  -3.764  1.00  0.00     0.026 A 
HETATM   19  C   UNL     1      38.943 -16.423  -4.179  1.00  0.00     0.070 C 
HETATM   20  C   UNL     1      37.867 -14.247  -3.232  1.00  0.00     0.055 A 
ENDBRANCH  13  14
ENDBRANCH  11  13
ENDBRANCH   6  11
BRANCH   1  21
HETATM   21  C   UNL     1      42.253 -17.355   2.297  1.00  0.00    -0.030 A 
HETATM   22  C   UNL     1      42.303 -17.756   3.639  1.00  0.00     0.014 A 
HETATM   23  C   UNL     1      43.160 -18.783   4.056  1.00  0.00     0.037 A 
HETATM   24  C   UNL     1      43.985 -19.425   3.134  1.00  0.00     0.068 A 
HETATM   25  C   UNL     1      43.951 -19.023   1.798  1.00  0.00     0.037 A 
HETATM   26  C   UNL     1      43.091 -18.001   1.381  1.00  0.00     0.014 A 
BRANCH  24  27
HETATM   27  O   UNL     1      44.862 -20.437   3.411  1.00  0.00    -0.352 OA
BRANCH  27  28
HETATM   28  C   UNL     1      45.087 -20.738   4.788  1.00  0.00     0.171 C 
HETATM   29  C   UNL     1      44.793 -22.211   5.003  1.00  0.00     0.034 C 
ENDBRANCH  27  28
ENDBRANCH  24  27
ENDBRANCH   1  21
TORSDOF 6
ENDMDL
MODEL 4
REMARK VINA RESULT:      -7.5      5.821      6.548
REMARK  6 active torsions:
REMARK  status: ('A' for Active; 'I' for Inactive)
REMARK    1  A    between atoms: C_2  and  O_3 
REMARK    2  A    between atoms: O_3  and  C_4 
REMARK    3  A    between atoms: C_7  and  C_8 
REMARK       I    between atoms: N_11  and  C_12 
REMARK       I    between atoms: C_12  and  N_13 
REMARK    4  A    between atoms: N_13  and  C_14 
REMARK    5  A    between atoms: C_14  and  C_15 
REMARK    6  A    between atoms: C_15  and  C_16 
ROOT
HETATM    1  C   UNL     1      42.086 -17.088   1.934  1.00  0.00    -0.049 C 
HETATM    2  C   UNL     1      41.184 -16.203   2.749  1.00  0.00     0.059 C 
HETATM    3  C   UNL     1      40.907 -14.880   2.034  1.00  0.00     0.132 C 
HETATM    4  N   UNL     1      40.494 -15.082   0.644  1.00  0.00    -0.331 N 
HETATM    5  C   UNL     1      39.718 -14.171  -0.065  1.00  0.00     0.318 C 
HETATM    6  N   UNL     1      39.054 -13.251   0.693  1.00  0.00    -0.338 N 
HETATM    7  O   UNL     1      39.671 -14.155  -1.293  1.00  0.00    -0.247 OA
HETATM    8  C   UNL     1      41.368 -15.909  -0.183  1.00  0.00     0.155 C 
HETATM    9  C   UNL     1      42.150 -16.925   0.599  1.00  0.00     0.001 C 
HETATM   10  H   UNL     1      38.754 -13.528   1.621  1.00  0.00     0.164 HD
ENDROOT
BRANCH   6  11
HETATM   11  C   UNL     1      38.251 -12.175   0.124  1.00  0.00     0.087 C 
HETATM   12  C   UNL     1      36.783 -12.299   0.538  1.00  0.00     0.032 C 
BRANCH  11  13
HETATM   13  C   UNL     1      38.851 -10.803   0.483  1.00  0.00     0.085 C 
BRANCH  13  14
HETATM   14  C   UNL     1      40.339 -10.692   0.324  1.00  0.00     0.058 A 
HETATM   15  N   UNL     1      41.176 -11.060   1.307  1.00  0.00    -0.179 NA
HETATM   16  N   UNL     1      42.397 -10.847   0.791  1.00  0.00    -0.282 N 
HETATM   17  H   UNL     1      43.207 -11.060   1.366  1.00  0.00     0.189 HD
HETATM   18  C   UNL     1      42.377 -10.362  -0.486  1.00  0.00     0.026 A 
HETATM   19  C   UNL     1      43.610 -10.075  -1.253  1.00  0.00     0.070 C 
HETATM   20  C   UNL     1      41.046 -10.248  -0.817  1.00  0.00     0.055 A 
ENDBRANCH  13  14
ENDBRANCH  11  13
ENDBRANCH   6  11
BRANCH   1  21
HETATM   21  C   UNL     1      42.934 -18.080   2.624  1.00  0.00    -0.030 A 
HETATM   22  C   UNL     1      43.201 -19.326   2.039  1.00  0.00     0.014 A 
HETATM   23  C   UNL     1      44.014 -20.268   2.683  1.00  0.00     0.037 A 
HETATM   24  C   UNL     1      44.573 -19.979   3.926  1.00  0.00     0.068 A 
HETATM   25  C   UNL     1      44.301 -18.746   4.521  1.00  0.00     0.037 A 
HETATM   26  C   UNL     1      43.494 -17.803   3.876  1.00  0.00     0.014 A 
BRANCH  24  27
HETATM   27  O   UNL     1      45.380 -20.806   4.656  1.00  0.00    -0.352 OA
BRANCH  27  28
HETATM   28  C   UNL     1      44.763 -21.946   5.255  1.00  0.00     0.171 C 
HETATM   29  C   UNL     1      44.022 -21.481   6.496  1.00  0.00     0.034 C 
ENDBRANCH  27  28
ENDBRANCH  24  27
ENDBRANCH   1  21
TORSDOF 6
ENDMDL
MODEL 5
REMARK VINA RESULT:      -7.4      4.402      6.861
REMARK  6 active torsions:
REMARK  status: ('A' for Active; 'I' for Inactive)
REMARK    1  A    between atoms: C_2  and  O_3 
REMARK    2  A    between atoms: O_3  and  C_4 
REMARK    3  A    between atoms: C_7  and  C_8 
REMARK       I    between atoms: N_11  and  C_12 
REMARK       I    between atoms: C_12  and  N_13 
REMARK    4  A    between atoms: N_13  and  C_14 
REMARK    5  A    between atoms: C_14  and  C_15 
REMARK    6  A    between atoms: C_15  and  C_16 
ROOT
HETATM    1  C   UNL     1      41.994 -16.626   3.336  1.00  0.00    -0.049 C 
HETATM    2  C   UNL     1      41.636 -15.908   2.064  1.00  0.00     0.059 C 
HETATM    3  C   UNL     1      40.340 -15.113   2.218  1.00  0.00     0.132 C 
HETATM    4  N   UNL     1      40.345 -14.282   3.424  1.00  0.00    -0.331 N 
HETATM    5  C   UNL     1      39.585 -13.124   3.559  1.00  0.00     0.318 C 
HETATM    6  N   UNL     1      39.109 -12.594   2.395  1.00  0.00    -0.338 N 
HETATM    7  O   UNL     1      39.311 -12.636   4.654  1.00  0.00    -0.247 OA
HETATM    8  C   UNL     1      40.654 -14.956   4.681  1.00  0.00     0.155 C 
HETATM    9  C   UNL     1      41.525 -16.168   4.513  1.00  0.00     0.001 C 
HETATM   10  H   UNL     1      39.664 -12.716   1.556  1.00  0.00     0.164 HD
ENDROOT
BRANCH   6  11
HETATM   11  C   UNL     1      38.237 -11.428   2.345  1.00  0.00     0.087 C 
HETATM   12  C   UNL     1      39.043 -10.137   2.184  1.00  0.00     0.032 C 
BRANCH  11  13
HETATM   13  C   UNL     1      37.168 -11.596   1.248  1.00  0.00     0.085 C 
BRANCH  13  14
HETATM   14  C   UNL     1      37.525 -12.552   0.148  1.00  0.00     0.058 A 
HETATM   15  N   UNL     1      37.494 -13.880   0.340  1.00  0.00    -0.179 NA
HETATM   16  N   UNL     1      37.839 -14.389  -0.854  1.00  0.00    -0.282 N 
HETATM   17  H   UNL     1      37.883 -15.399  -0.952  1.00  0.00     0.189 HD
HETATM   18  C   UNL     1      38.083 -13.441  -1.806  1.00  0.00     0.026 A 
HETATM   19  C   UNL     1      38.458 -13.780  -3.196  1.00  0.00     0.070 C 
HETATM   20  C   UNL     1      37.889 -12.230  -1.180  1.00  0.00     0.055 A 
ENDBRANCH  13  14
ENDBRANCH  11  13
ENDBRANCH   6  11
BRANCH   1  21
HETATM   21  C   UNL     1      42.801 -17.859   3.264  1.00  0.00    -0.030 A 
HETATM   22  C   UNL     1      43.655 -18.220   4.315  1.00  0.00     0.014 A 
HETATM   23  C   UNL     1      44.417 -19.395   4.258  1.00  0.00     0.037 A 
HETATM   24  C   UNL     1      44.337 -20.228   3.144  1.00  0.00     0.068 A 
HETATM   25  C   UNL     1      43.499 -19.870   2.087  1.00  0.00     0.037 A 
HETATM   26  C   UNL     1      42.735 -18.699   2.146  1.00  0.00     0.014 A 
BRANCH  24  27
HETATM   27  O   UNL     1      45.024 -21.397   2.965  1.00  0.00    -0.352 OA
BRANCH  27  28
HETATM   28  C   UNL     1      44.497 -22.559   3.607  1.00  0.00     0.171 C 
HETATM   29  C   UNL     1      45.100 -22.643   4.997  1.00  0.00     0.034 C 
ENDBRANCH  27  28
ENDBRANCH  24  27
ENDBRANCH   1  21
TORSDOF 6
ENDMDL
MODEL 6
REMARK VINA RESULT:      -7.3      6.443      9.589
REMARK  6 active torsions:
REMARK  status: ('A' for Active; 'I' for Inactive)
REMARK    1  A    between atoms: C_2  and  O_3 
REMARK    2  A    between atoms: O_3  and  C_4 
REMARK    3  A    between atoms: C_7  and  C_8 
REMARK       I    between atoms: N_11  and  C_12 
REMARK       I    between atoms: C_12  and  N_13 
REMARK    4  A    between atoms: N_13  and  C_14 
REMARK    5  A    between atoms: C_14  and  C_15 
REMARK    6  A    between atoms: C_15  and  C_16 
ROOT
HETATM    1  C   UNL     1      41.924 -16.884   2.010  1.00  0.00    -0.049 C 
HETATM    2  C   UNL     1      42.293 -16.715   0.562  1.00  0.00     0.059 C 
HETATM    3  C   UNL     1      41.076 -16.338  -0.284  1.00  0.00     0.132 C 
HETATM    4  N   UNL     1      40.323 -15.227   0.303  1.00  0.00    -0.331 N 
HETATM    5  C   UNL     1      39.525 -14.366  -0.442  1.00  0.00     0.318 C 
HETATM    6  N   UNL     1      39.752 -14.371  -1.788  1.00  0.00    -0.338 N 
HETATM    7  O   UNL     1      38.636 -13.682   0.063  1.00  0.00    -0.247 OA
HETATM    8  C   UNL     1      39.919 -15.376   1.698  1.00  0.00     0.155 C 
HETATM    9  C   UNL     1      40.832 -16.263   2.495  1.00  0.00     0.001 C 
HETATM   10  H   UNL     1      40.693 -14.562  -2.110  1.00  0.00     0.164 HD
ENDROOT
BRANCH   6  11
HETATM   11  C   UNL     1      38.966 -13.589  -2.735  1.00  0.00     0.087 C 
HETATM   12  C   UNL     1      39.846 -12.607  -3.511  1.00  0.00     0.032 C 
BRANCH  11  13
HETATM   13  C   UNL     1      38.156 -14.515  -3.663  1.00  0.00     0.085 C 
BRANCH  13  14
HETATM   14  C   UNL     1      36.847 -13.958  -4.140  1.00  0.00     0.058 A 
HETATM   15  N   UNL     1      35.984 -14.708  -4.843  1.00  0.00    -0.179 NA
HETATM   16  N   UNL     1      34.941 -13.888  -5.057  1.00  0.00    -0.282 N 
HETATM   17  H   UNL     1      34.148 -14.246  -5.580  1.00  0.00     0.189 HD
HETATM   18  C   UNL     1      35.099 -12.645  -4.514  1.00  0.00     0.026 A 
HETATM   19  C   UNL     1      34.065 -11.591  -4.613  1.00  0.00     0.070 C 
HETATM   20  C   UNL     1      36.336 -12.659  -3.910  1.00  0.00     0.055 A 
ENDBRANCH  13  14
ENDBRANCH  11  13
ENDBRANCH   6  11
BRANCH   1  21
HETATM   21  C   UNL     1      42.732 -17.782   2.858  1.00  0.00    -0.030 A 
HETATM   22  C   UNL     1      43.544 -18.770   2.286  1.00  0.00     0.014 A 
HETATM   23  C   UNL     1      44.323 -19.619   3.084  1.00  0.00     0.037 A 
HETATM   24  C   UNL     1      44.299 -19.493   4.472  1.00  0.00     0.068 A 
HETATM   25  C   UNL     1      43.483 -18.519   5.050  1.00  0.00     0.037 A 
HETATM   26  C   UNL     1      42.710 -17.668   4.253  1.00  0.00     0.014 A 
BRANCH  24  27
HETATM   27  O   UNL     1      45.008 -20.253   5.359  1.00  0.00    -0.352 OA
BRANCH  27  28
HETATM   28  C   UNL     1      44.400 -21.467   5.800  1.00  0.00     0.171 C 
HETATM   29  C   UNL     1      44.951 -22.603   4.958  1.00  0.00     0.034 C 
ENDBRANCH  27  28
ENDBRANCH  24  27
ENDBRANCH   1  21
TORSDOF 6
ENDMDL
MODEL 7
REMARK VINA RESULT:      -7.2      5.497      8.247
REMARK  6 active torsions:
REMARK  status: ('A' for Active; 'I' for Inactive)
REMARK    1  A    between atoms: C_2  and  O_3 
REMARK    2  A    between atoms: O_3  and  C_4 
REMARK    3  A    between atoms: C_7  and  C_8 
REMARK       I    between atoms: N_11  and  C_12 
REMARK       I    between atoms: C_12  and  N_13 
REMARK    4  A    between atoms: N_13  and  C_14 
REMARK    5  A    between atoms: C_14  and  C_15 
REMARK    6  A    between atoms: C_15  and  C_16 
ROOT
HETATM    1  C   UNL     1      42.837 -16.105   1.992  1.00  0.00    -0.049 C 
HETATM    2  C   UNL     1      42.209 -16.001   0.629  1.00  0.00     0.059 C 
HETATM    3  C   UNL     1      41.253 -14.811   0.546  1.00  0.00     0.132 C 
HETATM    4  N   UNL     1      41.864 -13.579   1.048  1.00  0.00    -0.331 N 
HETATM    5  C   UNL     1      41.466 -12.308   0.646  1.00  0.00     0.318 C 
HETATM    6  N   UNL     1      40.729 -12.259  -0.502  1.00  0.00    -0.338 N 
HETATM    7  O   UNL     1      41.711 -11.298   1.303  1.00  0.00    -0.247 OA
HETATM    8  C   UNL     1      42.452 -13.638   2.383  1.00  0.00     0.155 C 
HETATM    9  C   UNL     1      42.928 -15.009   2.769  1.00  0.00     0.001 C 
HETATM   10  H   UNL     1      40.909 -12.959  -1.212  1.00  0.00     0.164 HD
ENDROOT
BRANCH   6  11
HETATM   11  C   UNL     1      40.164 -11.026  -1.038  1.00  0.00     0.087 C 
HETATM   12  C   UNL     1      41.174 -10.290  -1.920  1.00  0.00     0.032 C 
BRANCH  11  13
HETATM   13  C   UNL     1      38.839 -11.310  -1.769  1.00  0.00     0.085 C 
BRANCH  13  14
HETATM   14  C   UNL     1      38.618 -12.741  -2.162  1.00  0.00     0.058 A 
HETATM   15  N   UNL     1      37.970 -13.595  -1.354  1.00  0.00    -0.179 NA
HETATM   16  N   UNL     1      37.946 -14.745  -2.049  1.00  0.00    -0.282 N 
HETATM   17  H   UNL     1      37.495 -15.552  -1.628  1.00  0.00     0.189 HD
HETATM   18  C   UNL     1      38.546 -14.660  -3.272  1.00  0.00     0.026 A 
HETATM   19  C   UNL     1      38.616 -15.802  -4.210  1.00  0.00     0.070 C 
HETATM   20  C   UNL     1      38.998 -13.364  -3.374  1.00  0.00     0.055 A 
ENDBRANCH  13  14
ENDBRANCH  11  13
ENDBRANCH   6  11
BRANCH   1  21
HETATM   21  C   UNL     1      43.285 -17.425   2.479  1.00  0.00    -0.030 A 
HETATM   22  C   UNL     1      43.448 -17.666   3.849  1.00  0.00     0.014 A 
HETATM   23  C   UNL     1      43.862 -18.920   4.319  1.00  0.00     0.037 A 
HETATM   24  C   UNL     1      44.123 -19.953   3.422  1.00  0.00     0.068 A 
HETATM   25  C   UNL     1      43.976 -19.717   2.054  1.00  0.00     0.037 A 
HETATM   26  C   UNL     1      43.558 -18.467   1.585  1.00  0.00     0.014 A 
BRANCH  24  27
HETATM   27  O   UNL     1      44.531 -21.217   3.749  1.00  0.00    -0.352 OA
BRANCH  27  28
HETATM   28  C   UNL     1      45.238 -21.368   4.980  1.00  0.00     0.171 C 
HETATM   29  C   UNL     1      44.238 -21.758   6.053  1.00  0.00     0.034 C 
ENDBRANCH  27  28
ENDBRANCH  24  27
ENDBRANCH   1  21
TORSDOF 6
ENDMDL
MODEL 8
REMARK VINA RESULT:      -7.2      4.931      7.770
REMARK  6 active torsions:
REMARK  status: ('A' for Active; 'I' for Inactive)
REMARK    1  A    between atoms: C_2  and  O_3 
REMARK    2  A    between atoms: O_3  and  C_4 
REMARK    3  A    between atoms: C_7  and  C_8 
REMARK       I    between atoms: N_11  and  C_12 
REMARK       I    between atoms: C_12  and  N_13 
REMARK    4  A    between atoms: N_13  and  C_14 
REMARK    5  A    between atoms: C_14  and  C_15 
REMARK    6  A    between atoms: C_15  and  C_16 
ROOT
HETATM    1  C   UNL     1      41.732 -15.987   0.787  1.00  0.00    -0.049 C 
HETATM    2  C   UNL     1      42.969 -16.836   0.899  1.00  0.00     0.059 C 
HETATM    3  C   UNL     1      43.361 -17.060   2.359  1.00  0.00     0.132 C 
HETATM    4  N   UNL     1      42.226 -17.502   3.172  1.00  0.00    -0.331 N 
HETATM    5  C   UNL     1      42.363 -18.245   4.340  1.00  0.00     0.318 C 
HETATM    6  N   UNL     1      43.571 -18.855   4.510  1.00  0.00    -0.338 N 
HETATM    7  O   UNL     1      41.478 -18.309   5.192  1.00  0.00    -0.247 OA
HETATM    8  C   UNL     1      41.021 -16.679   3.112  1.00  0.00     0.155 C 
HETATM    9  C   UNL     1      40.867 -15.934   1.817  1.00  0.00     0.001 C 
HETATM   10  H   UNL     1      44.073 -19.154   3.681  1.00  0.00     0.164 HD
ENDROOT
BRANCH   6  11
HETATM   11  C   UNL     1      43.923 -19.614   5.703  1.00  0.00     0.087 C 
HETATM   12  C   UNL     1      44.486 -20.990   5.340  1.00  0.00     0.032 C 
BRANCH  11  13
HETATM   13  C   UNL     1      44.880 -18.805   6.599  1.00  0.00     0.085 C 
BRANCH  13  14
HETATM   14  C   UNL     1      44.413 -17.422   6.949  1.00  0.00     0.058 A 
HETATM   15  N   UNL     1      43.497 -17.216   7.909  1.00  0.00    -0.179 NA
HETATM   16  N   UNL     1      43.364 -15.880   7.950  1.00  0.00    -0.282 N 
HETATM   17  H   UNL     1      42.711 -15.482   8.617  1.00  0.00     0.189 HD
HETATM   18  C   UNL     1      44.163 -15.221   7.059  1.00  0.00     0.026 A 
HETATM   19  C   UNL     1      44.191 -13.746   6.948  1.00  0.00     0.070 C 
HETATM   20  C   UNL     1      44.858 -16.202   6.389  1.00  0.00     0.055 A 
ENDBRANCH  13  14
ENDBRANCH  11  13
ENDBRANCH   6  11
BRANCH   1  21
HETATM   21  C   UNL     1      41.524 -15.177  -0.428  1.00  0.00    -0.030 A 
HETATM   22  C   UNL     1      41.770 -13.797  -0.421  1.00  0.00     0.014 A 
HETATM   23  C   UNL     1      41.585 -13.023  -1.574  1.00  0.00     0.037 A 
HETATM   24  C   UNL     1      41.147 -13.618  -2.755  1.00  0.00     0.068 A 
HETATM   25  C   UNL     1      40.887 -14.989  -2.767  1.00  0.00     0.037 A 
HETATM   26  C   UNL     1      41.076 -15.764  -1.618  1.00  0.00     0.014 A 
BRANCH  24  27
HETATM   27  O   UNL     1      40.928 -12.978  -3.944  1.00  0.00    -0.352 OA
BRANCH  27  28
HETATM   28  C   UNL     1      41.009 -11.553  -3.934  1.00  0.00     0.171 C 
HETATM   29  C   UNL     1      42.274 -11.148  -4.667  1.00  0.00     0.034 C 
ENDBRANCH  27  28
ENDBRANCH  24  27
ENDBRANCH   1  21
TORSDOF 6
ENDMDL
MODEL 9
REMARK VINA RESULT:      -7.1      3.691      5.320
REMARK  6 active torsions:
REMARK  status: ('A' for Active; 'I' for Inactive)
REMARK    1  A    between atoms: C_2  and  O_3 
REMARK    2  A    between atoms: O_3  and  C_4 
REMARK    3  A    between atoms: C_7  and  C_8 
REMARK       I    between atoms: N_11  and  C_12 
REMARK       I    between atoms: C_12  and  N_13 
REMARK    4  A    between atoms: N_13  and  C_14 
REMARK    5  A    between atoms: C_14  and  C_15 
REMARK    6  A    between atoms: C_15  and  C_16 
ROOT
HETATM    1  C   UNL     1      42.065 -16.970   2.038  1.00  0.00    -0.049 C 
HETATM    2  C   UNL     1      41.241 -16.052   2.898  1.00  0.00     0.059 C 
HETATM    3  C   UNL     1      40.949 -14.732   2.183  1.00  0.00     0.132 C 
HETATM    4  N   UNL     1      40.438 -14.943   0.827  1.00  0.00    -0.331 N 
HETATM    5  C   UNL     1      39.638 -14.023   0.158  1.00  0.00     0.318 C 
HETATM    6  N   UNL     1      39.048 -13.077   0.945  1.00  0.00    -0.338 N 
HETATM    7  O   UNL     1      39.508 -14.023  -1.065  1.00  0.00    -0.247 OA
HETATM    8  C   UNL     1      41.235 -15.803  -0.044  1.00  0.00     0.155 C 
HETATM    9  C   UNL     1      42.044 -16.826   0.699  1.00  0.00     0.001 C 
HETATM   10  H   UNL     1      38.805 -13.333   1.894  1.00  0.00     0.164 HD
ENDROOT
BRANCH   6  11
HETATM   11  C   UNL     1      38.234 -11.990   0.414  1.00  0.00     0.087 C 
HETATM   12  C   UNL     1      36.745 -12.340   0.454  1.00  0.00     0.032 C 
BRANCH  11  13
HETATM   13  C   UNL     1      38.549 -10.670   1.145  1.00  0.00     0.085 C 
BRANCH  13  14
HETATM   14  C   UNL     1      39.067 -10.821   2.545  1.00  0.00     0.058 A 
HETATM   15  N   UNL     1      38.292 -11.309   3.527  1.00  0.00    -0.179 NA
HETATM   16  N   UNL     1      39.099 -11.319   4.602  1.00  0.00    -0.282 N 
HETATM   17  H   UNL     1      38.722 -11.657   5.483  1.00  0.00     0.189 HD
HETATM   18  C   UNL     1      40.361 -10.863   4.346  1.00  0.00     0.026 A 
HETATM   19  C   UNL     1      41.417 -10.808   5.381  1.00  0.00     0.070 C 
HETATM   20  C   UNL     1      40.370 -10.528   3.011  1.00  0.00     0.055 A 
ENDBRANCH  13  14
ENDBRANCH  11  13
ENDBRANCH   6  11
BRANCH   1  21
HETATM   21  C   UNL     1      42.934 -17.973   2.685  1.00  0.00    -0.030 A 
HETATM   22  C   UNL     1      43.520 -19.003   1.936  1.00  0.00     0.014 A 
HETATM   23  C   UNL     1      44.355 -19.952   2.541  1.00  0.00     0.037 A 
HETATM   24  C   UNL     1      44.616 -19.886   3.908  1.00  0.00     0.068 A 
HETATM   25  C   UNL     1      44.026 -18.871   4.663  1.00  0.00     0.037 A 
HETATM   26  C   UNL     1      43.196 -17.921   4.058  1.00  0.00     0.014 A 
BRANCH  24  27
HETATM   27  O   UNL     1      45.409 -20.746   4.616  1.00  0.00    -0.352 OA
BRANCH  27  28
HETATM   28  C   UNL     1      44.749 -21.781   5.345  1.00  0.00     0.171 C 
HETATM   29  C   UNL     1      44.572 -22.970   4.419  1.00  0.00     0.034 C 
ENDBRANCH  27  28
ENDBRANCH  24  27
ENDBRANCH   1  21
TORSDOF 6
ENDMDL
MODEL 10
REMARK VINA RESULT:      -7.1      3.257     10.026
REMARK  6 active torsions:
REMARK  status: ('A' for Active; 'I' for Inactive)
REMARK    1  A    between atoms: C_2  and  O_3 
REMARK    2  A    between atoms: O_3  and  C_4 
REMARK    3  A    between atoms: C_7  and  C_8 
REMARK       I    between atoms: N_11  and  C_12 
REMARK       I    between atoms: C_12  and  N_13 
REMARK    4  A    between atoms: N_13  and  C_14 
REMARK    5  A    between atoms: C_14  and  C_15 
REMARK    6  A    between atoms: C_15  and  C_16 
ROOT
HETATM    1  C   UNL     1      43.387 -12.722   7.134  1.00  0.00    -0.049 C 
HETATM    2  C   UNL     1      44.180 -13.959   6.812  1.00  0.00     0.059 C 
HETATM    3  C   UNL     1      43.425 -14.869   5.842  1.00  0.00     0.132 C 
HETATM    4  N   UNL     1      42.916 -14.133   4.682  1.00  0.00    -0.331 N 
HETATM    5  C   UNL     1      42.662 -14.727   3.450  1.00  0.00     0.318 C 
HETATM    6  N   UNL     1      43.244 -15.946   3.255  1.00  0.00    -0.338 N 
HETATM    7  O   UNL     1      41.922 -14.219   2.610  1.00  0.00    -0.247 OA
HETATM    8  C   UNL     1      42.113 -12.947   4.962  1.00  0.00     0.155 C 
HETATM    9  C   UNL     1      42.448 -12.290   6.271  1.00  0.00     0.001 C 
HETATM   10  H   UNL     1      44.132 -16.126   3.708  1.00  0.00     0.164 HD
ENDROOT
BRANCH   6  11
HETATM   11  C   UNL     1      43.033 -16.750   2.057  1.00  0.00     0.087 C 
HETATM   12  C   UNL     1      44.347 -16.988   1.310  1.00  0.00     0.032 C 
BRANCH  11  13
HETATM   13  C   UNL     1      42.308 -18.064   2.406  1.00  0.00     0.085 C 
BRANCH  13  14
HETATM   14  C   UNL     1      43.203 -19.222   2.737  1.00  0.00     0.058 A 
HETATM   15  N   UNL     1      43.981 -19.213   3.830  1.00  0.00    -0.179 NA
HETATM   16  N   UNL     1      44.598 -20.406   3.800  1.00  0.00    -0.282 N 
HETATM   17  H   UNL     1      45.250 -20.629   4.545  1.00  0.00     0.189 HD
HETATM   18  C   UNL     1      44.241 -21.181   2.734  1.00  0.00     0.026 A 
HETATM   19  C   UNL     1      44.784 -22.541   2.516  1.00  0.00     0.070 C 
HETATM   20  C   UNL     1      43.333 -20.434   2.020  1.00  0.00     0.055 A 
ENDBRANCH  13  14
ENDBRANCH  11  13
ENDBRANCH   6  11
BRANCH   1  21
HETATM   21  C   UNL     1      43.610 -12.041   8.424  1.00  0.00    -0.030 A 
HETATM   22  C   UNL     1      44.656 -12.432   9.270  1.00  0.00     0.014 A 
HETATM   23  C   UNL     1      44.881 -11.782  10.491  1.00  0.00     0.037 A 
HETATM   24  C   UNL     1      44.058 -10.730  10.887  1.00  0.00     0.068 A 
HETATM   25  C   UNL     1      43.006 -10.342  10.056  1.00  0.00     0.037 A 
HETATM   26  C   UNL     1      42.785 -10.987   8.834  1.00  0.00     0.014 A 
BRANCH  24  27
HETATM   27  O   UNL     1      44.170 -10.016  12.048  1.00  0.00    -0.352 OA
BRANCH  27  28
HETATM   28  C   UNL     1      43.174 -10.245  13.045  1.00  0.00     0.171 C 
HETATM   29  C   UNL     1      43.232  -9.099  14.039  1.00  0.00     0.034 C 
ENDBRANCH  27  28
ENDBRANCH  24  27
ENDBRANCH   1  21
TORSDOF 6
ENDMDL
