MODEL 1
REMARK VINA RESULT:      -8.6      0.000      0.000
REMARK  5 active torsions:
REMARK  status: ('A' for Active; 'I' for Inactive)
REMARK    1  A    between atoms: C_5  and  C_6 
REMARK    2  A    between atoms: C_6  and  C_7 
REMARK       I    between atoms: C_7  and  N_8 
REMARK    3  A    between atoms: N_8  and  C_9 
REMARK    4  A    between atoms: C_12  and  O_13 
REMARK    5  A    between atoms: O_13  and  C_14 
ROOT
HETATM    1  C   UNL     1      42.859 -17.845   3.520  1.00  0.00     0.076 A 
HETATM    2  C   UNL     1      42.479 -18.336   2.271  1.00  0.00     0.039 A 
HETATM    3  C   UNL     1      42.974 -19.563   1.826  1.00  0.00     0.025 A 
HETATM    4  C   UNL     1      43.862 -20.292   2.626  1.00  0.00     0.044 A 
HETATM    5  C   UNL     1      44.372 -21.552   2.169  1.00  0.00     0.099 C 
HETATM    6  N   UNL     1      44.783 -22.573   1.798  1.00  0.00    -0.191 NA
HETATM    7  C   UNL     1      44.258 -19.783   3.869  1.00  0.00     0.025 A 
HETATM    8  C   UNL     1      43.764 -18.552   4.312  1.00  0.00     0.039 A 
ENDROOT
BRANCH   1   9
HETATM    9  O   UNL     1      42.392 -16.606   3.881  1.00  0.00    -0.311 OA
BRANCH   9  10
HETATM   10  C   UNL     1      43.011 -15.942   4.917  1.00  0.00     0.076 A 
HETATM   11  C   UNL     1      43.527 -14.686   4.601  1.00  0.00     0.039 A 
HETATM   12  C   UNL     1      44.125 -13.892   5.586  1.00  0.00     0.032 A 
HETATM   13  C   UNL     1      44.211 -14.345   6.903  1.00  0.00     0.034 A 
HETATM   14  C   UNL     1      43.690 -15.608   7.216  1.00  0.00     0.032 A 
HETATM   15  C   UNL     1      43.081 -16.399   6.232  1.00  0.00     0.039 A 
BRANCH  13  16
HETATM   16  N   UNL     1      44.776 -13.599   7.960  1.00  0.00    -0.327 N 
HETATM   17  C   UNL     1      44.311 -12.409   8.496  1.00  0.00     0.227 C 
HETATM   18  O   UNL     1      43.321 -11.784   8.119  1.00  0.00    -0.273 OA
HETATM   19  H   UNL     1      45.612 -13.994   8.375  1.00  0.00     0.169 HD
BRANCH  17  20
HETATM   20  C   UNL     1      45.146 -11.917   9.681  1.00  0.00     0.159 C 
BRANCH  20  21
HETATM   21  C   UNL     1      44.296 -11.418  10.809  1.00  0.00     0.017 A 
HETATM   22  N   UNL     1      43.257 -12.157  11.332  1.00  0.00    -0.369 N 
HETATM   23  C   UNL     1      42.672 -11.468  12.360  1.00  0.00     0.088 A 
HETATM   24  H   UNL     1      42.962 -13.064  10.981  1.00  0.00     0.165 HD
HETATM   25  C   UNL     1      43.346 -10.279  12.513  1.00  0.00     0.019 A 
HETATM   26  C   UNL     1      44.371 -10.246  11.538  1.00  0.00     0.027 A 
ENDBRANCH  20  21
ENDBRANCH  17  20
ENDBRANCH  13  16
ENDBRANCH   9  10
ENDBRANCH   1   9
TORSDOF 5
ENDMDL
MODEL 2
REMARK VINA RESULT:      -8.0      4.881     10.019
REMARK  5 active torsions:
REMARK  status: ('A' for Active; 'I' for Inactive)
REMARK    1  A    between atoms: C_5  and  C_6 
REMARK    2  A    between atoms: C_6  and  C_7 
REMARK       I    between atoms: C_7  and  N_8 
REMARK    3  A    between atoms: N_8  and  C_9 
REMARK    4  A    between atoms: C_12  and  O_13 
REMARK    5  A    between atoms: O_13  and  C_14 
ROOT
HETATM    1  C   UNL     1      42.963 -16.637   5.342  1.00  0.00     0.076 A 
HETATM    2  C   UNL     1      43.989 -17.007   6.212  1.00  0.00     0.039 A 
HETATM    3  C   UNL     1      44.634 -16.036   6.979  1.00  0.00     0.025 A 
HETATM    4  C   UNL     1      44.264 -14.690   6.862  1.00  0.00     0.044 A 
HETATM    5  C   UNL     1      44.928 -13.691   7.648  1.00  0.00     0.099 C 
HETATM    6  N   UNL     1      45.465 -12.885   8.286  1.00  0.00    -0.191 NA
HETATM    7  C   UNL     1      43.248 -14.322   5.970  1.00  0.00     0.025 A 
HETATM    8  C   UNL     1      42.604 -15.296   5.201  1.00  0.00     0.039 A 
ENDROOT
BRANCH   1   9
HETATM    9  O   UNL     1      42.404 -17.623   4.567  1.00  0.00    -0.311 OA
BRANCH   9  10
HETATM   10  C   UNL     1      42.199 -17.376   3.229  1.00  0.00     0.076 A 
HETATM   11  C   UNL     1      40.893 -17.040   2.873  1.00  0.00     0.039 A 
HETATM   12  C   UNL     1      40.575 -16.710   1.551  1.00  0.00     0.032 A 
HETATM   13  C   UNL     1      41.563 -16.706   0.567  1.00  0.00     0.034 A 
HETATM   14  C   UNL     1      42.875 -17.043   0.929  1.00  0.00     0.032 A 
HETATM   15  C   UNL     1      43.196 -17.364   2.254  1.00  0.00     0.039 A 
BRANCH  13  16
HETATM   16  N   UNL     1      41.334 -16.363  -0.783  1.00  0.00    -0.327 N 
HETATM   17  C   UNL     1      41.297 -15.092  -1.336  1.00  0.00     0.227 C 
HETATM   18  O   UNL     1      41.442 -14.033  -0.726  1.00  0.00    -0.273 OA
HETATM   19  H   UNL     1      41.191 -17.142  -1.414  1.00  0.00     0.169 HD
BRANCH  17  20
HETATM   20  C   UNL     1      41.085 -15.103  -2.852  1.00  0.00     0.159 C 
BRANCH  20  21
HETATM   21  C   UNL     1      39.644 -14.948  -3.227  1.00  0.00     0.017 A 
HETATM   22  N   UNL     1      38.887 -13.871  -2.819  1.00  0.00    -0.369 N 
HETATM   23  C   UNL     1      37.620 -13.979  -3.324  1.00  0.00     0.088 A 
HETATM   24  H   UNL     1      39.225 -13.128  -2.213  1.00  0.00     0.165 HD
HETATM   25  C   UNL     1      37.558 -15.129  -4.076  1.00  0.00     0.019 A 
HETATM   26  C   UNL     1      38.832 -15.740  -4.018  1.00  0.00     0.027 A 
ENDBRANCH  20  21
ENDBRANCH  17  20
ENDBRANCH  13  16
ENDBRANCH   9  10
ENDBRANCH   1   9
TORSDOF 5
ENDMDL
MODEL 3
REMARK VINA RESULT:      -7.9      2.630      2.896
REMARK  5 active torsions:
REMARK  status: ('A' for Active; 'I' for Inactive)
REMARK    1  A    between atoms: C_5  and  C_6 
REMARK    2  A    between atoms: C_6  and  C_7 
REMARK       I    between atoms: C_7  and  N_8 
REMARK    3  A    between atoms: N_8  and  C_9 
REMARK    4  A    between atoms: C_12  and  O_13 
REMARK    5  A    between atoms: O_13  and  C_14 
ROOT
HETATM    1  C   UNL     1      43.632 -17.364   2.796  1.00  0.00     0.076 A 
HETATM    2  C   UNL     1      43.546 -18.113   1.623  1.00  0.00     0.039 A 
HETATM    3  C   UNL     1      43.782 -19.489   1.658  1.00  0.00     0.025 A 
HETATM    4  C   UNL     1      44.121 -20.111   2.866  1.00  0.00     0.044 A 
HETATM    5  C   UNL     1      44.366 -21.524   2.902  1.00  0.00     0.099 C 
HETATM    6  N   UNL     1      44.561 -22.667   2.929  1.00  0.00    -0.191 NA
HETATM    7  C   UNL     1      44.228 -19.349   4.036  1.00  0.00     0.025 A 
HETATM    8  C   UNL     1      43.994 -17.971   3.999  1.00  0.00     0.039 A 
ENDROOT
BRANCH   1   9
HETATM    9  O   UNL     1      43.450 -16.007   2.694  1.00  0.00    -0.311 OA
BRANCH   9  10
HETATM   10  C   UNL     1      42.689 -15.368   3.647  1.00  0.00     0.076 A 
HETATM   11  C   UNL     1      43.380 -14.484   4.475  1.00  0.00     0.039 A 
HETATM   12  C   UNL     1      42.702 -13.733   5.441  1.00  0.00     0.032 A 
HETATM   13  C   UNL     1      41.321 -13.854   5.589  1.00  0.00     0.034 A 
HETATM   14  C   UNL     1      40.630 -14.742   4.754  1.00  0.00     0.032 A 
HETATM   15  C   UNL     1      41.306 -15.487   3.779  1.00  0.00     0.039 A 
BRANCH  13  16
HETATM   16  N   UNL     1      40.558 -13.117   6.521  1.00  0.00    -0.327 N 
HETATM   17  C   UNL     1      40.376 -11.744   6.565  1.00  0.00     0.227 C 
HETATM   18  O   UNL     1      40.874 -10.923   5.796  1.00  0.00    -0.273 OA
HETATM   19  H   UNL     1      40.084 -13.666   7.229  1.00  0.00     0.169 HD
BRANCH  17  20
HETATM   20  C   UNL     1      39.428 -11.299   7.682  1.00  0.00     0.159 C 
BRANCH  20  21
HETATM   21  C   UNL     1      40.154 -10.991   8.956  1.00  0.00     0.017 A 
HETATM   22  N   UNL     1      39.793 -11.548  10.163  1.00  0.00    -0.369 N 
HETATM   23  C   UNL     1      40.638 -11.108  11.146  1.00  0.00     0.088 A 
HETATM   24  H   UNL     1      39.000 -12.171  10.295  1.00  0.00     0.165 HD
HETATM   25  C   UNL     1      41.562 -10.269  10.568  1.00  0.00     0.019 A 
HETATM   26  C   UNL     1      41.260 -10.195   9.188  1.00  0.00     0.027 A 
ENDBRANCH  20  21
ENDBRANCH  17  20
ENDBRANCH  13  16
ENDBRANCH   9  10
ENDBRANCH   1   9
TORSDOF 5
ENDMDL
MODEL 4
REMARK VINA RESULT:      -7.8      5.107      9.778
REMARK  5 active torsions:
REMARK  status: ('A' for Active; 'I' for Inactive)
REMARK    1  A    between atoms: C_5  and  C_6 
REMARK    2  A    between atoms: C_6  and  C_7 
REMARK       I    between atoms: C_7  and  N_8 
REMARK    3  A    between atoms: N_8  and  C_9 
REMARK    4  A    between atoms: C_12  and  O_13 
REMARK    5  A    between atoms: O_13  and  C_14 
ROOT
HETATM    1  C   UNL     1      43.000 -16.758   5.273  1.00  0.00     0.076 A 
HETATM    2  C   UNL     1      44.012 -17.129   6.158  1.00  0.00     0.039 A 
HETATM    3  C   UNL     1      44.614 -16.165   6.969  1.00  0.00     0.025 A 
HETATM    4  C   UNL     1      44.214 -14.826   6.882  1.00  0.00     0.044 A 
HETATM    5  C   UNL     1      44.834 -13.835   7.713  1.00  0.00     0.099 C 
HETATM    6  N   UNL     1      45.335 -13.035   8.388  1.00  0.00    -0.191 NA
HETATM    7  C   UNL     1      43.213 -14.456   5.975  1.00  0.00     0.025 A 
HETATM    8  C   UNL     1      42.613 -15.422   5.161  1.00  0.00     0.039 A 
ENDROOT
BRANCH   1   9
HETATM    9  O   UNL     1      42.485 -17.733   4.456  1.00  0.00    -0.311 OA
BRANCH   9  10
HETATM   10  C   UNL     1      42.245 -17.431   3.135  1.00  0.00     0.076 A 
HETATM   11  C   UNL     1      40.940 -17.042   2.835  1.00  0.00     0.039 A 
HETATM   12  C   UNL     1      40.591 -16.653   1.537  1.00  0.00     0.032 A 
HETATM   13  C   UNL     1      41.547 -16.644   0.521  1.00  0.00     0.034 A 
HETATM   14  C   UNL     1      42.858 -17.035   0.827  1.00  0.00     0.032 A 
HETATM   15  C   UNL     1      43.211 -17.415   2.129  1.00  0.00     0.039 A 
BRANCH  13  16
HETATM   16  N   UNL     1      41.286 -16.245  -0.808  1.00  0.00    -0.327 N 
HETATM   17  C   UNL     1      41.398 -14.971  -1.343  1.00  0.00     0.227 C 
HETATM   18  O   UNL     1      41.732 -13.956  -0.732  1.00  0.00    -0.273 OA
HETATM   19  H   UNL     1      40.993 -16.982  -1.436  1.00  0.00     0.169 HD
BRANCH  17  20
HETATM   20  C   UNL     1      41.093 -14.921  -2.842  1.00  0.00     0.159 C 
BRANCH  20  21
HETATM   21  C   UNL     1      41.135 -13.526  -3.386  1.00  0.00     0.017 A 
HETATM   22  N   UNL     1      42.319 -12.888  -3.685  1.00  0.00    -0.369 N 
HETATM   23  C   UNL     1      42.058 -11.640  -4.183  1.00  0.00     0.088 A 
HETATM   24  H   UNL     1      43.242 -13.285  -3.531  1.00  0.00     0.165 HD
HETATM   25  C   UNL     1      40.693 -11.473  -4.218  1.00  0.00     0.019 A 
HETATM   26  C   UNL     1      40.110 -12.661  -3.718  1.00  0.00     0.027 A 
ENDBRANCH  20  21
ENDBRANCH  17  20
ENDBRANCH  13  16
ENDBRANCH   9  10
ENDBRANCH   1   9
TORSDOF 5
ENDMDL
MODEL 5
REMARK VINA RESULT:      -7.6      5.832      9.084
REMARK  5 active torsions:
REMARK  status: ('A' for Active; 'I' for Inactive)
REMARK    1  A    between atoms: C_5  and  C_6 
REMARK    2  A    between atoms: C_6  and  C_7 
REMARK       I    between atoms: C_7  and  N_8 
REMARK    3  A    between atoms: N_8  and  C_9 
REMARK    4  A    between atoms: C_12  and  O_13 
REMARK    5  A    between atoms: O_13  and  C_14 
ROOT
HETATM    1  C   UNL     1      43.540 -17.595   3.731  1.00  0.00     0.076 A 
HETATM    2  C   UNL     1      43.736 -18.494   4.779  1.00  0.00     0.039 A 
HETATM    3  C   UNL     1      44.061 -19.823   4.503  1.00  0.00     0.025 A 
HETATM    4  C   UNL     1      44.173 -20.257   3.176  1.00  0.00     0.044 A 
HETATM    5  C   UNL     1      44.505 -21.623   2.893  1.00  0.00     0.099 C 
HETATM    6  N   UNL     1      44.775 -22.728   2.665  1.00  0.00    -0.191 NA
HETATM    7  C   UNL     1      43.952 -19.354   2.128  1.00  0.00     0.025 A 
HETATM    8  C   UNL     1      43.624 -18.024   2.405  1.00  0.00     0.039 A 
ENDROOT
BRANCH   1   9
HETATM    9  O   UNL     1      43.163 -16.316   4.057  1.00  0.00    -0.311 OA
BRANCH   9  10
HETATM   10  C   UNL     1      42.285 -15.654   3.228  1.00  0.00     0.076 A 
HETATM   11  C   UNL     1      42.801 -14.529   2.584  1.00  0.00     0.039 A 
HETATM   12  C   UNL     1      42.021 -13.809   1.672  1.00  0.00     0.032 A 
HETATM   13  C   UNL     1      40.715 -14.209   1.388  1.00  0.00     0.034 A 
HETATM   14  C   UNL     1      40.202 -15.340   2.036  1.00  0.00     0.032 A 
HETATM   15  C   UNL     1      40.985 -16.068   2.943  1.00  0.00     0.039 A 
BRANCH  13  16
HETATM   16  N   UNL     1      39.870 -13.555   0.465  1.00  0.00    -0.327 N 
HETATM   17  C   UNL     1      40.077 -13.386  -0.895  1.00  0.00     0.227 C 
HETATM   18  O   UNL     1      41.059 -13.769  -1.530  1.00  0.00    -0.273 OA
HETATM   19  H   UNL     1      39.012 -13.178   0.849  1.00  0.00     0.169 HD
BRANCH  17  20
HETATM   20  C   UNL     1      38.914 -12.679  -1.596  1.00  0.00     0.159 C 
BRANCH  20  21
HETATM   21  C   UNL     1      38.238 -13.557  -2.604  1.00  0.00     0.017 A 
HETATM   22  N   UNL     1      38.645 -14.851  -2.845  1.00  0.00    -0.369 N 
HETATM   23  C   UNL     1      37.839 -15.419  -3.794  1.00  0.00     0.088 A 
HETATM   24  H   UNL     1      39.443 -15.296  -2.398  1.00  0.00     0.165 HD
HETATM   25  C   UNL     1      36.893 -14.490  -4.160  1.00  0.00     0.019 A 
HETATM   26  C   UNL     1      37.142 -13.316  -3.411  1.00  0.00     0.027 A 
ENDBRANCH  20  21
ENDBRANCH  17  20
ENDBRANCH  13  16
ENDBRANCH   9  10
ENDBRANCH   1   9
TORSDOF 5
ENDMDL
MODEL 6
REMARK VINA RESULT:      -7.5      5.610      8.677
REMARK  5 active torsions:
REMARK  status: ('A' for Active; 'I' for Inactive)
REMARK    1  A    between atoms: C_5  and  C_6 
REMARK    2  A    between atoms: C_6  and  C_7 
REMARK       I    between atoms: C_7  and  N_8 
REMARK    3  A    between atoms: N_8  and  C_9 
REMARK    4  A    between atoms: C_12  and  O_13 
REMARK    5  A    between atoms: O_13  and  C_14 
ROOT
HETATM    1  C   UNL     1      40.478 -14.575  -1.675  1.00  0.00     0.076 A 
HETATM    2  C   UNL     1      39.315 -13.924  -1.264  1.00  0.00     0.039 A 
HETATM    3  C   UNL     1      38.172 -13.969  -2.065  1.00  0.00     0.025 A 
HETATM    4  C   UNL     1      38.200 -14.654  -3.287  1.00  0.00     0.044 A 
HETATM    5  C   UNL     1      37.027 -14.699  -4.112  1.00  0.00     0.099 C 
HETATM    6  N   UNL     1      36.077 -14.736  -4.776  1.00  0.00    -0.191 NA
HETATM    7  C   UNL     1      39.378 -15.286  -3.705  1.00  0.00     0.025 A 
HETATM    8  C   UNL     1      40.522 -15.237  -2.903  1.00  0.00     0.039 A 
ENDROOT
BRANCH   1   9
HETATM    9  O   UNL     1      41.589 -14.447  -0.880  1.00  0.00    -0.311 OA
BRANCH   9  10
HETATM   10  C   UNL     1      41.648 -15.163   0.295  1.00  0.00     0.076 A 
HETATM   11  C   UNL     1      41.567 -16.549   0.157  1.00  0.00     0.039 A 
HETATM   12  C   UNL     1      41.675 -17.384   1.275  1.00  0.00     0.032 A 
HETATM   13  C   UNL     1      41.871 -16.843   2.545  1.00  0.00     0.034 A 
HETATM   14  C   UNL     1      41.952 -15.450   2.678  1.00  0.00     0.032 A 
HETATM   15  C   UNL     1      41.854 -14.613   1.559  1.00  0.00     0.039 A 
BRANCH  13  16
HETATM   16  N   UNL     1      42.014 -17.614   3.720  1.00  0.00    -0.327 N 
HETATM   17  C   UNL     1      43.013 -17.518   4.675  1.00  0.00     0.227 C 
HETATM   18  O   UNL     1      43.969 -16.744   4.646  1.00  0.00    -0.273 OA
HETATM   19  H   UNL     1      41.292 -18.306   3.879  1.00  0.00     0.169 HD
BRANCH  17  20
HETATM   20  C   UNL     1      42.812 -18.475   5.852  1.00  0.00     0.159 C 
BRANCH  20  21
HETATM   21  C   UNL     1      43.590 -19.745   5.694  1.00  0.00     0.017 A 
HETATM   22  N   UNL     1      44.376 -19.995   4.590  1.00  0.00    -0.369 N 
HETATM   23  C   UNL     1      44.983 -21.214   4.722  1.00  0.00     0.088 A 
HETATM   24  H   UNL     1      44.464 -19.370   3.793  1.00  0.00     0.165 HD
HETATM   25  C   UNL     1      44.597 -21.754   5.927  1.00  0.00     0.019 A 
HETATM   26  C   UNL     1      43.720 -20.829   6.541  1.00  0.00     0.027 A 
ENDBRANCH  20  21
ENDBRANCH  17  20
ENDBRANCH  13  16
ENDBRANCH   9  10
ENDBRANCH   1   9
TORSDOF 5
ENDMDL
MODEL 7
REMARK VINA RESULT:      -7.4      6.527      8.809
REMARK  5 active torsions:
REMARK  status: ('A' for Active; 'I' for Inactive)
REMARK    1  A    between atoms: C_5  and  C_6 
REMARK    2  A    between atoms: C_6  and  C_7 
REMARK       I    between atoms: C_7  and  N_8 
REMARK    3  A    between atoms: N_8  and  C_9 
REMARK    4  A    between atoms: C_12  and  O_13 
REMARK    5  A    between atoms: O_13  and  C_14 
ROOT
HETATM    1  C   UNL     1      39.318 -13.756  -2.609  1.00  0.00     0.076 A 
HETATM    2  C   UNL     1      39.067 -14.994  -3.201  1.00  0.00     0.039 A 
HETATM    3  C   UNL     1      37.900 -15.186  -3.943  1.00  0.00     0.025 A 
HETATM    4  C   UNL     1      36.975 -14.143  -4.077  1.00  0.00     0.044 A 
HETATM    5  C   UNL     1      35.775 -14.341  -4.837  1.00  0.00     0.099 C 
HETATM    6  N   UNL     1      34.805 -14.502  -5.454  1.00  0.00    -0.191 NA
HETATM    7  C   UNL     1      37.222 -12.910  -3.461  1.00  0.00     0.025 A 
HETATM    8  C   UNL     1      38.390 -12.719  -2.717  1.00  0.00     0.039 A 
ENDROOT
BRANCH   1   9
HETATM    9  O   UNL     1      40.449 -13.640  -1.841  1.00  0.00    -0.311 OA
BRANCH   9  10
HETATM   10  C   UNL     1      40.556 -14.402  -0.700  1.00  0.00     0.076 A 
HETATM   11  C   UNL     1      39.755 -13.998   0.368  1.00  0.00     0.039 A 
HETATM   12  C   UNL     1      39.734 -14.731   1.560  1.00  0.00     0.032 A 
HETATM   13  C   UNL     1      40.510 -15.881   1.697  1.00  0.00     0.034 A 
HETATM   14  C   UNL     1      41.312 -16.284   0.621  1.00  0.00     0.032 A 
HETATM   15  C   UNL     1      41.327 -15.557  -0.577  1.00  0.00     0.039 A 
BRANCH  13  16
HETATM   16  N   UNL     1      40.529 -16.690   2.854  1.00  0.00    -0.327 N 
HETATM   17  C   UNL     1      41.561 -16.830   3.769  1.00  0.00     0.227 C 
HETATM   18  O   UNL     1      42.659 -16.277   3.711  1.00  0.00    -0.273 OA
HETATM   19  H   UNL     1      39.683 -17.217   3.034  1.00  0.00     0.169 HD
BRANCH  17  20
HETATM   20  C   UNL     1      41.205 -17.748   4.941  1.00  0.00     0.159 C 
BRANCH  20  21
HETATM   21  C   UNL     1      42.293 -17.810   5.968  1.00  0.00     0.017 A 
HETATM   22  N   UNL     1      43.521 -18.377   5.708  1.00  0.00    -0.369 N 
HETATM   23  C   UNL     1      44.321 -18.274   6.813  1.00  0.00     0.088 A 
HETATM   24  H   UNL     1      43.774 -18.825   4.830  1.00  0.00     0.165 HD
HETATM   25  C   UNL     1      43.610 -17.623   7.794  1.00  0.00     0.019 A 
HETATM   26  C   UNL     1      42.332 -17.328   7.263  1.00  0.00     0.027 A 
ENDBRANCH  20  21
ENDBRANCH  17  20
ENDBRANCH  13  16
ENDBRANCH   9  10
ENDBRANCH   1   9
TORSDOF 5
ENDMDL
MODEL 8
REMARK VINA RESULT:      -7.3      2.904      3.413
REMARK  5 active torsions:
REMARK  status: ('A' for Active; 'I' for Inactive)
REMARK    1  A    between atoms: C_5  and  C_6 
REMARK    2  A    between atoms: C_6  and  C_7 
REMARK       I    between atoms: C_7  and  N_8 
REMARK    3  A    between atoms: N_8  and  C_9 
REMARK    4  A    between atoms: C_12  and  O_13 
REMARK    5  A    between atoms: O_13  and  C_14 
ROOT
HETATM    1  C   UNL     1      41.965 -16.529   3.714  1.00  0.00     0.076 A 
HETATM    2  C   UNL     1      41.699 -17.385   4.783  1.00  0.00     0.039 A 
HETATM    3  C   UNL     1      42.528 -18.484   5.017  1.00  0.00     0.025 A 
HETATM    4  C   UNL     1      43.616 -18.734   4.171  1.00  0.00     0.044 A 
HETATM    5  C   UNL     1      44.467 -19.863   4.410  1.00  0.00     0.099 C 
HETATM    6  N   UNL     1      45.156 -20.776   4.607  1.00  0.00    -0.191 NA
HETATM    7  C   UNL     1      43.865 -17.883   3.087  1.00  0.00     0.025 A 
HETATM    8  C   UNL     1      43.032 -16.785   2.851  1.00  0.00     0.039 A 
ENDROOT
BRANCH   1   9
HETATM    9  O   UNL     1      41.084 -15.501   3.492  1.00  0.00    -0.311 OA
BRANCH   9  10
HETATM   10  C   UNL     1      41.030 -14.468   4.401  1.00  0.00     0.076 A 
HETATM   11  C   UNL     1      39.754 -14.126   4.846  1.00  0.00     0.039 A 
HETATM   12  C   UNL     1      39.579 -13.131   5.815  1.00  0.00     0.032 A 
HETATM   13  C   UNL     1      40.681 -12.468   6.355  1.00  0.00     0.034 A 
HETATM   14  C   UNL     1      41.962 -12.816   5.905  1.00  0.00     0.032 A 
HETATM   15  C   UNL     1      42.139 -13.819   4.942  1.00  0.00     0.039 A 
BRANCH  13  16
HETATM   16  N   UNL     1      40.594 -11.471   7.351  1.00  0.00    -0.327 N 
HETATM   17  C   UNL     1      39.754 -11.450   8.452  1.00  0.00     0.227 C 
HETATM   18  O   UNL     1      38.915 -12.303   8.739  1.00  0.00    -0.273 OA
HETATM   19  H   UNL     1      41.232 -10.691   7.244  1.00  0.00     0.169 HD
BRANCH  17  20
HETATM   20  C   UNL     1      39.981 -10.236   9.358  1.00  0.00     0.159 C 
BRANCH  20  21
HETATM   21  C   UNL     1      40.400 -10.628  10.741  1.00  0.00     0.017 A 
HETATM   22  N   UNL     1      39.811 -11.671  11.422  1.00  0.00    -0.369 N 
HETATM   23  C   UNL     1      40.404 -11.816  12.647  1.00  0.00     0.088 A 
HETATM   24  H   UNL     1      39.036 -12.225  11.067  1.00  0.00     0.165 HD
HETATM   25  C   UNL     1      41.394 -10.868  12.756  1.00  0.00     0.019 A 
HETATM   26  C   UNL     1      41.395 -10.119  11.555  1.00  0.00     0.027 A 
ENDBRANCH  20  21
ENDBRANCH  17  20
ENDBRANCH  13  16
ENDBRANCH   9  10
ENDBRANCH   1   9
TORSDOF 5
ENDMDL
MODEL 9
REMARK VINA RESULT:      -7.3      5.480      8.461
REMARK  5 active torsions:
REMARK  status: ('A' for Active; 'I' for Inactive)
REMARK    1  A    between atoms: C_5  and  C_6 
REMARK    2  A    between atoms: C_6  and  C_7 
REMARK       I    between atoms: C_7  and  N_8 
REMARK    3  A    between atoms: N_8  and  C_9 
REMARK    4  A    between atoms: C_12  and  O_13 
REMARK    5  A    between atoms: O_13  and  C_14 
ROOT
HETATM    1  C   UNL     1      40.801 -14.382  -0.996  1.00  0.00     0.076 A 
HETATM    2  C   UNL     1      40.561 -14.698  -2.333  1.00  0.00     0.039 A 
HETATM    3  C   UNL     1      41.017 -13.847  -3.342  1.00  0.00     0.025 A 
HETATM    4  C   UNL     1      41.701 -12.671  -3.010  1.00  0.00     0.044 A 
HETATM    5  C   UNL     1      42.169 -11.796  -4.046  1.00  0.00     0.099 C 
HETATM    6  N   UNL     1      42.549 -11.090  -4.885  1.00  0.00    -0.191 NA
HETATM    7  C   UNL     1      41.919 -12.348  -1.665  1.00  0.00     0.025 A 
HETATM    8  C   UNL     1      41.459 -13.199  -0.656  1.00  0.00     0.039 A 
ENDROOT
BRANCH   1   9
HETATM    9  O   UNL     1      40.277 -15.220  -0.044  1.00  0.00    -0.311 OA
BRANCH   9  10
HETATM   10  C   UNL     1      41.141 -15.953   0.739  1.00  0.00     0.076 A 
HETATM   11  C   UNL     1      40.630 -16.367   1.969  1.00  0.00     0.039 A 
HETATM   12  C   UNL     1      41.395 -17.168   2.825  1.00  0.00     0.032 A 
HETATM   13  C   UNL     1      42.679 -17.569   2.459  1.00  0.00     0.034 A 
HETATM   14  C   UNL     1      43.188 -17.150   1.222  1.00  0.00     0.032 A 
HETATM   15  C   UNL     1      42.420 -16.357   0.359  1.00  0.00     0.039 A 
BRANCH  13  16
HETATM   16  N   UNL     1      43.507 -18.394   3.252  1.00  0.00    -0.327 N 
HETATM   17  C   UNL     1      43.844 -19.719   3.022  1.00  0.00     0.227 C 
HETATM   18  O   UNL     1      43.455 -20.412   2.083  1.00  0.00    -0.273 OA
HETATM   19  H   UNL     1      43.902 -17.955   4.074  1.00  0.00     0.169 HD
BRANCH  17  20
HETATM   20  C   UNL     1      44.818 -20.278   4.062  1.00  0.00     0.159 C 
BRANCH  20  21
HETATM   21  C   UNL     1      44.582 -19.710   5.428  1.00  0.00     0.017 A 
HETATM   22  N   UNL     1      45.215 -18.568   5.870  1.00  0.00    -0.369 N 
HETATM   23  C   UNL     1      44.795 -18.270   7.139  1.00  0.00     0.088 A 
HETATM   24  H   UNL     1      45.905 -18.049   5.335  1.00  0.00     0.165 HD
HETATM   25  C   UNL     1      43.875 -19.220   7.517  1.00  0.00     0.019 A 
HETATM   26  C   UNL     1      43.738 -20.127   6.440  1.00  0.00     0.027 A 
ENDBRANCH  20  21
ENDBRANCH  17  20
ENDBRANCH  13  16
ENDBRANCH   9  10
ENDBRANCH   1   9
TORSDOF 5
ENDMDL
MODEL 10
REMARK VINA RESULT:      -7.3      3.484      9.769
REMARK  5 active torsions:
REMARK  status: ('A' for Active; 'I' for Inactive)
REMARK    1  A    between atoms: C_5  and  C_6 
REMARK    2  A    between atoms: C_6  and  C_7 
REMARK       I    between atoms: C_7  and  N_8 
REMARK    3  A    between atoms: N_8  and  C_9 
REMARK    4  A    between atoms: C_12  and  O_13 
REMARK    5  A    between atoms: O_13  and  C_14 
ROOT
HETATM    1  C   UNL     1      39.920 -11.122   7.429  1.00  0.00     0.076 A 
HETATM    2  C   UNL     1      39.429 -11.194   8.733  1.00  0.00     0.039 A 
HETATM    3  C   UNL     1      40.257 -10.862   9.807  1.00  0.00     0.025 A 
HETATM    4  C   UNL     1      41.583 -10.473   9.576  1.00  0.00     0.044 A 
HETATM    5  C   UNL     1      42.434 -10.134  10.679  1.00  0.00     0.099 C 
HETATM    6  N   UNL     1      43.121  -9.857  11.572  1.00  0.00    -0.191 NA
HETATM    7  C   UNL     1      42.076 -10.425   8.266  1.00  0.00     0.025 A 
HETATM    8  C   UNL     1      41.247 -10.761   7.192  1.00  0.00     0.039 A 
ENDROOT
BRANCH   1   9
HETATM    9  O   UNL     1      39.084 -11.518   6.416  1.00  0.00    -0.311 OA
BRANCH   9  10
HETATM   10  C   UNL     1      39.485 -12.544   5.590  1.00  0.00     0.076 A 
HETATM   11  C   UNL     1      39.847 -13.727   6.234  1.00  0.00     0.039 A 
HETATM   12  C   UNL     1      40.215 -14.857   5.496  1.00  0.00     0.032 A 
HETATM   13  C   UNL     1      40.221 -14.820   4.102  1.00  0.00     0.034 A 
HETATM   14  C   UNL     1      39.855 -13.630   3.459  1.00  0.00     0.032 A 
HETATM   15  C   UNL     1      39.476 -12.500   4.196  1.00  0.00     0.039 A 
BRANCH  13  16
HETATM   16  N   UNL     1      40.556 -15.921   3.283  1.00  0.00    -0.327 N 
HETATM   17  C   UNL     1      41.817 -16.295   2.847  1.00  0.00     0.227 C 
HETATM   18  O   UNL     1      42.870 -15.708   3.091  1.00  0.00    -0.273 OA
HETATM   19  H   UNL     1      39.779 -16.503   2.994  1.00  0.00     0.169 HD
BRANCH  17  20
HETATM   20  C   UNL     1      41.808 -17.584   2.021  1.00  0.00     0.159 C 
BRANCH  20  21
HETATM   21  C   UNL     1      42.815 -18.580   2.510  1.00  0.00     0.017 A 
HETATM   22  N   UNL     1      43.404 -18.483   3.751  1.00  0.00    -0.369 N 
HETATM   23  C   UNL     1      44.261 -19.534   3.939  1.00  0.00     0.088 A 
HETATM   24  H   UNL     1      43.239 -17.726   4.409  1.00  0.00     0.165 HD
HETATM   25  C   UNL     1      44.216 -20.326   2.815  1.00  0.00     0.019 A 
HETATM   26  C   UNL     1      43.304 -19.727   1.914  1.00  0.00     0.027 A 
ENDBRANCH  20  21
ENDBRANCH  17  20
ENDBRANCH  13  16
ENDBRANCH   9  10
ENDBRANCH   1   9
TORSDOF 5
ENDMDL
