MODEL 1
REMARK VINA RESULT:      -8.3      0.000      0.000
REMARK  10 active torsions:
REMARK  status: ('A' for Active; 'I' for Inactive)
REMARK    1  A    between atoms: C_4  and  C_5 
REMARK    2  A    between atoms: C_5  and  C_6 
REMARK    3  A    between atoms: C_6  and  N_7 
REMARK    4  A    between atoms: C_6  and  C_15 
REMARK       I    between atoms: N_7  and  C_8 
REMARK    5  A    between atoms: C_8  and  C_9 
REMARK       I    between atoms: C_15  and  N_16 
REMARK    6  A    between atoms: N_16  and  C_17 
REMARK    7  A    between atoms: C_17  and  C_18 
REMARK    8  A    between atoms: C_18  and  C_19 
REMARK    9  A    between atoms: C_21  and  O_22 
REMARK   10  A    between atoms: C_23  and  O_24 
ROOT
HETATM    1  C   UNL     1      43.974 -14.581   6.050  1.00  0.00     0.181 C 
ENDROOT
BRANCH   1   2
HETATM    2  C   UNL     1      43.033 -15.785   6.241  1.00  0.00     0.073 C 
BRANCH   2   3
HETATM    3  C   UNL     1      43.476 -17.026   5.497  1.00  0.00    -0.056 A 
HETATM    4  C   UNL     1      44.442 -17.879   6.047  1.00  0.00     0.007 A 
HETATM    5  C   UNL     1      44.843 -19.029   5.362  1.00  0.00     0.001 A 
HETATM    6  C   UNL     1      44.283 -19.336   4.124  1.00  0.00     0.000 A 
HETATM    7  C   UNL     1      43.318 -18.497   3.571  1.00  0.00     0.001 A 
HETATM    8  C   UNL     1      42.913 -17.349   4.255  1.00  0.00     0.007 A 
ENDBRANCH   2   3
ENDBRANCH   1   2
BRANCH   1   9
HETATM    9  N   UNL     1      44.062 -13.770   7.268  1.00  0.00    -0.342 N 
HETATM   10  C   UNL     1      45.223 -13.169   7.696  1.00  0.00     0.276 C 
HETATM   11  O   UNL     1      46.246 -13.184   7.014  1.00  0.00    -0.265 OA
HETATM   12  H   UNL     1      43.252 -13.691   7.873  1.00  0.00     0.163 HD
BRANCH  10  13
HETATM   13  C   UNL     1      45.115 -12.500   8.974  1.00  0.00     0.142 A 
HETATM   14  O   UNL     1      44.427 -13.103   9.997  1.00  0.00    -0.317 OA
HETATM   15  C   UNL     1      44.481 -12.263  11.064  1.00  0.00     0.143 A 
HETATM   16  C   UNL     1      45.188 -11.127  10.750  1.00  0.00     0.027 A 
HETATM   17  C   UNL     1      45.597 -11.278   9.403  1.00  0.00     0.045 A 
ENDBRANCH  10  13
ENDBRANCH   1   9
BRANCH   1  18
HETATM   18  C   UNL     1      43.493 -13.717   4.858  1.00  0.00     0.240 C 
HETATM   19  N   UNL     1      42.346 -12.994   5.119  1.00  0.00    -0.359 N 
HETATM   20  H   UNL     1      41.927 -13.087   6.046  1.00  0.00     0.162 HD
HETATM   21  O   UNL     1      44.106 -13.631   3.796  1.00  0.00    -0.271 OA
BRANCH  19  22
HETATM   22  C   UNL     1      41.755 -12.069   4.176  1.00  0.00     0.127 C 
BRANCH  22  23
HETATM   23  C   UNL     1      40.436 -12.591   3.592  1.00  0.00     0.058 C 
BRANCH  23  24
HETATM   24  C   UNL     1      40.554 -13.768   2.648  1.00  0.00    -0.054 A 
HETATM   25  C   UNL     1      41.247 -13.665   1.430  1.00  0.00     0.046 A 
HETATM   26  C   UNL     1      41.366 -14.780   0.607  1.00  0.00     0.099 A 
HETATM   27  C   UNL     1      40.818 -16.001   0.988  1.00  0.00     0.098 A 
HETATM   28  C   UNL     1      40.137 -16.127   2.188  1.00  0.00     0.040 A 
HETATM   29  C   UNL     1      40.008 -15.012   3.018  1.00  0.00     0.010 A 
BRANCH  26  30
HETATM   30  O   UNL     1      42.020 -14.723  -0.593  1.00  0.00    -0.358 OA
HETATM   31  H   UNL     1      42.202 -15.638  -0.873  1.00  0.00     0.218 HD
ENDBRANCH  26  30
BRANCH  27  32
HETATM   32  O   UNL     1      40.950 -17.091   0.176  1.00  0.00    -0.358 OA
HETATM   33  H   UNL     1      40.039 -17.281  -0.122  1.00  0.00     0.218 HD
ENDBRANCH  27  32
ENDBRANCH  23  24
ENDBRANCH  22  23
ENDBRANCH  19  22
ENDBRANCH   1  18
TORSDOF 10
ENDMDL
MODEL 2
REMARK VINA RESULT:      -8.2      2.673      5.091
REMARK  10 active torsions:
REMARK  status: ('A' for Active; 'I' for Inactive)
REMARK    1  A    between atoms: C_4  and  C_5 
REMARK    2  A    between atoms: C_5  and  C_6 
REMARK    3  A    between atoms: C_6  and  N_7 
REMARK    4  A    between atoms: C_6  and  C_15 
REMARK       I    between atoms: N_7  and  C_8 
REMARK    5  A    between atoms: C_8  and  C_9 
REMARK       I    between atoms: C_15  and  N_16 
REMARK    6  A    between atoms: N_16  and  C_17 
REMARK    7  A    between atoms: C_17  and  C_18 
REMARK    8  A    between atoms: C_18  and  C_19 
REMARK    9  A    between atoms: C_21  and  O_22 
REMARK   10  A    between atoms: C_23  and  O_24 
ROOT
HETATM    1  C   UNL     1      43.031 -15.008   6.217  1.00  0.00     0.181 C 
ENDROOT
BRANCH   1   2
HETATM    2  C   UNL     1      43.591 -14.826   4.795  1.00  0.00     0.073 C 
BRANCH   2   3
HETATM    3  C   UNL     1      42.890 -15.672   3.754  1.00  0.00    -0.056 A 
HETATM    4  C   UNL     1      41.599 -16.165   3.988  1.00  0.00     0.007 A 
HETATM    5  C   UNL     1      40.951 -16.939   3.022  1.00  0.00     0.001 A 
HETATM    6  C   UNL     1      41.585 -17.226   1.816  1.00  0.00     0.000 A 
HETATM    7  C   UNL     1      42.866 -16.737   1.571  1.00  0.00     0.001 A 
HETATM    8  C   UNL     1      43.515 -15.961   2.533  1.00  0.00     0.007 A 
ENDBRANCH   2   3
ENDBRANCH   1   2
BRANCH   1   9
HETATM    9  N   UNL     1      43.371 -13.870   7.077  1.00  0.00    -0.342 N 
HETATM   10  C   UNL     1      44.661 -13.528   7.408  1.00  0.00     0.276 C 
HETATM   11  O   UNL     1      45.628 -14.096   6.903  1.00  0.00    -0.265 OA
HETATM   12  H   UNL     1      42.627 -13.337   7.514  1.00  0.00     0.163 HD
BRANCH  10  13
HETATM   13  C   UNL     1      44.769 -12.435   8.349  1.00  0.00     0.142 A 
HETATM   14  O   UNL     1      43.631 -11.806   8.788  1.00  0.00    -0.317 OA
HETATM   15  C   UNL     1      44.021 -10.831   9.650  1.00  0.00     0.143 A 
HETATM   16  C   UNL     1      45.390 -10.814   9.774  1.00  0.00     0.027 A 
HETATM   17  C   UNL     1      45.873 -11.847   8.935  1.00  0.00     0.045 A 
ENDBRANCH  10  13
ENDBRANCH   1   9
BRANCH   1  18
HETATM   18  C   UNL     1      43.562 -16.326   6.831  1.00  0.00     0.240 C 
HETATM   19  N   UNL     1      44.505 -16.966   6.051  1.00  0.00    -0.359 N 
HETATM   20  H   UNL     1      44.764 -16.529   5.166  1.00  0.00     0.162 HD
HETATM   21  O   UNL     1      43.225 -16.739   7.939  1.00  0.00    -0.271 OA
BRANCH  19  22
HETATM   22  C   UNL     1      45.186 -18.178   6.457  1.00  0.00     0.127 C 
BRANCH  22  23
HETATM   23  C   UNL     1      44.289 -19.417   6.348  1.00  0.00     0.058 C 
BRANCH  23  24
HETATM   24  C   UNL     1      44.342 -20.155   5.028  1.00  0.00    -0.054 A 
HETATM   25  C   UNL     1      44.664 -21.521   4.963  1.00  0.00     0.046 A 
HETATM   26  C   UNL     1      44.665 -22.173   3.733  1.00  0.00     0.099 A 
HETATM   27  C   UNL     1      44.334 -21.485   2.570  1.00  0.00     0.098 A 
HETATM   28  C   UNL     1      44.007 -20.140   2.611  1.00  0.00     0.040 A 
HETATM   29  C   UNL     1      44.008 -19.476   3.840  1.00  0.00     0.010 A 
BRANCH  26  30
HETATM   30  O   UNL     1      44.984 -23.497   3.621  1.00  0.00    -0.358 OA
HETATM   31  H   UNL     1      45.907 -23.553   3.315  1.00  0.00     0.218 HD
ENDBRANCH  26  30
BRANCH  27  32
HETATM   32  O   UNL     1      44.329 -22.139   1.370  1.00  0.00    -0.358 OA
HETATM   33  H   UNL     1      44.973 -21.645   0.825  1.00  0.00     0.218 HD
ENDBRANCH  27  32
ENDBRANCH  23  24
ENDBRANCH  22  23
ENDBRANCH  19  22
ENDBRANCH   1  18
TORSDOF 10
ENDMDL
MODEL 3
REMARK VINA RESULT:      -8.1      3.253      5.808
REMARK  10 active torsions:
REMARK  status: ('A' for Active; 'I' for Inactive)
REMARK    1  A    between atoms: C_4  and  C_5 
REMARK    2  A    between atoms: C_5  and  C_6 
REMARK    3  A    between atoms: C_6  and  N_7 
REMARK    4  A    between atoms: C_6  and  C_15 
REMARK       I    between atoms: N_7  and  C_8 
REMARK    5  A    between atoms: C_8  and  C_9 
REMARK       I    between atoms: C_15  and  N_16 
REMARK    6  A    between atoms: N_16  and  C_17 
REMARK    7  A    between atoms: C_17  and  C_18 
REMARK    8  A    between atoms: C_18  and  C_19 
REMARK    9  A    between atoms: C_21  and  O_22 
REMARK   10  A    between atoms: C_23  and  O_24 
ROOT
HETATM    1  C   UNL     1      41.981 -15.281   5.431  1.00  0.00     0.181 C 
ENDROOT
BRANCH   1   2
HETATM    2  C   UNL     1      42.705 -15.016   4.098  1.00  0.00     0.073 C 
BRANCH   2   3
HETATM    3  C   UNL     1      42.205 -15.873   2.956  1.00  0.00    -0.056 A 
HETATM    4  C   UNL     1      40.869 -16.295   2.912  1.00  0.00     0.007 A 
HETATM    5  C   UNL     1      40.409 -17.079   1.852  1.00  0.00     0.001 A 
HETATM    6  C   UNL     1      41.276 -17.447   0.826  1.00  0.00     0.000 A 
HETATM    7  C   UNL     1      42.605 -17.029   0.857  1.00  0.00     0.001 A 
HETATM    8  C   UNL     1      43.067 -16.242   1.913  1.00  0.00     0.007 A 
ENDBRANCH   2   3
ENDBRANCH   1   2
BRANCH   1   9
HETATM    9  N   UNL     1      41.677 -14.030   6.134  1.00  0.00    -0.342 N 
HETATM   10  C   UNL     1      40.549 -13.281   5.897  1.00  0.00     0.276 C 
HETATM   11  O   UNL     1      39.657 -13.678   5.149  1.00  0.00    -0.265 OA
HETATM   12  H   UNL     1      42.355 -13.649   6.785  1.00  0.00     0.163 HD
BRANCH  10  13
HETATM   13  C   UNL     1      40.494 -12.033   6.625  1.00  0.00     0.142 A 
HETATM   14  O   UNL     1      39.289 -11.579   7.098  1.00  0.00    -0.317 OA
HETATM   15  C   UNL     1      39.527 -10.400   7.731  1.00  0.00     0.143 A 
HETATM   16  C   UNL     1      40.863 -10.081   7.674  1.00  0.00     0.027 A 
HETATM   17  C   UNL     1      41.487 -11.133   6.961  1.00  0.00     0.045 A 
ENDBRANCH  10  13
ENDBRANCH   1   9
BRANCH   1  18
HETATM   18  C   UNL     1      42.839 -16.209   6.325  1.00  0.00     0.240 C 
HETATM   19  N   UNL     1      42.732 -17.547   6.004  1.00  0.00    -0.359 N 
HETATM   20  H   UNL     1      42.118 -17.803   5.230  1.00  0.00     0.162 HD
HETATM   21  O   UNL     1      43.594 -15.793   7.201  1.00  0.00    -0.271 OA
BRANCH  19  22
HETATM   22  C   UNL     1      43.494 -18.588   6.663  1.00  0.00     0.127 C 
BRANCH  22  23
HETATM   23  C   UNL     1      44.786 -18.932   5.910  1.00  0.00     0.058 C 
BRANCH  23  24
HETATM   24  C   UNL     1      44.624 -19.830   4.702  1.00  0.00    -0.054 A 
HETATM   25  C   UNL     1      44.846 -21.215   4.783  1.00  0.00     0.046 A 
HETATM   26  C   UNL     1      44.649 -22.013   3.660  1.00  0.00     0.099 A 
HETATM   27  C   UNL     1      44.221 -21.451   2.461  1.00  0.00     0.098 A 
HETATM   28  C   UNL     1      43.990 -20.089   2.361  1.00  0.00     0.040 A 
HETATM   29  C   UNL     1      44.188 -19.280   3.481  1.00  0.00     0.010 A 
BRANCH  26  30
HETATM   30  O   UNL     1      44.865 -23.363   3.689  1.00  0.00    -0.358 OA
HETATM   31  H   UNL     1      44.612 -23.683   4.573  1.00  0.00     0.218 HD
ENDBRANCH  26  30
BRANCH  27  32
HETATM   32  O   UNL     1      44.023 -22.246   1.368  1.00  0.00    -0.358 OA
HETATM   33  H   UNL     1      44.905 -22.624   1.183  1.00  0.00     0.218 HD
ENDBRANCH  27  32
ENDBRANCH  23  24
ENDBRANCH  22  23
ENDBRANCH  19  22
ENDBRANCH   1  18
TORSDOF 10
ENDMDL
MODEL 4
REMARK VINA RESULT:      -8.0      2.162      7.900
REMARK  10 active torsions:
REMARK  status: ('A' for Active; 'I' for Inactive)
REMARK    1  A    between atoms: C_4  and  C_5 
REMARK    2  A    between atoms: C_5  and  C_6 
REMARK    3  A    between atoms: C_6  and  N_7 
REMARK    4  A    between atoms: C_6  and  C_15 
REMARK       I    between atoms: N_7  and  C_8 
REMARK    5  A    between atoms: C_8  and  C_9 
REMARK       I    between atoms: C_15  and  N_16 
REMARK    6  A    between atoms: N_16  and  C_17 
REMARK    7  A    between atoms: C_17  and  C_18 
REMARK    8  A    between atoms: C_18  and  C_19 
REMARK    9  A    between atoms: C_21  and  O_22 
REMARK   10  A    between atoms: C_23  and  O_24 
ROOT
HETATM    1  C   UNL     1      42.600 -17.282   3.171  1.00  0.00     0.181 C 
ENDROOT
BRANCH   1   2
HETATM    2  C   UNL     1      44.037 -17.830   3.117  1.00  0.00     0.073 C 
BRANCH   2   3
HETATM    3  C   UNL     1      44.108 -19.334   2.978  1.00  0.00    -0.056 A 
HETATM    4  C   UNL     1      44.705 -20.115   3.977  1.00  0.00     0.007 A 
HETATM    5  C   UNL     1      44.762 -21.505   3.850  1.00  0.00     0.001 A 
HETATM    6  C   UNL     1      44.224 -22.127   2.725  1.00  0.00     0.000 A 
HETATM    7  C   UNL     1      43.625 -21.361   1.729  1.00  0.00     0.001 A 
HETATM    8  C   UNL     1      43.563 -19.972   1.855  1.00  0.00     0.007 A 
ENDBRANCH   2   3
ENDBRANCH   1   2
BRANCH   1   9
HETATM    9  N   UNL     1      42.319 -16.397   2.036  1.00  0.00    -0.342 N 
HETATM   10  C   UNL     1      41.199 -16.508   1.246  1.00  0.00     0.276 C 
HETATM   11  O   UNL     1      40.296 -17.297   1.517  1.00  0.00    -0.265 OA
HETATM   12  H   UNL     1      43.008 -15.704   1.763  1.00  0.00     0.163 HD
BRANCH  10  13
HETATM   13  C   UNL     1      41.168 -15.602   0.120  1.00  0.00     0.142 A 
HETATM   14  O   UNL     1      41.107 -16.109  -1.154  1.00  0.00    -0.317 OA
HETATM   15  C   UNL     1      41.092 -15.049  -2.005  1.00  0.00     0.143 A 
HETATM   16  C   UNL     1      41.146 -13.867  -1.306  1.00  0.00     0.027 A 
HETATM   17  C   UNL     1      41.196 -14.222   0.064  1.00  0.00     0.045 A 
ENDBRANCH  10  13
ENDBRANCH   1   9
BRANCH   1  18
HETATM   18  C   UNL     1      42.367 -16.536   4.508  1.00  0.00     0.240 C 
HETATM   19  N   UNL     1      43.338 -15.600   4.802  1.00  0.00    -0.359 N 
HETATM   20  H   UNL     1      44.101 -15.482   4.135  1.00  0.00     0.162 HD
HETATM   21  O   UNL     1      41.378 -16.713   5.216  1.00  0.00    -0.271 OA
BRANCH  19  22
HETATM   22  C   UNL     1      43.289 -14.739   5.965  1.00  0.00     0.127 C 
BRANCH  22  23
HETATM   23  C   UNL     1      44.491 -14.943   6.895  1.00  0.00     0.058 C 
BRANCH  23  24
HETATM   24  C   UNL     1      44.950 -13.717   7.656  1.00  0.00    -0.054 A 
HETATM   25  C   UNL     1      46.142 -13.051   7.324  1.00  0.00     0.046 A 
HETATM   26  C   UNL     1      46.510 -11.905   8.022  1.00  0.00     0.099 A 
HETATM   27  C   UNL     1      45.700 -11.405   9.036  1.00  0.00     0.098 A 
HETATM   28  C   UNL     1      44.517 -12.042   9.376  1.00  0.00     0.040 A 
HETATM   29  C   UNL     1      44.142 -13.195   8.684  1.00  0.00     0.010 A 
BRANCH  26  30
HETATM   30  O   UNL     1      47.667 -11.232   7.741  1.00  0.00    -0.358 OA
HETATM   31  H   UNL     1      47.626 -10.950   6.811  1.00  0.00     0.218 HD
ENDBRANCH  26  30
BRANCH  27  32
HETATM   32  O   UNL     1      46.067 -10.274   9.708  1.00  0.00    -0.358 OA
HETATM   33  H   UNL     1      45.241  -9.758   9.781  1.00  0.00     0.218 HD
ENDBRANCH  27  32
ENDBRANCH  23  24
ENDBRANCH  22  23
ENDBRANCH  19  22
ENDBRANCH   1  18
TORSDOF 10
ENDMDL
MODEL 5
REMARK VINA RESULT:      -7.9      3.260      8.035
REMARK  10 active torsions:
REMARK  status: ('A' for Active; 'I' for Inactive)
REMARK    1  A    between atoms: C_4  and  C_5 
REMARK    2  A    between atoms: C_5  and  C_6 
REMARK    3  A    between atoms: C_6  and  N_7 
REMARK    4  A    between atoms: C_6  and  C_15 
REMARK       I    between atoms: N_7  and  C_8 
REMARK    5  A    between atoms: C_8  and  C_9 
REMARK       I    between atoms: C_15  and  N_16 
REMARK    6  A    between atoms: N_16  and  C_17 
REMARK    7  A    between atoms: C_17  and  C_18 
REMARK    8  A    between atoms: C_18  and  C_19 
REMARK    9  A    between atoms: C_21  and  O_22 
REMARK   10  A    between atoms: C_23  and  O_24 
ROOT
HETATM    1  C   UNL     1      41.638 -17.554   1.357  1.00  0.00     0.181 C 
ENDROOT
BRANCH   1   2
HETATM    2  C   UNL     1      43.158 -17.792   1.305  1.00  0.00     0.073 C 
BRANCH   2   3
HETATM    3  C   UNL     1      43.580 -19.144   1.838  1.00  0.00    -0.056 A 
HETATM    4  C   UNL     1      42.903 -20.307   1.447  1.00  0.00     0.007 A 
HETATM    5  C   UNL     1      43.299 -21.554   1.934  1.00  0.00     0.001 A 
HETATM    6  C   UNL     1      44.374 -21.652   2.815  1.00  0.00     0.000 A 
HETATM    7  C   UNL     1      45.057 -20.502   3.206  1.00  0.00     0.001 A 
HETATM    8  C   UNL     1      44.666 -19.254   2.718  1.00  0.00     0.007 A 
ENDBRANCH   2   3
ENDBRANCH   1   2
BRANCH   1   9
HETATM    9  N   UNL     1      41.143 -16.967   0.108  1.00  0.00    -0.342 N 
HETATM   10  C   UNL     1      41.369 -15.660  -0.257  1.00  0.00     0.276 C 
HETATM   11  O   UNL     1      42.107 -14.926   0.398  1.00  0.00    -0.265 OA
HETATM   12  H   UNL     1      40.545 -17.518  -0.498  1.00  0.00     0.163 HD
BRANCH  10  13
HETATM   13  C   UNL     1      40.707 -15.257  -1.478  1.00  0.00     0.142 A 
HETATM   14  O   UNL     1      39.636 -14.401  -1.415  1.00  0.00    -0.317 OA
HETATM   15  C   UNL     1      39.213 -14.196  -2.690  1.00  0.00     0.143 A 
HETATM   16  C   UNL     1      39.987 -14.906  -3.577  1.00  0.00     0.027 A 
HETATM   17  C   UNL     1      40.951 -15.591  -2.797  1.00  0.00     0.045 A 
ENDBRANCH  10  13
ENDBRANCH   1   9
BRANCH   1  18
HETATM   18  C   UNL     1      41.286 -16.644   2.559  1.00  0.00     0.240 C 
HETATM   19  N   UNL     1      42.382 -16.047   3.148  1.00  0.00    -0.359 N 
HETATM   20  H   UNL     1      43.302 -16.248   2.753  1.00  0.00     0.162 HD
HETATM   21  O   UNL     1      40.132 -16.421   2.922  1.00  0.00    -0.271 OA
BRANCH  19  22
HETATM   22  C   UNL     1      42.284 -15.105   4.244  1.00  0.00     0.127 C 
BRANCH  22  23
HETATM   23  C   UNL     1      43.509 -15.150   5.165  1.00  0.00     0.058 C 
BRANCH  23  24
HETATM   24  C   UNL     1      43.621 -16.371   6.052  1.00  0.00    -0.054 A 
HETATM   25  C   UNL     1      43.489 -16.278   7.448  1.00  0.00     0.046 A 
HETATM   26  C   UNL     1      43.560 -17.430   8.226  1.00  0.00     0.099 A 
HETATM   27  C   UNL     1      43.746 -18.674   7.631  1.00  0.00     0.098 A 
HETATM   28  C   UNL     1      43.872 -18.789   6.257  1.00  0.00     0.040 A 
HETATM   29  C   UNL     1      43.807 -17.639   5.468  1.00  0.00     0.010 A 
BRANCH  26  30
HETATM   30  O   UNL     1      43.449 -17.386   9.589  1.00  0.00    -0.358 OA
HETATM   31  H   UNL     1      42.910 -16.608   9.815  1.00  0.00     0.218 HD
ENDBRANCH  26  30
BRANCH  27  32
HETATM   32  O   UNL     1      43.805 -19.798   8.405  1.00  0.00    -0.358 OA
HETATM   33  H   UNL     1      44.056 -20.506   7.781  1.00  0.00     0.218 HD
ENDBRANCH  27  32
ENDBRANCH  23  24
ENDBRANCH  22  23
ENDBRANCH  19  22
ENDBRANCH   1  18
TORSDOF 10
ENDMDL
MODEL 6
REMARK VINA RESULT:      -7.8      4.105      8.894
REMARK  10 active torsions:
REMARK  status: ('A' for Active; 'I' for Inactive)
REMARK    1  A    between atoms: C_4  and  C_5 
REMARK    2  A    between atoms: C_5  and  C_6 
REMARK    3  A    between atoms: C_6  and  N_7 
REMARK    4  A    between atoms: C_6  and  C_15 
REMARK       I    between atoms: N_7  and  C_8 
REMARK    5  A    between atoms: C_8  and  C_9 
REMARK       I    between atoms: C_15  and  N_16 
REMARK    6  A    between atoms: N_16  and  C_17 
REMARK    7  A    between atoms: C_17  and  C_18 
REMARK    8  A    between atoms: C_18  and  C_19 
REMARK    9  A    between atoms: C_21  and  O_22 
REMARK   10  A    between atoms: C_23  and  O_24 
ROOT
HETATM    1  C   UNL     1      40.599 -14.633   1.170  1.00  0.00     0.181 C 
ENDROOT
BRANCH   1   2
HETATM    2  C   UNL     1      39.568 -14.975   2.261  1.00  0.00     0.073 C 
BRANCH   2   3
HETATM    3  C   UNL     1      39.725 -14.155   3.523  1.00  0.00    -0.056 A 
HETATM    4  C   UNL     1      40.121 -14.762   4.722  1.00  0.00     0.007 A 
HETATM    5  C   UNL     1      40.272 -14.002   5.884  1.00  0.00     0.001 A 
HETATM    6  C   UNL     1      40.031 -12.629   5.858  1.00  0.00     0.000 A 
HETATM    7  C   UNL     1      39.642 -12.016   4.670  1.00  0.00     0.001 A 
HETATM    8  C   UNL     1      39.493 -12.773   3.506  1.00  0.00     0.007 A 
ENDBRANCH   2   3
ENDBRANCH   1   2
BRANCH   1   9
HETATM    9  N   UNL     1      40.162 -15.102  -0.149  1.00  0.00    -0.342 N 
HETATM   10  C   UNL     1      40.095 -14.292  -1.258  1.00  0.00     0.276 C 
HETATM   11  O   UNL     1      40.512 -13.136  -1.237  1.00  0.00    -0.265 OA
HETATM   12  H   UNL     1      39.823 -16.053  -0.251  1.00  0.00     0.163 HD
BRANCH  10  13
HETATM   13  C   UNL     1      39.541 -14.929  -2.432  1.00  0.00     0.142 A 
HETATM   14  O   UNL     1      38.245 -14.666  -2.795  1.00  0.00    -0.317 OA
HETATM   15  C   UNL     1      37.989 -15.390  -3.917  1.00  0.00     0.143 A 
HETATM   16  C   UNL     1      39.095 -16.119  -4.284  1.00  0.00     0.027 A 
HETATM   17  C   UNL     1      40.096 -15.823  -3.327  1.00  0.00     0.045 A 
ENDBRANCH  10  13
ENDBRANCH   1   9
BRANCH   1  18
HETATM   18  C   UNL     1      41.975 -15.244   1.531  1.00  0.00     0.240 C 
HETATM   19  N   UNL     1      42.154 -16.531   1.067  1.00  0.00    -0.359 N 
HETATM   20  H   UNL     1      41.390 -16.957   0.541  1.00  0.00     0.162 HD
HETATM   21  O   UNL     1      42.855 -14.623   2.124  1.00  0.00    -0.271 OA
BRANCH  19  22
HETATM   22  C   UNL     1      43.387 -17.273   1.229  1.00  0.00     0.127 C 
BRANCH  22  23
HETATM   23  C   UNL     1      43.609 -17.730   2.677  1.00  0.00     0.058 C 
BRANCH  23  24
HETATM   24  C   UNL     1      43.898 -19.204   2.865  1.00  0.00    -0.054 A 
HETATM   25  C   UNL     1      43.690 -20.130   1.830  1.00  0.00     0.046 A 
HETATM   26  C   UNL     1      44.003 -21.471   2.029  1.00  0.00     0.099 A 
HETATM   27  C   UNL     1      44.535 -21.899   3.242  1.00  0.00     0.098 A 
HETATM   28  C   UNL     1      44.755 -21.002   4.274  1.00  0.00     0.040 A 
HETATM   29  C   UNL     1      44.439 -19.655   4.085  1.00  0.00     0.010 A 
BRANCH  26  30
HETATM   30  O   UNL     1      43.806 -22.409   1.055  1.00  0.00    -0.358 OA
HETATM   31  H   UNL     1      43.389 -21.963   0.296  1.00  0.00     0.218 HD
ENDBRANCH  26  30
BRANCH  27  32
HETATM   32  O   UNL     1      44.848 -23.216   3.422  1.00  0.00    -0.358 OA
HETATM   33  H   UNL     1      45.823 -23.241   3.373  1.00  0.00     0.218 HD
ENDBRANCH  27  32
ENDBRANCH  23  24
ENDBRANCH  22  23
ENDBRANCH  19  22
ENDBRANCH   1  18
TORSDOF 10
ENDMDL
MODEL 7
REMARK VINA RESULT:      -7.7      3.672      7.184
REMARK  10 active torsions:
REMARK  status: ('A' for Active; 'I' for Inactive)
REMARK    1  A    between atoms: C_4  and  C_5 
REMARK    2  A    between atoms: C_5  and  C_6 
REMARK    3  A    between atoms: C_6  and  N_7 
REMARK    4  A    between atoms: C_6  and  C_15 
REMARK       I    between atoms: N_7  and  C_8 
REMARK    5  A    between atoms: C_8  and  C_9 
REMARK       I    between atoms: C_15  and  N_16 
REMARK    6  A    between atoms: N_16  and  C_17 
REMARK    7  A    between atoms: C_17  and  C_18 
REMARK    8  A    between atoms: C_18  and  C_19 
REMARK    9  A    between atoms: C_21  and  O_22 
REMARK   10  A    between atoms: C_23  and  O_24 
ROOT
HETATM    1  C   UNL     1      40.925 -15.058   3.724  1.00  0.00     0.181 C 
ENDROOT
BRANCH   1   2
HETATM    2  C   UNL     1      40.685 -15.216   5.236  1.00  0.00     0.073 C 
BRANCH   2   3
HETATM    3  C   UNL     1      41.868 -15.793   5.982  1.00  0.00    -0.056 A 
HETATM    4  C   UNL     1      41.738 -16.979   6.718  1.00  0.00     0.007 A 
HETATM    5  C   UNL     1      42.833 -17.514   7.399  1.00  0.00     0.001 A 
HETATM    6  C   UNL     1      44.069 -16.870   7.351  1.00  0.00     0.000 A 
HETATM    7  C   UNL     1      44.210 -15.694   6.618  1.00  0.00     0.001 A 
HETATM    8  C   UNL     1      43.118 -15.159   5.934  1.00  0.00     0.007 A 
ENDBRANCH   2   3
ENDBRANCH   1   2
BRANCH   1   9
HETATM    9  N   UNL     1      39.811 -14.362   3.073  1.00  0.00    -0.342 N 
HETATM   10  C   UNL     1      39.943 -13.643   1.908  1.00  0.00     0.276 C 
HETATM   11  O   UNL     1      40.995 -13.634   1.272  1.00  0.00    -0.265 OA
HETATM   12  H   UNL     1      38.904 -14.342   3.526  1.00  0.00     0.163 HD
BRANCH  10  13
HETATM   13  C   UNL     1      38.743 -12.950   1.492  1.00  0.00     0.142 A 
HETATM   14  O   UNL     1      38.496 -11.685   1.961  1.00  0.00    -0.317 OA
HETATM   15  C   UNL     1      37.317 -11.282   1.419  1.00  0.00     0.143 A 
HETATM   16  C   UNL     1      36.795 -12.264   0.611  1.00  0.00     0.027 A 
HETATM   17  C   UNL     1      37.713 -13.341   0.658  1.00  0.00     0.045 A 
ENDBRANCH  10  13
ENDBRANCH   1   9
BRANCH   1  18
HETATM   18  C   UNL     1      41.147 -16.446   3.075  1.00  0.00     0.240 C 
HETATM   19  N   UNL     1      42.094 -16.448   2.071  1.00  0.00    -0.359 N 
HETATM   20  H   UNL     1      42.554 -15.564   1.850  1.00  0.00     0.162 HD
HETATM   21  O   UNL     1      40.580 -17.468   3.456  1.00  0.00    -0.271 OA
BRANCH  19  22
HETATM   22  C   UNL     1      42.512 -17.645   1.372  1.00  0.00     0.127 C 
BRANCH  22  23
HETATM   23  C   UNL     1      43.968 -18.022   1.675  1.00  0.00     0.058 C 
BRANCH  23  24
HETATM   24  C   UNL     1      44.164 -19.127   2.690  1.00  0.00    -0.054 A 
HETATM   25  C   UNL     1      44.297 -20.469   2.297  1.00  0.00     0.046 A 
HETATM   26  C   UNL     1      44.515 -21.453   3.257  1.00  0.00     0.099 A 
HETATM   27  C   UNL     1      44.616 -21.114   4.603  1.00  0.00     0.098 A 
HETATM   28  C   UNL     1      44.495 -19.797   5.013  1.00  0.00     0.040 A 
HETATM   29  C   UNL     1      44.272 -18.804   4.057  1.00  0.00     0.010 A 
BRANCH  26  30
HETATM   30  O   UNL     1      44.637 -22.773   2.922  1.00  0.00    -0.358 OA
HETATM   31  H   UNL     1      44.981 -22.814   2.012  1.00  0.00     0.218 HD
ENDBRANCH  26  30
BRANCH  27  32
HETATM   32  O   UNL     1      44.839 -22.087   5.536  1.00  0.00    -0.358 OA
HETATM   33  H   UNL     1      44.689 -21.639   6.391  1.00  0.00     0.218 HD
ENDBRANCH  27  32
ENDBRANCH  23  24
ENDBRANCH  22  23
ENDBRANCH  19  22
ENDBRANCH   1  18
TORSDOF 10
ENDMDL
MODEL 8
REMARK VINA RESULT:      -7.7      3.361      6.402
REMARK  10 active torsions:
REMARK  status: ('A' for Active; 'I' for Inactive)
REMARK    1  A    between atoms: C_4  and  C_5 
REMARK    2  A    between atoms: C_5  and  C_6 
REMARK    3  A    between atoms: C_6  and  N_7 
REMARK    4  A    between atoms: C_6  and  C_15 
REMARK       I    between atoms: N_7  and  C_8 
REMARK    5  A    between atoms: C_8  and  C_9 
REMARK       I    between atoms: C_15  and  N_16 
REMARK    6  A    between atoms: N_16  and  C_17 
REMARK    7  A    between atoms: C_17  and  C_18 
REMARK    8  A    between atoms: C_18  and  C_19 
REMARK    9  A    between atoms: C_21  and  O_22 
REMARK   10  A    between atoms: C_23  and  O_24 
ROOT
HETATM    1  C   UNL     1      41.233 -15.648   3.188  1.00  0.00     0.181 C 
ENDROOT
BRANCH   1   2
HETATM    2  C   UNL     1      41.061 -15.003   4.575  1.00  0.00     0.073 C 
BRANCH   2   3
HETATM    3  C   UNL     1      41.977 -15.582   5.632  1.00  0.00    -0.056 A 
HETATM    4  C   UNL     1      41.582 -16.697   6.383  1.00  0.00     0.007 A 
HETATM    5  C   UNL     1      42.432 -17.235   7.352  1.00  0.00     0.001 A 
HETATM    6  C   UNL     1      43.683 -16.665   7.580  1.00  0.00     0.000 A 
HETATM    7  C   UNL     1      44.087 -15.559   6.835  1.00  0.00     0.001 A 
HETATM    8  C   UNL     1      43.241 -15.021   5.863  1.00  0.00     0.007 A 
ENDBRANCH   2   3
ENDBRANCH   1   2
BRANCH   1   9
HETATM    9  N   UNL     1      42.169 -16.776   3.233  1.00  0.00    -0.342 N 
HETATM   10  C   UNL     1      42.108 -17.846   2.372  1.00  0.00     0.276 C 
HETATM   11  O   UNL     1      41.322 -17.869   1.427  1.00  0.00    -0.265 OA
HETATM   12  H   UNL     1      42.862 -16.818   3.972  1.00  0.00     0.163 HD
BRANCH  10  13
HETATM   13  C   UNL     1      43.061 -18.897   2.654  1.00  0.00     0.142 A 
HETATM   14  O   UNL     1      43.091 -20.013   1.857  1.00  0.00    -0.317 OA
HETATM   15  C   UNL     1      44.065 -20.826   2.344  1.00  0.00     0.143 A 
HETATM   16  C   UNL     1      44.663 -20.258   3.444  1.00  0.00     0.027 A 
HETATM   17  C   UNL     1      44.016 -19.015   3.645  1.00  0.00     0.045 A 
ENDBRANCH  10  13
ENDBRANCH   1   9
BRANCH   1  18
HETATM   18  C   UNL     1      41.713 -14.588   2.167  1.00  0.00     0.240 C 
HETATM   19  N   UNL     1      41.099 -14.682   0.934  1.00  0.00    -0.359 N 
HETATM   20  H   UNL     1      40.402 -15.417   0.806  1.00  0.00     0.162 HD
HETATM   21  O   UNL     1      42.521 -13.703   2.441  1.00  0.00    -0.271 OA
BRANCH  19  22
HETATM   22  C   UNL     1      41.343 -13.755  -0.150  1.00  0.00     0.127 C 
BRANCH  22  23
HETATM   23  C   UNL     1      41.523 -14.465  -1.498  1.00  0.00     0.058 C 
BRANCH  23  24
HETATM   24  C   UNL     1      40.266 -14.637  -2.324  1.00  0.00    -0.054 A 
HETATM   25  C   UNL     1      40.210 -15.548  -3.393  1.00  0.00     0.046 A 
HETATM   26  C   UNL     1      39.025 -15.706  -4.104  1.00  0.00     0.099 A 
HETATM   27  C   UNL     1      37.890 -14.980  -3.755  1.00  0.00     0.098 A 
HETATM   28  C   UNL     1      37.921 -14.082  -2.701  1.00  0.00     0.040 A 
HETATM   29  C   UNL     1      39.107 -13.913  -1.984  1.00  0.00     0.010 A 
BRANCH  26  30
HETATM   30  O   UNL     1      38.928 -16.571  -5.159  1.00  0.00    -0.358 OA
HETATM   31  H   UNL     1      38.334 -17.294  -4.893  1.00  0.00     0.218 HD
ENDBRANCH  26  30
BRANCH  27  32
HETATM   32  O   UNL     1      36.729 -15.151  -4.455  1.00  0.00    -0.358 OA
HETATM   33  H   UNL     1      36.353 -14.251  -4.521  1.00  0.00     0.218 HD
ENDBRANCH  27  32
ENDBRANCH  23  24
ENDBRANCH  22  23
ENDBRANCH  19  22
ENDBRANCH   1  18
TORSDOF 10
ENDMDL
MODEL 9
REMARK VINA RESULT:      -7.7      2.521      5.219
REMARK  10 active torsions:
REMARK  status: ('A' for Active; 'I' for Inactive)
REMARK    1  A    between atoms: C_4  and  C_5 
REMARK    2  A    between atoms: C_5  and  C_6 
REMARK    3  A    between atoms: C_6  and  N_7 
REMARK    4  A    between atoms: C_6  and  C_15 
REMARK       I    between atoms: N_7  and  C_8 
REMARK    5  A    between atoms: C_8  and  C_9 
REMARK       I    between atoms: C_15  and  N_16 
REMARK    6  A    between atoms: N_16  and  C_17 
REMARK    7  A    between atoms: C_17  and  C_18 
REMARK    8  A    between atoms: C_18  and  C_19 
REMARK    9  A    between atoms: C_21  and  O_22 
REMARK   10  A    between atoms: C_23  and  O_24 
ROOT
HETATM    1  C   UNL     1      43.081 -14.478   6.044  1.00  0.00     0.181 C 
ENDROOT
BRANCH   1   2
HETATM    2  C   UNL     1      42.793 -15.935   6.450  1.00  0.00     0.073 C 
BRANCH   2   3
HETATM    3  C   UNL     1      43.228 -16.951   5.417  1.00  0.00    -0.056 A 
HETATM    4  C   UNL     1      43.544 -18.262   5.797  1.00  0.00     0.007 A 
HETATM    5  C   UNL     1      43.938 -19.201   4.840  1.00  0.00     0.001 A 
HETATM    6  C   UNL     1      44.019 -18.838   3.497  1.00  0.00     0.000 A 
HETATM    7  C   UNL     1      43.703 -17.539   3.109  1.00  0.00     0.001 A 
HETATM    8  C   UNL     1      43.305 -16.599   4.062  1.00  0.00     0.007 A 
ENDBRANCH   2   3
ENDBRANCH   1   2
BRANCH   1   9
HETATM    9  N   UNL     1      43.509 -13.674   7.193  1.00  0.00    -0.342 N 
HETATM   10  C   UNL     1      44.826 -13.410   7.485  1.00  0.00     0.276 C 
HETATM   11  O   UNL     1      45.734 -13.742   6.725  1.00  0.00    -0.265 OA
HETATM   12  H   UNL     1      42.815 -13.345   7.856  1.00  0.00     0.163 HD
BRANCH  10  13
HETATM   13  C   UNL     1      45.033 -12.684   8.719  1.00  0.00     0.142 A 
HETATM   14  O   UNL     1      44.427 -13.122   9.870  1.00  0.00    -0.317 OA
HETATM   15  C   UNL     1      44.786 -12.265  10.861  1.00  0.00     0.143 A 
HETATM   16  C   UNL     1      45.610 -11.278  10.373  1.00  0.00     0.027 A 
HETATM   17  C   UNL     1      45.769 -11.547   8.992  1.00  0.00     0.045 A 
ENDBRANCH  10  13
ENDBRANCH   1   9
BRANCH   1  18
HETATM   18  C   UNL     1      41.826 -13.854   5.386  1.00  0.00     0.240 C 
HETATM   19  N   UNL     1      40.769 -13.677   6.255  1.00  0.00    -0.359 N 
HETATM   20  H   UNL     1      40.899 -13.963   7.226  1.00  0.00     0.162 HD
HETATM   21  O   UNL     1      41.790 -13.490   4.212  1.00  0.00    -0.271 OA
BRANCH  19  22
HETATM   22  C   UNL     1      39.520 -13.050   5.874  1.00  0.00     0.127 C 
BRANCH  22  23
HETATM   23  C   UNL     1      39.500 -11.549   6.188  1.00  0.00     0.058 C 
BRANCH  23  24
HETATM   24  C   UNL     1      40.150 -11.140   7.492  1.00  0.00    -0.054 A 
HETATM   25  C   UNL     1      39.478 -11.273   8.719  1.00  0.00     0.046 A 
HETATM   26  C   UNL     1      40.123 -10.922   9.901  1.00  0.00     0.099 A 
HETATM   27  C   UNL     1      41.433 -10.455   9.879  1.00  0.00     0.098 A 
HETATM   28  C   UNL     1      42.116 -10.322   8.682  1.00  0.00     0.040 A 
HETATM   29  C   UNL     1      41.476 -10.667   7.490  1.00  0.00     0.010 A 
BRANCH  26  30
HETATM   30  O   UNL     1      39.504 -11.023  11.116  1.00  0.00    -0.358 OA
HETATM   31  H   UNL     1      40.119 -11.470  11.724  1.00  0.00     0.218 HD
ENDBRANCH  26  30
BRANCH  27  32
HETATM   32  O   UNL     1      42.058 -10.123  11.047  1.00  0.00    -0.358 OA
HETATM   33  H   UNL     1      42.987 -10.392  10.907  1.00  0.00     0.218 HD
ENDBRANCH  27  32
ENDBRANCH  23  24
ENDBRANCH  22  23
ENDBRANCH  19  22
ENDBRANCH   1  18
TORSDOF 10
ENDMDL
MODEL 10
REMARK VINA RESULT:      -7.6      3.422      6.488
REMARK  10 active torsions:
REMARK  status: ('A' for Active; 'I' for Inactive)
REMARK    1  A    between atoms: C_4  and  C_5 
REMARK    2  A    between atoms: C_5  and  C_6 
REMARK    3  A    between atoms: C_6  and  N_7 
REMARK    4  A    between atoms: C_6  and  C_15 
REMARK       I    between atoms: N_7  and  C_8 
REMARK    5  A    between atoms: C_8  and  C_9 
REMARK       I    between atoms: C_15  and  N_16 
REMARK    6  A    between atoms: N_16  and  C_17 
REMARK    7  A    between atoms: C_17  and  C_18 
REMARK    8  A    between atoms: C_18  and  C_19 
REMARK    9  A    between atoms: C_21  and  O_22 
REMARK   10  A    between atoms: C_23  and  O_24 
ROOT
HETATM    1  C   UNL     1      42.943 -17.837   2.652  1.00  0.00     0.181 C 
ENDROOT
BRANCH   1   2
HETATM    2  C   UNL     1      44.326 -18.478   2.438  1.00  0.00     0.073 C 
BRANCH   2   3
HETATM    3  C   UNL     1      44.414 -19.910   2.920  1.00  0.00    -0.056 A 
HETATM    4  C   UNL     1      44.095 -20.971   2.061  1.00  0.00     0.007 A 
HETATM    5  C   UNL     1      44.184 -22.292   2.506  1.00  0.00     0.001 A 
HETATM    6  C   UNL     1      44.593 -22.565   3.810  1.00  0.00     0.000 A 
HETATM    7  C   UNL     1      44.916 -21.518   4.669  1.00  0.00     0.001 A 
HETATM    8  C   UNL     1      44.831 -20.197   4.227  1.00  0.00     0.007 A 
ENDBRANCH   2   3
ENDBRANCH   1   2
BRANCH   1   9
HETATM    9  N   UNL     1      42.686 -16.775   1.675  1.00  0.00    -0.342 N 
HETATM   10  C   UNL     1      41.442 -16.508   1.154  1.00  0.00     0.276 C 
HETATM   11  O   UNL     1      40.435 -17.080   1.566  1.00  0.00    -0.265 OA
HETATM   12  H   UNL     1      43.465 -16.242   1.303  1.00  0.00     0.163 HD
BRANCH  10  13
HETATM   13  C   UNL     1      41.427 -15.486   0.131  1.00  0.00     0.142 A 
HETATM   14  O   UNL     1      41.958 -14.250   0.402  1.00  0.00    -0.317 OA
HETATM   15  C   UNL     1      41.810 -13.497  -0.720  1.00  0.00     0.143 A 
HETATM   16  C   UNL     1      41.190 -14.221  -1.710  1.00  0.00     0.027 A 
HETATM   17  C   UNL     1      40.942 -15.503  -1.163  1.00  0.00     0.045 A 
ENDBRANCH  10  13
ENDBRANCH   1   9
BRANCH   1  18
HETATM   18  C   UNL     1      42.833 -17.284   4.094  1.00  0.00     0.240 C 
HETATM   19  N   UNL     1      41.567 -17.384   4.635  1.00  0.00    -0.359 N 
HETATM   20  H   UNL     1      40.835 -17.801   4.058  1.00  0.00     0.162 HD
HETATM   21  O   UNL     1      43.794 -16.852   4.726  1.00  0.00    -0.271 OA
BRANCH  19  22
HETATM   22  C   UNL     1      41.247 -16.992   5.992  1.00  0.00     0.127 C 
BRANCH  22  23
HETATM   23  C   UNL     1      40.415 -15.704   6.048  1.00  0.00     0.058 C 
BRANCH  23  24
HETATM   24  C   UNL     1      40.771 -14.645   5.027  1.00  0.00    -0.054 A 
HETATM   25  C   UNL     1      39.948 -14.390   3.918  1.00  0.00     0.046 A 
HETATM   26  C   UNL     1      40.289 -13.381   3.022  1.00  0.00     0.099 A 
HETATM   27  C   UNL     1      41.432 -12.613   3.225  1.00  0.00     0.098 A 
HETATM   28  C   UNL     1      42.254 -12.843   4.316  1.00  0.00     0.040 A 
HETATM   29  C   UNL     1      41.922 -13.856   5.218  1.00  0.00     0.010 A 
BRANCH  26  30
HETATM   30  O   UNL     1      39.525 -13.106   1.922  1.00  0.00    -0.358 OA
HETATM   31  H   UNL     1      38.814 -13.770   1.884  1.00  0.00     0.218 HD
ENDBRANCH  26  30
BRANCH  27  32
HETATM   32  O   UNL     1      41.751 -11.620   2.344  1.00  0.00    -0.358 OA
HETATM   33  H   UNL     1      41.876 -10.831   2.906  1.00  0.00     0.218 HD
ENDBRANCH  27  32
ENDBRANCH  23  24
ENDBRANCH  22  23
ENDBRANCH  19  22
ENDBRANCH   1  18
TORSDOF 10
ENDMDL
