MODEL 1
REMARK VINA RESULT:      -9.2      0.000      0.000
REMARK  5 active torsions:
REMARK  status: ('A' for Active; 'I' for Inactive)
REMARK    1  A    between atoms: C_4  and  C_5 
REMARK    2  A    between atoms: C_13  and  C_14 
REMARK       I    between atoms: C_14  and  N_15 
REMARK    3  A    between atoms: N_15  and  C_16 
REMARK    4  A    between atoms: C_17  and  N_18 
REMARK    5  A    between atoms: C_21  and  O_22 
ROOT
HETATM    1  C   UNL     1      42.556 -14.567   2.280  1.00  0.00     0.258 C 
HETATM    2  N   UNL     1      41.260 -14.660   1.833  1.00  0.00    -0.321 N 
HETATM    3  O   UNL     1      43.195 -13.542   2.491  1.00  0.00    -0.267 OA
HETATM    4  H   UNL     1      40.919 -15.517   1.407  1.00  0.00     0.169 HD
ENDROOT
BRANCH   2   5
HETATM    5  C   UNL     1      40.300 -13.618   1.864  1.00  0.00     0.056 A 
HETATM    6  C   UNL     1      39.733 -13.205   0.631  1.00  0.00     0.037 A 
HETATM    7  C   UNL     1      38.685 -12.268   0.673  1.00  0.00     0.026 A 
HETATM    8  C   UNL     1      38.226 -11.746   1.885  1.00  0.00     0.002 A 
HETATM    9  C   UNL     1      38.813 -12.139   3.082  1.00  0.00     0.002 A 
HETATM   10  C   UNL     1      39.849 -13.071   3.071  1.00  0.00     0.031 A 
BRANCH   6  11
HETATM   11  N   UNL     1      40.296 -13.684  -0.594  1.00  0.00    -0.281 NA
HETATM   12  C   UNL     1      41.177 -12.629  -1.154  1.00  0.00     0.098 C 
HETATM   13  C   UNL     1      41.953 -13.187  -2.348  1.00  0.00     0.046 C 
HETATM   14  C   UNL     1      41.015 -13.767  -3.403  1.00  0.00     0.120 C 
HETATM   15  C   UNL     1      40.042 -14.769  -2.785  1.00  0.00     0.046 C 
HETATM   16  C   UNL     1      39.312 -14.159  -1.590  1.00  0.00     0.098 C 
BRANCH  14  17
HETATM   17  O   UNL     1      40.275 -12.720  -4.031  1.00  0.00    -0.395 OA
HETATM   18  H   UNL     1      40.366 -11.923  -3.479  1.00  0.00     0.210 HD
ENDBRANCH  14  17
ENDBRANCH   6  11
ENDBRANCH   2   5
BRANCH   1  19
HETATM   19  C   UNL     1      43.217 -15.845   2.575  1.00  0.00     0.056 A 
HETATM   20  C   UNL     1      43.178 -16.432   3.834  1.00  0.00     0.047 A 
HETATM   21  C   UNL     1      42.645 -15.701   5.029  1.00  0.00     0.071 C 
HETATM   22  N   UNL     1      43.593 -17.713   4.042  1.00  0.00    -0.252 NA
HETATM   23  C   UNL     1      44.022 -18.455   2.982  1.00  0.00     0.067 A 
HETATM   24  C   UNL     1      44.111 -17.899   1.705  1.00  0.00     0.033 A 
HETATM   25  C   UNL     1      43.707 -16.582   1.501  1.00  0.00     0.021 A 
BRANCH  23  26
HETATM   26  C   UNL     1      44.290 -19.889   3.258  1.00  0.00    -0.007 A 
HETATM   27  C   UNL     1      44.634 -20.316   4.557  1.00  0.00     0.014 A 
HETATM   28  C   UNL     1      44.827 -21.668   4.862  1.00  0.00     0.001 A 
HETATM   29  C   UNL     1      44.685 -22.633   3.872  1.00  0.00     0.000 A 
HETATM   30  C   UNL     1      44.363 -22.243   2.576  1.00  0.00     0.001 A 
HETATM   31  C   UNL     1      44.173 -20.889   2.274  1.00  0.00     0.014 A 
ENDBRANCH  23  26
ENDBRANCH   1  19
TORSDOF 5
ENDMDL
MODEL 2
REMARK VINA RESULT:      -8.6      1.437      1.450
REMARK  5 active torsions:
REMARK  status: ('A' for Active; 'I' for Inactive)
REMARK    1  A    between atoms: C_4  and  C_5 
REMARK    2  A    between atoms: C_13  and  C_14 
REMARK       I    between atoms: C_14  and  N_15 
REMARK    3  A    between atoms: N_15  and  C_16 
REMARK    4  A    between atoms: C_17  and  N_18 
REMARK    5  A    between atoms: C_21  and  O_22 
ROOT
HETATM    1  C   UNL     1      41.387 -14.428   2.624  1.00  0.00     0.258 C 
HETATM    2  N   UNL     1      41.925 -13.332   1.993  1.00  0.00    -0.321 N 
HETATM    3  O   UNL     1      40.307 -14.494   3.202  1.00  0.00    -0.267 OA
HETATM    4  H   UNL     1      42.923 -13.277   1.811  1.00  0.00     0.169 HD
ENDROOT
BRANCH   2   5
HETATM    5  C   UNL     1      41.205 -12.182   1.582  1.00  0.00     0.056 A 
HETATM    6  C   UNL     1      40.737 -12.141   0.243  1.00  0.00     0.037 A 
HETATM    7  C   UNL     1      39.908 -11.067  -0.128  1.00  0.00     0.026 A 
HETATM    8  C   UNL     1      39.569 -10.062   0.783  1.00  0.00     0.002 A 
HETATM    9  C   UNL     1      40.062 -10.103   2.082  1.00  0.00     0.002 A 
HETATM   10  C   UNL     1      40.880 -11.159   2.479  1.00  0.00     0.031 A 
BRANCH   6  11
HETATM   11  N   UNL     1      41.186 -13.131  -0.688  1.00  0.00    -0.281 NA
HETATM   12  C   UNL     1      41.654 -12.445  -1.917  1.00  0.00     0.098 C 
HETATM   13  C   UNL     1      42.332 -13.457  -2.843  1.00  0.00     0.046 C 
HETATM   14  C   UNL     1      41.410 -14.632  -3.159  1.00  0.00     0.120 C 
HETATM   15  C   UNL     1      40.850 -15.253  -1.881  1.00  0.00     0.046 C 
HETATM   16  C   UNL     1      40.203 -14.192  -0.993  1.00  0.00     0.098 C 
BRANCH  14  17
HETATM   17  O   UNL     1      40.328 -14.198  -3.983  1.00  0.00    -0.395 OA
HETATM   18  H   UNL     1      39.574 -14.792  -3.818  1.00  0.00     0.210 HD
ENDBRANCH  14  17
ENDBRANCH   6  11
ENDBRANCH   2   5
BRANCH   1  19
HETATM   19  C   UNL     1      42.185 -15.658   2.547  1.00  0.00     0.056 A 
HETATM   20  C   UNL     1      42.987 -16.094   3.595  1.00  0.00     0.047 A 
HETATM   21  C   UNL     1      43.262 -15.231   4.790  1.00  0.00     0.071 C 
HETATM   22  N   UNL     1      43.539 -17.339   3.606  1.00  0.00    -0.252 NA
HETATM   23  C   UNL     1      43.269 -18.197   2.582  1.00  0.00     0.067 A 
HETATM   24  C   UNL     1      42.497 -17.795   1.492  1.00  0.00     0.033 A 
HETATM   25  C   UNL     1      41.952 -16.512   1.473  1.00  0.00     0.021 A 
BRANCH  23  26
HETATM   26  C   UNL     1      43.762 -19.588   2.751  1.00  0.00    -0.007 A 
HETATM   27  C   UNL     1      44.443 -19.968   3.925  1.00  0.00     0.014 A 
HETATM   28  C   UNL     1      44.861 -21.286   4.143  1.00  0.00     0.001 A 
HETATM   29  C   UNL     1      44.612 -22.262   3.185  1.00  0.00     0.000 A 
HETATM   30  C   UNL     1      43.957 -21.917   2.008  1.00  0.00     0.001 A 
HETATM   31  C   UNL     1      43.543 -20.596   1.793  1.00  0.00     0.014 A 
ENDBRANCH  23  26
ENDBRANCH   1  19
TORSDOF 5
ENDMDL
MODEL 3
REMARK VINA RESULT:      -8.6      1.552      1.902
REMARK  5 active torsions:
REMARK  status: ('A' for Active; 'I' for Inactive)
REMARK    1  A    between atoms: C_4  and  C_5 
REMARK    2  A    between atoms: C_13  and  C_14 
REMARK       I    between atoms: C_14  and  N_15 
REMARK    3  A    between atoms: N_15  and  C_16 
REMARK    4  A    between atoms: C_17  and  N_18 
REMARK    5  A    between atoms: C_21  and  O_22 
ROOT
HETATM    1  C   UNL     1      41.493 -14.735   2.010  1.00  0.00     0.258 C 
HETATM    2  N   UNL     1      40.668 -14.869   0.920  1.00  0.00    -0.321 N 
HETATM    3  O   UNL     1      41.600 -13.757   2.743  1.00  0.00    -0.267 OA
HETATM    4  H   UNL     1      40.856 -15.572   0.211  1.00  0.00     0.169 HD
ENDROOT
BRANCH   2   5
HETATM    5  C   UNL     1      39.539 -14.059   0.636  1.00  0.00     0.056 A 
HETATM    6  C   UNL     1      39.714 -12.977  -0.265  1.00  0.00     0.037 A 
HETATM    7  C   UNL     1      38.569 -12.257  -0.653  1.00  0.00     0.026 A 
HETATM    8  C   UNL     1      37.303 -12.583  -0.158  1.00  0.00     0.002 A 
HETATM    9  C   UNL     1      37.156 -13.628   0.747  1.00  0.00     0.002 A 
HETATM   10  C   UNL     1      38.272 -14.362   1.144  1.00  0.00     0.031 A 
BRANCH   6  11
HETATM   11  N   UNL     1      41.035 -12.609  -0.671  1.00  0.00    -0.281 NA
HETATM   12  C   UNL     1      41.323 -11.244  -0.165  1.00  0.00     0.098 C 
HETATM   13  C   UNL     1      42.796 -10.908  -0.402  1.00  0.00     0.046 C 
HETATM   14  C   UNL     1      43.176 -11.063  -1.872  1.00  0.00     0.120 C 
HETATM   15  C   UNL     1      42.770 -12.436  -2.404  1.00  0.00     0.046 C 
HETATM   16  C   UNL     1      41.295 -12.719  -2.123  1.00  0.00     0.098 C 
BRANCH  14  17
HETATM   17  O   UNL     1      42.541 -10.050  -2.652  1.00  0.00    -0.395 OA
HETATM   18  H   UNL     1      41.688  -9.845  -2.231  1.00  0.00     0.210 HD
ENDBRANCH  14  17
ENDBRANCH   6  11
ENDBRANCH   2   5
BRANCH   1  19
HETATM   19  C   UNL     1      42.293 -15.919   2.348  1.00  0.00     0.056 A 
HETATM   20  C   UNL     1      42.059 -16.678   3.488  1.00  0.00     0.047 A 
HETATM   21  C   UNL     1      41.119 -16.219   4.562  1.00  0.00     0.071 C 
HETATM   22  N   UNL     1      42.647 -17.892   3.676  1.00  0.00    -0.252 NA
HETATM   23  C   UNL     1      43.457 -18.398   2.703  1.00  0.00     0.067 A 
HETATM   24  C   UNL     1      43.749 -17.660   1.556  1.00  0.00     0.033 A 
HETATM   25  C   UNL     1      43.163 -16.408   1.378  1.00  0.00     0.021 A 
BRANCH  23  26
HETATM   26  C   UNL     1      43.918 -19.796   2.902  1.00  0.00    -0.007 A 
HETATM   27  C   UNL     1      44.492 -20.193   4.127  1.00  0.00     0.014 A 
HETATM   28  C   UNL     1      44.875 -21.517   4.368  1.00  0.00     0.001 A 
HETATM   29  C   UNL     1      44.697 -22.483   3.384  1.00  0.00     0.000 A 
HETATM   30  C   UNL     1      44.149 -22.121   2.158  1.00  0.00     0.001 A 
HETATM   31  C   UNL     1      43.770 -20.793   1.920  1.00  0.00     0.014 A 
ENDBRANCH  23  26
ENDBRANCH   1  19
TORSDOF 5
ENDMDL
MODEL 4
REMARK VINA RESULT:      -8.4      2.181      2.954
REMARK  5 active torsions:
REMARK  status: ('A' for Active; 'I' for Inactive)
REMARK    1  A    between atoms: C_4  and  C_5 
REMARK    2  A    between atoms: C_13  and  C_14 
REMARK       I    between atoms: C_14  and  N_15 
REMARK    3  A    between atoms: N_15  and  C_16 
REMARK    4  A    between atoms: C_17  and  N_18 
REMARK    5  A    between atoms: C_21  and  O_22 
ROOT
HETATM    1  C   UNL     1      41.851 -14.978   5.375  1.00  0.00     0.258 C 
HETATM    2  N   UNL     1      42.228 -13.750   4.888  1.00  0.00    -0.321 N 
HETATM    3  O   UNL     1      40.970 -15.211   6.196  1.00  0.00    -0.267 OA
HETATM    4  H   UNL     1      43.139 -13.620   4.457  1.00  0.00     0.169 HD
ENDROOT
BRANCH   2   5
HETATM    5  C   UNL     1      41.458 -12.562   4.963  1.00  0.00     0.056 A 
HETATM    6  C   UNL     1      40.517 -12.321   3.929  1.00  0.00     0.037 A 
HETATM    7  C   UNL     1      39.658 -11.215   4.070  1.00  0.00     0.026 A 
HETATM    8  C   UNL     1      39.737 -10.371   5.181  1.00  0.00     0.002 A 
HETATM    9  C   UNL     1      40.686 -10.607   6.170  1.00  0.00     0.002 A 
HETATM   10  C   UNL     1      41.545 -11.697   6.059  1.00  0.00     0.031 A 
BRANCH   6  11
HETATM   11  N   UNL     1      40.533 -13.145   2.759  1.00  0.00    -0.281 NA
HETATM   12  C   UNL     1      40.612 -12.269   1.564  1.00  0.00     0.098 C 
HETATM   13  C   UNL     1      40.842 -13.122   0.316  1.00  0.00     0.046 C 
HETATM   14  C   UNL     1      39.768 -14.196   0.166  1.00  0.00     0.120 C 
HETATM   15  C   UNL     1      39.625 -15.015   1.448  1.00  0.00     0.046 C 
HETATM   16  C   UNL     1      39.415 -14.107   2.658  1.00  0.00     0.098 C 
BRANCH  14  17
HETATM   17  O   UNL     1      38.512 -13.594  -0.148  1.00  0.00    -0.395 OA
HETATM   18  H   UNL     1      38.659 -12.974  -0.884  1.00  0.00     0.210 HD
ENDBRANCH  14  17
ENDBRANCH   6  11
ENDBRANCH   2   5
BRANCH   1  19
HETATM   19  C   UNL     1      42.561 -16.130   4.805  1.00  0.00     0.056 A 
HETATM   20  C   UNL     1      43.588 -16.781   5.476  1.00  0.00     0.047 A 
HETATM   21  C   UNL     1      44.189 -16.222   6.731  1.00  0.00     0.071 C 
HETATM   22  N   UNL     1      44.082 -17.976   5.048  1.00  0.00    -0.252 NA
HETATM   23  C   UNL     1      43.531 -18.572   3.953  1.00  0.00     0.067 A 
HETATM   24  C   UNL     1      42.520 -17.942   3.226  1.00  0.00     0.033 A 
HETATM   25  C   UNL     1      42.032 -16.709   3.654  1.00  0.00     0.021 A 
BRANCH  23  26
HETATM   26  C   UNL     1      44.003 -19.948   3.653  1.00  0.00    -0.007 A 
HETATM   27  C   UNL     1      44.522 -20.765   4.677  1.00  0.00     0.014 A 
HETATM   28  C   UNL     1      44.913 -22.087   4.439  1.00  0.00     0.001 A 
HETATM   29  C   UNL     1      44.799 -22.628   3.164  1.00  0.00     0.000 A 
HETATM   30  C   UNL     1      44.305 -21.843   2.127  1.00  0.00     0.001 A 
HETATM   31  C   UNL     1      43.918 -20.519   2.369  1.00  0.00     0.014 A 
ENDBRANCH  23  26
ENDBRANCH   1  19
TORSDOF 5
ENDMDL
MODEL 5
REMARK VINA RESULT:      -8.3      2.443      4.622
REMARK  5 active torsions:
REMARK  status: ('A' for Active; 'I' for Inactive)
REMARK    1  A    between atoms: C_4  and  C_5 
REMARK    2  A    between atoms: C_13  and  C_14 
REMARK       I    between atoms: C_14  and  N_15 
REMARK    3  A    between atoms: N_15  and  C_16 
REMARK    4  A    between atoms: C_17  and  N_18 
REMARK    5  A    between atoms: C_21  and  O_22 
ROOT
HETATM    1  C   UNL     1      41.342 -14.787   2.350  1.00  0.00     0.258 C 
HETATM    2  N   UNL     1      41.988 -13.576   2.414  1.00  0.00    -0.321 N 
HETATM    3  O   UNL     1      40.154 -14.982   2.116  1.00  0.00    -0.267 OA
HETATM    4  H   UNL     1      42.877 -13.487   2.898  1.00  0.00     0.169 HD
ENDROOT
BRANCH   2   5
HETATM    5  C   UNL     1      41.503 -12.354   1.883  1.00  0.00     0.056 A 
HETATM    6  C   UNL     1      40.993 -11.395   2.795  1.00  0.00     0.037 A 
HETATM    7  C   UNL     1      40.638 -10.132   2.287  1.00  0.00     0.026 A 
HETATM    8  C   UNL     1      40.766  -9.834   0.927  1.00  0.00     0.002 A 
HETATM    9  C   UNL     1      41.240 -10.797   0.043  1.00  0.00     0.002 A 
HETATM   10  C   UNL     1      41.605 -12.054   0.520  1.00  0.00     0.031 A 
BRANCH   6  11
HETATM   11  N   UNL     1      40.780 -11.768   4.160  1.00  0.00    -0.281 NA
HETATM   12  C   UNL     1      39.328 -11.988   4.370  1.00  0.00     0.098 C 
HETATM   13  C   UNL     1      39.095 -12.589   5.756  1.00  0.00     0.046 C 
HETATM   14  C   UNL     1      39.705 -11.720   6.853  1.00  0.00     0.120 C 
HETATM   15  C   UNL     1      41.172 -11.413   6.560  1.00  0.00     0.046 C 
HETATM   16  C   UNL     1      41.341 -10.832   5.158  1.00  0.00     0.098 C 
BRANCH  14  17
HETATM   17  O   UNL     1      38.982 -10.494   6.967  1.00  0.00    -0.395 OA
HETATM   18  H   UNL     1      38.032 -10.709   6.947  1.00  0.00     0.210 HD
ENDBRANCH  14  17
ENDBRANCH   6  11
ENDBRANCH   2   5
BRANCH   1  19
HETATM   19  C   UNL     1      42.193 -15.969   2.541  1.00  0.00     0.056 A 
HETATM   20  C   UNL     1      42.220 -16.684   3.731  1.00  0.00     0.047 A 
HETATM   21  C   UNL     1      41.551 -16.176   4.973  1.00  0.00     0.071 C 
HETATM   22  N   UNL     1      42.830 -17.899   3.825  1.00  0.00    -0.252 NA
HETATM   23  C   UNL     1      43.396 -18.449   2.714  1.00  0.00     0.067 A 
HETATM   24  C   UNL     1      43.422 -17.755   1.504  1.00  0.00     0.033 A 
HETATM   25  C   UNL     1      42.817 -16.503   1.417  1.00  0.00     0.021 A 
BRANCH  23  26
HETATM   26  C   UNL     1      43.884 -19.844   2.855  1.00  0.00    -0.007 A 
HETATM   27  C   UNL     1      44.463 -20.282   4.062  1.00  0.00     0.014 A 
HETATM   28  C   UNL     1      44.872 -21.607   4.248  1.00  0.00     0.001 A 
HETATM   29  C   UNL     1      44.714 -22.534   3.224  1.00  0.00     0.000 A 
HETATM   30  C   UNL     1      44.161 -22.131   2.013  1.00  0.00     0.001 A 
HETATM   31  C   UNL     1      43.756 -20.802   1.830  1.00  0.00     0.014 A 
ENDBRANCH  23  26
ENDBRANCH   1  19
TORSDOF 5
ENDMDL
MODEL 6
REMARK VINA RESULT:      -8.3      2.206      4.270
REMARK  5 active torsions:
REMARK  status: ('A' for Active; 'I' for Inactive)
REMARK    1  A    between atoms: C_4  and  C_5 
REMARK    2  A    between atoms: C_13  and  C_14 
REMARK       I    between atoms: C_14  and  N_15 
REMARK    3  A    between atoms: N_15  and  C_16 
REMARK    4  A    between atoms: C_17  and  N_18 
REMARK    5  A    between atoms: C_21  and  O_22 
ROOT
HETATM    1  C   UNL     1      40.722 -15.130   0.812  1.00  0.00     0.258 C 
HETATM    2  N   UNL     1      39.561 -14.988   1.533  1.00  0.00    -0.321 N 
HETATM    3  O   UNL     1      41.079 -14.465  -0.155  1.00  0.00    -0.267 OA
HETATM    4  H   UNL     1      39.212 -15.750   2.108  1.00  0.00     0.169 HD
ENDROOT
BRANCH   2   5
HETATM    5  C   UNL     1      38.725 -13.844   1.533  1.00  0.00     0.056 A 
HETATM    6  C   UNL     1      39.060 -12.782   2.411  1.00  0.00     0.037 A 
HETATM    7  C   UNL     1      38.314 -11.593   2.316  1.00  0.00     0.026 A 
HETATM    8  C   UNL     1      37.266 -11.464   1.399  1.00  0.00     0.002 A 
HETATM    9  C   UNL     1      36.933 -12.527   0.567  1.00  0.00     0.002 A 
HETATM   10  C   UNL     1      37.659 -13.713   0.636  1.00  0.00     0.031 A 
BRANCH   6  11
HETATM   11  N   UNL     1      40.070 -12.985   3.404  1.00  0.00    -0.281 NA
HETATM   12  C   UNL     1      39.531 -13.890   4.449  1.00  0.00     0.098 C 
HETATM   13  C   UNL     1      40.652 -14.291   5.409  1.00  0.00     0.046 C 
HETATM   14  C   UNL     1      41.338 -13.068   6.012  1.00  0.00     0.120 C 
HETATM   15  C   UNL     1      41.786 -12.096   4.923  1.00  0.00     0.046 C 
HETATM   16  C   UNL     1      40.629 -11.747   3.989  1.00  0.00     0.098 C 
BRANCH  14  17
HETATM   17  O   UNL     1      40.449 -12.397   6.904  1.00  0.00    -0.395 OA
HETATM   18  H   UNL     1      39.635 -12.192   6.411  1.00  0.00     0.210 HD
ENDBRANCH  14  17
ENDBRANCH   6  11
ENDBRANCH   2   5
BRANCH   1  19
HETATM   19  C   UNL     1      41.645 -16.165   1.294  1.00  0.00     0.056 A 
HETATM   20  C   UNL     1      42.664 -15.894   2.199  1.00  0.00     0.047 A 
HETATM   21  C   UNL     1      43.029 -14.491   2.580  1.00  0.00     0.071 C 
HETATM   22  N   UNL     1      43.364 -16.890   2.812  1.00  0.00    -0.252 NA
HETATM   23  C   UNL     1      43.033 -18.188   2.562  1.00  0.00     0.067 A 
HETATM   24  C   UNL     1      42.040 -18.511   1.636  1.00  0.00     0.033 A 
HETATM   25  C   UNL     1      41.342 -17.491   0.995  1.00  0.00     0.021 A 
BRANCH  23  26
HETATM   26  C   UNL     1      43.720 -19.207   3.396  1.00  0.00    -0.007 A 
HETATM   27  C   UNL     1      43.862 -19.017   4.785  1.00  0.00     0.014 A 
HETATM   28  C   UNL     1      44.445 -19.988   5.608  1.00  0.00     0.001 A 
HETATM   29  C   UNL     1      44.908 -21.178   5.058  1.00  0.00     0.000 A 
HETATM   30  C   UNL     1      44.799 -21.389   3.688  1.00  0.00     0.001 A 
HETATM   31  C   UNL     1      44.218 -20.414   2.868  1.00  0.00     0.014 A 
ENDBRANCH  23  26
ENDBRANCH   1  19
TORSDOF 5
ENDMDL
MODEL 7
REMARK VINA RESULT:      -8.1      1.610      2.158
REMARK  5 active torsions:
REMARK  status: ('A' for Active; 'I' for Inactive)
REMARK    1  A    between atoms: C_4  and  C_5 
REMARK    2  A    between atoms: C_13  and  C_14 
REMARK       I    between atoms: C_14  and  N_15 
REMARK    3  A    between atoms: N_15  and  C_16 
REMARK    4  A    between atoms: C_17  and  N_18 
REMARK    5  A    between atoms: C_21  and  O_22 
ROOT
HETATM    1  C   UNL     1      42.566 -14.217   2.906  1.00  0.00     0.258 C 
HETATM    2  N   UNL     1      41.289 -13.711   2.890  1.00  0.00    -0.321 N 
HETATM    3  O   UNL     1      43.615 -13.582   2.880  1.00  0.00    -0.267 OA
HETATM    4  H   UNL     1      40.504 -14.294   2.614  1.00  0.00     0.169 HD
ENDROOT
BRANCH   2   5
HETATM    5  C   UNL     1      40.927 -12.374   3.193  1.00  0.00     0.056 A 
HETATM    6  C   UNL     1      40.605 -11.516   2.110  1.00  0.00     0.037 A 
HETATM    7  C   UNL     1      40.116 -10.233   2.414  1.00  0.00     0.026 A 
HETATM    8  C   UNL     1      39.968  -9.807   3.737  1.00  0.00     0.002 A 
HETATM    9  C   UNL     1      40.317 -10.651   4.785  1.00  0.00     0.002 A 
HETATM   10  C   UNL     1      40.797 -11.930   4.513  1.00  0.00     0.031 A 
BRANCH   6  11
HETATM   11  N   UNL     1      40.866 -11.948   0.771  1.00  0.00    -0.281 NA
HETATM   12  C   UNL     1      42.133 -11.328   0.312  1.00  0.00     0.098 C 
HETATM   13  C   UNL     1      42.545 -11.934  -1.031  1.00  0.00     0.046 C 
HETATM   14  C   UNL     1      41.435 -11.799  -2.069  1.00  0.00     0.120 C 
HETATM   15  C   UNL     1      40.111 -12.342  -1.535  1.00  0.00     0.046 C 
HETATM   16  C   UNL     1      39.764 -11.713  -0.187  1.00  0.00     0.098 C 
BRANCH  14  17
HETATM   17  O   UNL     1      41.267 -10.429  -2.434  1.00  0.00    -0.395 OA
HETATM   18  H   UNL     1      42.139 -10.000  -2.376  1.00  0.00     0.210 HD
ENDBRANCH  14  17
ENDBRANCH   6  11
ENDBRANCH   2   5
BRANCH   1  19
HETATM   19  C   UNL     1      42.667 -15.678   3.013  1.00  0.00     0.056 A 
HETATM   20  C   UNL     1      42.480 -16.520   1.925  1.00  0.00     0.047 A 
HETATM   21  C   UNL     1      41.950 -16.014   0.616  1.00  0.00     0.071 C 
HETATM   22  N   UNL     1      42.798 -17.844   1.978  1.00  0.00    -0.252 NA
HETATM   23  C   UNL     1      43.350 -18.352   3.116  1.00  0.00     0.067 A 
HETATM   24  C   UNL     1      43.527 -17.553   4.247  1.00  0.00     0.033 A 
HETATM   25  C   UNL     1      43.180 -16.205   4.195  1.00  0.00     0.021 A 
BRANCH  23  26
HETATM   26  C   UNL     1      43.828 -19.756   3.038  1.00  0.00    -0.007 A 
HETATM   27  C   UNL     1      44.476 -20.354   4.137  1.00  0.00     0.014 A 
HETATM   28  C   UNL     1      44.878 -21.694   4.117  1.00  0.00     0.001 A 
HETATM   29  C   UNL     1      44.646 -22.474   2.990  1.00  0.00     0.000 A 
HETATM   30  C   UNL     1      44.024 -21.909   1.881  1.00  0.00     0.001 A 
HETATM   31  C   UNL     1      43.626 -20.566   1.904  1.00  0.00     0.014 A 
ENDBRANCH  23  26
ENDBRANCH   1  19
TORSDOF 5
ENDMDL
MODEL 8
REMARK VINA RESULT:      -7.9      1.790      2.484
REMARK  5 active torsions:
REMARK  status: ('A' for Active; 'I' for Inactive)
REMARK    1  A    between atoms: C_4  and  C_5 
REMARK    2  A    between atoms: C_13  and  C_14 
REMARK       I    between atoms: C_14  and  N_15 
REMARK    3  A    between atoms: N_15  and  C_16 
REMARK    4  A    between atoms: C_17  and  N_18 
REMARK    5  A    between atoms: C_21  and  O_22 
ROOT
HETATM    1  C   UNL     1      40.939 -13.340   3.042  1.00  0.00     0.258 C 
HETATM    2  N   UNL     1      41.481 -12.706   1.950  1.00  0.00    -0.321 N 
HETATM    3  O   UNL     1      40.086 -12.902   3.806  1.00  0.00    -0.267 OA
HETATM    4  H   UNL     1      42.371 -13.008   1.564  1.00  0.00     0.169 HD
ENDROOT
BRANCH   2   5
HETATM    5  C   UNL     1      40.921 -11.585   1.287  1.00  0.00     0.056 A 
HETATM    6  C   UNL     1      40.635 -11.713  -0.097  1.00  0.00     0.037 A 
HETATM    7  C   UNL     1      39.956 -10.653  -0.725  1.00  0.00     0.026 A 
HETATM    8  C   UNL     1      39.590  -9.504  -0.018  1.00  0.00     0.002 A 
HETATM    9  C   UNL     1      39.906  -9.384   1.330  1.00  0.00     0.002 A 
HETATM   10  C   UNL     1      40.572 -10.421   1.980  1.00  0.00     0.031 A 
BRANCH   6  11
HETATM   11  N   UNL     1      41.114 -12.857  -0.810  1.00  0.00    -0.281 NA
HETATM   12  C   UNL     1      41.684 -12.404  -2.103  1.00  0.00     0.098 C 
HETATM   13  C   UNL     1      42.390 -13.574  -2.790  1.00  0.00     0.046 C 
HETATM   14  C   UNL     1      41.455 -14.767  -2.966  1.00  0.00     0.120 C 
HETATM   15  C   UNL     1      40.792 -15.146  -1.643  1.00  0.00     0.046 C 
HETATM   16  C   UNL     1      40.120 -13.936  -0.999  1.00  0.00     0.098 C 
BRANCH  14  17
HETATM   17  O   UNL     1      40.444 -14.461  -3.927  1.00  0.00    -0.395 OA
HETATM   18  H   UNL     1      39.637 -14.942  -3.670  1.00  0.00     0.210 HD
ENDBRANCH  14  17
ENDBRANCH   6  11
ENDBRANCH   2   5
BRANCH   1  19
HETATM   19  C   UNL     1      41.413 -14.710   3.278  1.00  0.00     0.056 A 
HETATM   20  C   UNL     1      40.792 -15.821   2.722  1.00  0.00     0.047 A 
HETATM   21  C   UNL     1      39.471 -15.718   2.020  1.00  0.00     0.071 C 
HETATM   22  N   UNL     1      41.365 -17.057   2.756  1.00  0.00    -0.252 NA
HETATM   23  C   UNL     1      42.598 -17.204   3.317  1.00  0.00     0.067 A 
HETATM   24  C   UNL     1      43.247 -16.125   3.918  1.00  0.00     0.033 A 
HETATM   25  C   UNL     1      42.648 -14.868   3.901  1.00  0.00     0.021 A 
BRANCH  23  26
HETATM   26  C   UNL     1      43.229 -18.540   3.160  1.00  0.00    -0.007 A 
HETATM   27  C   UNL     1      42.954 -19.333   2.028  1.00  0.00     0.014 A 
HETATM   28  C   UNL     1      43.582 -20.566   1.820  1.00  0.00     0.001 A 
HETATM   29  C   UNL     1      44.504 -21.042   2.745  1.00  0.00     0.000 A 
HETATM   30  C   UNL     1      44.786 -20.291   3.882  1.00  0.00     0.001 A 
HETATM   31  C   UNL     1      44.152 -19.060   4.088  1.00  0.00     0.014 A 
ENDBRANCH  23  26
ENDBRANCH   1  19
TORSDOF 5
ENDMDL
MODEL 9
REMARK VINA RESULT:      -7.8      2.354      3.705
REMARK  5 active torsions:
REMARK  status: ('A' for Active; 'I' for Inactive)
REMARK    1  A    between atoms: C_4  and  C_5 
REMARK    2  A    between atoms: C_13  and  C_14 
REMARK       I    between atoms: C_14  and  N_15 
REMARK    3  A    between atoms: N_15  and  C_16 
REMARK    4  A    between atoms: C_17  and  N_18 
REMARK    5  A    between atoms: C_21  and  O_22 
ROOT
HETATM    1  C   UNL     1      40.559 -14.672   0.516  1.00  0.00     0.258 C 
HETATM    2  N   UNL     1      40.889 -14.103  -0.690  1.00  0.00    -0.321 N 
HETATM    3  O   UNL     1      39.546 -14.473   1.177  1.00  0.00    -0.267 OA
HETATM    4  H   UNL     1      41.853 -14.090  -1.011  1.00  0.00     0.169 HD
ENDROOT
BRANCH   2   5
HETATM    5  C   UNL     1      39.986 -13.457  -1.571  1.00  0.00     0.056 A 
HETATM    6  C   UNL     1      40.262 -12.113  -1.930  1.00  0.00     0.037 A 
HETATM    7  C   UNL     1      39.446 -11.515  -2.908  1.00  0.00     0.026 A 
HETATM    8  C   UNL     1      38.386 -12.213  -3.495  1.00  0.00     0.002 A 
HETATM    9  C   UNL     1      38.112 -13.519  -3.108  1.00  0.00     0.002 A 
HETATM   10  C   UNL     1      38.908 -14.138  -2.147  1.00  0.00     0.031 A 
BRANCH   6  11
HETATM   11  N   UNL     1      41.289 -11.398  -1.236  1.00  0.00    -0.281 NA
HETATM   12  C   UNL     1      40.675 -10.238  -0.545  1.00  0.00     0.098 C 
HETATM   13  C   UNL     1      41.707  -9.580   0.371  1.00  0.00     0.046 C 
HETATM   14  C   UNL     1      42.966  -9.186  -0.395  1.00  0.00     0.120 C 
HETATM   15  C   UNL     1      43.520 -10.367  -1.189  1.00  0.00     0.046 C 
HETATM   16  C   UNL     1      42.440 -10.991  -2.071  1.00  0.00     0.098 C 
BRANCH  14  17
HETATM   17  O   UNL     1      42.679  -8.112  -1.291  1.00  0.00    -0.395 OA
HETATM   18  H   UNL     1      43.069  -7.302  -0.915  1.00  0.00     0.210 HD
ENDBRANCH  14  17
ENDBRANCH   6  11
ENDBRANCH   2   5
BRANCH   1  19
HETATM   19  C   UNL     1      41.517 -15.659   1.034  1.00  0.00     0.056 A 
HETATM   20  C   UNL     1      42.449 -15.350   2.016  1.00  0.00     0.047 A 
HETATM   21  C   UNL     1      42.689 -13.938   2.461  1.00  0.00     0.071 C 
HETATM   22  N   UNL     1      43.172 -16.316   2.648  1.00  0.00    -0.252 NA
HETATM   23  C   UNL     1      42.950 -17.625   2.340  1.00  0.00     0.067 A 
HETATM   24  C   UNL     1      42.048 -17.983   1.337  1.00  0.00     0.033 A 
HETATM   25  C   UNL     1      41.326 -16.991   0.677  1.00  0.00     0.021 A 
BRANCH  23  26
HETATM   26  C   UNL     1      43.647 -18.622   3.192  1.00  0.00    -0.007 A 
HETATM   27  C   UNL     1      43.999 -19.885   2.674  1.00  0.00     0.014 A 
HETATM   28  C   UNL     1      44.714 -20.820   3.431  1.00  0.00     0.001 A 
HETATM   29  C   UNL     1      45.094 -20.517   4.733  1.00  0.00     0.000 A 
HETATM   30  C   UNL     1      44.747 -19.286   5.280  1.00  0.00     0.001 A 
HETATM   31  C   UNL     1      44.028 -18.354   4.520  1.00  0.00     0.014 A 
ENDBRANCH  23  26
ENDBRANCH   1  19
TORSDOF 5
ENDMDL
MODEL 10
REMARK VINA RESULT:      -7.8      4.430      6.615
REMARK  5 active torsions:
REMARK  status: ('A' for Active; 'I' for Inactive)
REMARK    1  A    between atoms: C_4  and  C_5 
REMARK    2  A    between atoms: C_13  and  C_14 
REMARK       I    between atoms: C_14  and  N_15 
REMARK    3  A    between atoms: N_15  and  C_16 
REMARK    4  A    between atoms: C_17  and  N_18 
REMARK    5  A    between atoms: C_21  and  O_22 
ROOT
HETATM    1  C   UNL     1      41.666 -15.121   5.934  1.00  0.00     0.258 C 
HETATM    2  N   UNL     1      42.260 -13.882   5.886  1.00  0.00    -0.321 N 
HETATM    3  O   UNL     1      40.522 -15.381   6.289  1.00  0.00    -0.267 OA
HETATM    4  H   UNL     1      43.272 -13.793   5.872  1.00  0.00     0.169 HD
ENDROOT
BRANCH   2   5
HETATM    5  C   UNL     1      41.576 -12.641   5.897  1.00  0.00     0.056 A 
HETATM    6  C   UNL     1      42.001 -11.662   6.833  1.00  0.00     0.037 A 
HETATM    7  C   UNL     1      41.418 -10.384   6.754  1.00  0.00     0.026 A 
HETATM    8  C   UNL     1      40.440 -10.090   5.799  1.00  0.00     0.002 A 
HETATM    9  C   UNL     1      40.016 -11.070   4.910  1.00  0.00     0.002 A 
HETATM   10  C   UNL     1      40.581 -12.342   4.961  1.00  0.00     0.031 A 
BRANCH   6  11
HETATM   11  N   UNL     1      42.928 -12.029   7.859  1.00  0.00    -0.281 NA
HETATM   12  C   UNL     1      42.982 -10.936   8.860  1.00  0.00     0.098 C 
HETATM   13  C   UNL     1      43.800 -11.388  10.071  1.00  0.00     0.046 C 
HETATM   14  C   UNL     1      45.194 -11.856   9.661  1.00  0.00     0.120 C 
HETATM   15  C   UNL     1      45.119 -12.901   8.550  1.00  0.00     0.046 C 
HETATM   16  C   UNL     1      44.277 -12.398   7.379  1.00  0.00     0.098 C 
BRANCH  14  17
HETATM   17  O   UNL     1      45.972 -10.746   9.211  1.00  0.00    -0.395 OA
HETATM   18  H   UNL     1      46.719 -10.642   9.825  1.00  0.00     0.210 HD
ENDBRANCH  14  17
ENDBRANCH   6  11
ENDBRANCH   2   5
BRANCH   1  19
HETATM   19  C   UNL     1      42.494 -16.238   5.460  1.00  0.00     0.056 A 
HETATM   20  C   UNL     1      43.065 -17.163   6.324  1.00  0.00     0.047 A 
HETATM   21  C   UNL     1      43.058 -16.964   7.811  1.00  0.00     0.071 C 
HETATM   22  N   UNL     1      43.634 -18.315   5.870  1.00  0.00    -0.252 NA
HETATM   23  C   UNL     1      43.610 -18.589   4.535  1.00  0.00     0.067 A 
HETATM   24  C   UNL     1      43.077 -17.676   3.624  1.00  0.00     0.033 A 
HETATM   25  C   UNL     1      42.517 -16.489   4.091  1.00  0.00     0.021 A 
BRANCH  23  26
HETATM   26  C   UNL     1      44.090 -19.937   4.139  1.00  0.00    -0.007 A 
HETATM   27  C   UNL     1      44.564 -20.842   5.110  1.00  0.00     0.014 A 
HETATM   28  C   UNL     1      44.961 -22.142   4.777  1.00  0.00     0.001 A 
HETATM   29  C   UNL     1      44.899 -22.571   3.456  1.00  0.00     0.000 A 
HETATM   30  C   UNL     1      44.452 -21.697   2.471  1.00  0.00     0.001 A 
HETATM   31  C   UNL     1      44.058 -20.396   2.808  1.00  0.00     0.014 A 
ENDBRANCH  23  26
ENDBRANCH   1  19
TORSDOF 5
ENDMDL
