MODEL 1
REMARK VINA RESULT:      -8.7      0.000      0.000
REMARK  11 active torsions:
REMARK  status: ('A' for Active; 'I' for Inactive)
REMARK    1  A    between atoms: C_6  and  C_7 
REMARK    2  A    between atoms: C_7  and  C_8 
REMARK       I    between atoms: C_8  and  N_9 
REMARK    3  A    between atoms: N_9  and  C_10 
REMARK    4  A    between atoms: C_10  and  C_11 
REMARK    5  A    between atoms: C_11  and  N_12 
REMARK    6  A    between atoms: C_17  and  C_18 
REMARK    7  A    between atoms: C_21  and  C_22 
REMARK    8  A    between atoms: C_29  and  C_30 
REMARK    9  A    between atoms: C_30  and  O_31 
REMARK   10  A    between atoms: O_31  and  C_32 
REMARK   11  A    between atoms: C_32  and  C_33 
ROOT
HETATM    1  C   UNL     1      41.604 -11.486   4.559  1.00  0.00     0.071 C 
HETATM    2  C   UNL     1      41.314 -12.386   3.376  1.00  0.00     0.048 C 
HETATM    3  N   UNL     1      40.585 -11.767   2.382  1.00  0.00    -0.229 NA
HETATM    4  C   UNL     1      40.620 -12.289   1.205  1.00  0.00     0.170 C 
HETATM    5  N   UNL     1      41.170 -13.726   0.863  1.00  0.00    -0.319 N 
HETATM    6  C   UNL     1      41.152 -13.912  -0.422  1.00  0.00     0.011 C 
HETATM    7  C   UNL     1      41.323 -14.517   2.113  1.00  0.00     0.166 C 
HETATM    8  S   UNL     1      40.049 -11.464  -0.205  1.00  0.00    -0.086 SA
HETATM    9  C   UNL     1      40.900 -12.668  -1.254  1.00  0.00     0.135 C 
HETATM   10  C   UNL     1      41.812 -13.633   3.216  1.00  0.00     0.069 C 
ENDROOT
BRANCH   6  11
HETATM   11  C   UNL     1      41.336 -15.241  -1.095  1.00  0.00     0.156 C 
BRANCH  11  12
HETATM   12  C   UNL     1      40.823 -15.333  -2.518  1.00  0.00     0.223 C 
HETATM   13  N   UNL     1      39.452 -15.279  -2.612  1.00  0.00    -0.359 N 
HETATM   14  H   UNL     1      38.927 -15.330  -1.742  1.00  0.00     0.162 HD
HETATM   15  O   UNL     1      41.563 -15.438  -3.491  1.00  0.00    -0.273 OA
BRANCH  13  16
HETATM   16  C   UNL     1      38.663 -15.573  -3.809  1.00  0.00     0.150 C 
BRANCH  16  17
HETATM   17  C   UNL     1      37.156 -15.242  -3.757  1.00  0.00     0.253 C 
BRANCH  17  18
HETATM   18  N   UNL     1      36.782 -14.051  -4.618  1.00  0.00    -0.077 N 
HETATM   19  H   UNL     1      37.402 -14.087  -5.452  1.00  0.00     0.279 HD
HETATM   20  C   UNL     1      35.359 -14.073  -5.103  1.00  0.00     0.269 C 
HETATM   21  C   UNL     1      37.078 -12.751  -3.917  1.00  0.00     0.269 C 
ENDBRANCH  17  18
ENDBRANCH  16  17
ENDBRANCH  13  16
ENDBRANCH  11  12
ENDBRANCH   6  11
BRANCH   7  22
HETATM   22  C   UNL     1      41.952 -15.886   1.950  1.00  0.00    -0.030 A 
HETATM   23  C   UNL     1      41.231 -17.087   2.007  1.00  0.00     0.010 A 
HETATM   24  C   UNL     1      41.898 -18.320   1.951  1.00  0.00     0.008 A 
HETATM   25  C   UNL     1      43.294 -18.388   1.839  1.00  0.00    -0.055 A 
HETATM   26  C   UNL     1      44.005 -17.192   1.710  1.00  0.00     0.008 A 
HETATM   27  C   UNL     1      43.346 -15.963   1.760  1.00  0.00     0.010 A 
BRANCH  25  28
HETATM   28  C   UNL     1      44.001 -19.734   1.817  1.00  0.00     0.010 C 
HETATM   29  C   UNL     1      44.978 -19.864   2.985  1.00  0.00     0.015 C 
HETATM   30  C   UNL     1      43.019 -20.913   1.802  1.00  0.00     0.015 C 
ENDBRANCH  25  28
ENDBRANCH   7  22
BRANCH  10  31
HETATM   31  C   UNL     1      43.049 -13.937   3.952  1.00  0.00     0.294 C 
HETATM   32  O   UNL     1      44.174 -13.650   3.617  1.00  0.00    -0.259 OA
BRANCH  31  33
HETATM   33  O   UNL     1      42.635 -14.690   4.999  1.00  0.00    -0.313 OA
BRANCH  33  34
HETATM   34  C   UNL     1      43.640 -15.071   5.952  1.00  0.00     0.217 C 
BRANCH  34  35
HETATM   35  C   UNL     1      43.633 -16.584   6.011  1.00  0.00    -0.034 A 
HETATM   36  C   UNL     1      42.555 -17.321   5.491  1.00  0.00     0.009 A 
HETATM   37  C   UNL     1      42.553 -18.717   5.517  1.00  0.00     0.001 A 
HETATM   38  C   UNL     1      43.639 -19.400   6.056  1.00  0.00     0.000 A 
HETATM   39  C   UNL     1      44.724 -18.686   6.560  1.00  0.00     0.001 A 
HETATM   40  C   UNL     1      44.724 -17.287   6.537  1.00  0.00     0.009 A 
ENDBRANCH  34  35
ENDBRANCH  33  34
ENDBRANCH  31  33
ENDBRANCH  10  31
TORSDOF 11
ENDMDL
MODEL 2
REMARK VINA RESULT:      -8.4      2.110      2.710
REMARK  11 active torsions:
REMARK  status: ('A' for Active; 'I' for Inactive)
REMARK    1  A    between atoms: C_6  and  C_7 
REMARK    2  A    between atoms: C_7  and  C_8 
REMARK       I    between atoms: C_8  and  N_9 
REMARK    3  A    between atoms: N_9  and  C_10 
REMARK    4  A    between atoms: C_10  and  C_11 
REMARK    5  A    between atoms: C_11  and  N_12 
REMARK    6  A    between atoms: C_17  and  C_18 
REMARK    7  A    between atoms: C_21  and  C_22 
REMARK    8  A    between atoms: C_29  and  C_30 
REMARK    9  A    between atoms: C_30  and  O_31 
REMARK   10  A    between atoms: O_31  and  C_32 
REMARK   11  A    between atoms: C_32  and  C_33 
ROOT
HETATM    1  C   UNL     1      41.722 -11.543   6.738  1.00  0.00     0.071 C 
HETATM    2  C   UNL     1      41.211 -12.485   5.668  1.00  0.00     0.048 C 
HETATM    3  N   UNL     1      40.067 -12.035   5.044  1.00  0.00    -0.229 NA
HETATM    4  C   UNL     1      39.779 -12.538   3.894  1.00  0.00     0.170 C 
HETATM    5  N   UNL     1      40.441 -13.827   3.273  1.00  0.00    -0.319 N 
HETATM    6  C   UNL     1      40.000 -14.014   2.066  1.00  0.00     0.011 C 
HETATM    7  C   UNL     1      41.186 -14.567   4.327  1.00  0.00     0.166 C 
HETATM    8  S   UNL     1      38.588 -11.854   2.841  1.00  0.00    -0.086 SA
HETATM    9  C   UNL     1      39.226 -12.851   1.472  1.00  0.00     0.135 C 
HETATM   10  C   UNL     1      41.854 -13.598   5.250  1.00  0.00     0.069 C 
ENDROOT
BRANCH   6  11
HETATM   11  C   UNL     1      40.189 -15.274   1.274  1.00  0.00     0.156 C 
BRANCH  11  12
HETATM   12  C   UNL     1      40.913 -15.115  -0.049  1.00  0.00     0.223 C 
HETATM   13  N   UNL     1      40.072 -15.106  -1.137  1.00  0.00    -0.359 N 
HETATM   14  H   UNL     1      39.097 -15.346  -0.969  1.00  0.00     0.162 HD
HETATM   15  O   UNL     1      42.131 -14.999  -0.137  1.00  0.00    -0.273 OA
BRANCH  13  16
HETATM   16  C   UNL     1      40.482 -15.201  -2.539  1.00  0.00     0.150 C 
BRANCH  16  17
HETATM   17  C   UNL     1      40.420 -13.909  -3.379  1.00  0.00     0.253 C 
BRANCH  17  18
HETATM   18  N   UNL     1      41.357 -12.829  -2.874  1.00  0.00    -0.077 N 
HETATM   19  H   UNL     1      42.071 -13.310  -2.290  1.00  0.00     0.279 HD
HETATM   20  C   UNL     1      42.082 -12.090  -3.966  1.00  0.00     0.269 C 
HETATM   21  C   UNL     1      40.644 -11.860  -1.968  1.00  0.00     0.269 C 
ENDBRANCH  17  18
ENDBRANCH  16  17
ENDBRANCH  13  16
ENDBRANCH  11  12
ENDBRANCH   6  11
BRANCH   7  22
HETATM   22  C   UNL     1      41.972 -15.772   3.850  1.00  0.00    -0.030 A 
HETATM   23  C   UNL     1      43.131 -15.687   3.066  1.00  0.00     0.010 A 
HETATM   24  C   UNL     1      43.745 -16.848   2.575  1.00  0.00     0.008 A 
HETATM   25  C   UNL     1      43.221 -18.119   2.850  1.00  0.00    -0.055 A 
HETATM   26  C   UNL     1      42.109 -18.208   3.691  1.00  0.00     0.008 A 
HETATM   27  C   UNL     1      41.497 -17.056   4.185  1.00  0.00     0.010 A 
BRANCH  25  28
HETATM   28  C   UNL     1      43.881 -19.365   2.278  1.00  0.00     0.010 C 
HETATM   29  C   UNL     1      44.839 -19.995   3.289  1.00  0.00     0.015 C 
HETATM   30  C   UNL     1      42.857 -20.399   1.789  1.00  0.00     0.015 C 
ENDBRANCH  25  28
ENDBRANCH   7  22
BRANCH  10  31
HETATM   31  C   UNL     1      43.306 -13.634   5.480  1.00  0.00     0.294 C 
HETATM   32  O   UNL     1      44.167 -13.312   4.695  1.00  0.00    -0.259 OA
BRANCH  31  33
HETATM   33  O   UNL     1      43.435 -14.203   6.702  1.00  0.00    -0.313 OA
BRANCH  33  34
HETATM   34  C   UNL     1      44.654 -14.922   6.950  1.00  0.00     0.217 C 
BRANCH  34  35
HETATM   35  C   UNL     1      44.309 -16.396   6.894  1.00  0.00    -0.034 A 
HETATM   36  C   UNL     1      45.196 -17.322   6.318  1.00  0.00     0.009 A 
HETATM   37  C   UNL     1      44.898 -18.686   6.287  1.00  0.00     0.001 A 
HETATM   38  C   UNL     1      43.710 -19.147   6.844  1.00  0.00     0.000 A 
HETATM   39  C   UNL     1      42.827 -18.245   7.435  1.00  0.00     0.001 A 
HETATM   40  C   UNL     1      43.124 -16.879   7.463  1.00  0.00     0.009 A 
ENDBRANCH  34  35
ENDBRANCH  33  34
ENDBRANCH  31  33
ENDBRANCH  10  31
TORSDOF 11
ENDMDL
MODEL 3
REMARK VINA RESULT:      -8.4      4.038      9.362
REMARK  11 active torsions:
REMARK  status: ('A' for Active; 'I' for Inactive)
REMARK    1  A    between atoms: C_6  and  C_7 
REMARK    2  A    between atoms: C_7  and  C_8 
REMARK       I    between atoms: C_8  and  N_9 
REMARK    3  A    between atoms: N_9  and  C_10 
REMARK    4  A    between atoms: C_10  and  C_11 
REMARK    5  A    between atoms: C_11  and  N_12 
REMARK    6  A    between atoms: C_17  and  C_18 
REMARK    7  A    between atoms: C_21  and  C_22 
REMARK    8  A    between atoms: C_29  and  C_30 
REMARK    9  A    between atoms: C_30  and  O_31 
REMARK   10  A    between atoms: O_31  and  C_32 
REMARK   11  A    between atoms: C_32  and  C_33 
ROOT
HETATM    1  C   UNL     1      43.199 -19.806   1.933  1.00  0.00     0.071 C 
HETATM    2  C   UNL     1      43.014 -18.817   3.064  1.00  0.00     0.048 C 
HETATM    3  N   UNL     1      43.466 -19.284   4.280  1.00  0.00    -0.229 NA
HETATM    4  C   UNL     1      43.714 -18.415   5.197  1.00  0.00     0.170 C 
HETATM    5  N   UNL     1      43.268 -16.903   5.162  1.00  0.00    -0.319 N 
HETATM    6  C   UNL     1      43.755 -16.274   6.189  1.00  0.00     0.011 C 
HETATM    7  C   UNL     1      42.241 -16.705   4.104  1.00  0.00     0.166 C 
HETATM    8  S   UNL     1      44.593 -18.794   6.638  1.00  0.00    -0.086 SA
HETATM    9  C   UNL     1      44.816 -17.029   6.967  1.00  0.00     0.135 C 
HETATM   10  C   UNL     1      42.573 -17.547   2.913  1.00  0.00     0.069 C 
ENDROOT
BRANCH   6  11
HETATM   11  C   UNL     1      43.323 -14.908   6.637  1.00  0.00     0.156 C 
BRANCH  11  12
HETATM   12  C   UNL     1      44.442 -13.953   7.003  1.00  0.00     0.223 C 
HETATM   13  N   UNL     1      44.347 -13.463   8.284  1.00  0.00    -0.359 N 
HETATM   14  H   UNL     1      43.488 -13.663   8.793  1.00  0.00     0.162 HD
HETATM   15  O   UNL     1      45.348 -13.655   6.232  1.00  0.00    -0.273 OA
BRANCH  13  16
HETATM   16  C   UNL     1      45.133 -12.360   8.841  1.00  0.00     0.150 C 
BRANCH  16  17
HETATM   17  C   UNL     1      44.359 -11.247   9.578  1.00  0.00     0.253 C 
BRANCH  17  18
HETATM   18  N   UNL     1      43.222 -11.782  10.428  1.00  0.00    -0.077 N 
HETATM   19  H   UNL     1      42.951 -12.696  10.013  1.00  0.00     0.279 HD
HETATM   20  C   UNL     1      43.596 -12.023  11.864  1.00  0.00     0.269 C 
HETATM   21  C   UNL     1      42.007 -10.895  10.343  1.00  0.00     0.269 C 
ENDBRANCH  17  18
ENDBRANCH  16  17
ENDBRANCH  13  16
ENDBRANCH  11  12
ENDBRANCH   6  11
BRANCH   7  22
HETATM   22  C   UNL     1      41.800 -15.273   3.878  1.00  0.00    -0.030 A 
HETATM   23  C   UNL     1      42.643 -14.265   3.390  1.00  0.00     0.010 A 
HETATM   24  C   UNL     1      42.194 -12.940   3.306  1.00  0.00     0.008 A 
HETATM   25  C   UNL     1      40.897 -12.585   3.706  1.00  0.00    -0.055 A 
HETATM   26  C   UNL     1      40.033 -13.601   4.123  1.00  0.00     0.008 A 
HETATM   27  C   UNL     1      40.475 -14.922   4.205  1.00  0.00     0.010 A 
BRANCH  25  28
HETATM   28  C   UNL     1      40.439 -11.136   3.641  1.00  0.00     0.010 C 
HETATM   29  C   UNL     1      38.914 -11.039   3.646  1.00  0.00     0.015 C 
HETATM   30  C   UNL     1      41.038 -10.281   4.766  1.00  0.00     0.015 C 
ENDBRANCH  25  28
ENDBRANCH   7  22
BRANCH  10  31
HETATM   31  C   UNL     1      42.748 -16.954   1.578  1.00  0.00     0.294 C 
HETATM   32  O   UNL     1      43.792 -16.614   1.074  1.00  0.00    -0.259 OA
BRANCH  31  33
HETATM   33  O   UNL     1      41.484 -16.785   1.123  1.00  0.00    -0.313 OA
BRANCH  33  34
HETATM   34  C   UNL     1      41.347 -16.276  -0.214  1.00  0.00     0.217 C 
BRANCH  34  35
HETATM   35  C   UNL     1      40.877 -14.842  -0.088  1.00  0.00    -0.034 A 
HETATM   36  C   UNL     1      39.601 -14.544   0.422  1.00  0.00     0.009 A 
HETATM   37  C   UNL     1      39.170 -13.224   0.568  1.00  0.00     0.001 A 
HETATM   38  C   UNL     1      40.016 -12.177   0.214  1.00  0.00     0.000 A 
HETATM   39  C   UNL     1      41.290 -12.454  -0.278  1.00  0.00     0.001 A 
HETATM   40  C   UNL     1      41.721 -13.777  -0.425  1.00  0.00     0.009 A 
ENDBRANCH  34  35
ENDBRANCH  33  34
ENDBRANCH  31  33
ENDBRANCH  10  31
TORSDOF 11
ENDMDL
MODEL 4
REMARK VINA RESULT:      -8.3      3.068      7.466
REMARK  11 active torsions:
REMARK  status: ('A' for Active; 'I' for Inactive)
REMARK    1  A    between atoms: C_6  and  C_7 
REMARK    2  A    between atoms: C_7  and  C_8 
REMARK       I    between atoms: C_8  and  N_9 
REMARK    3  A    between atoms: N_9  and  C_10 
REMARK    4  A    between atoms: C_10  and  C_11 
REMARK    5  A    between atoms: C_11  and  N_12 
REMARK    6  A    between atoms: C_17  and  C_18 
REMARK    7  A    between atoms: C_21  and  C_22 
REMARK    8  A    between atoms: C_29  and  C_30 
REMARK    9  A    between atoms: C_30  and  O_31 
REMARK   10  A    between atoms: O_31  and  C_32 
REMARK   11  A    between atoms: C_32  and  C_33 
ROOT
HETATM    1  C   UNL     1      41.381 -14.452  -0.931  1.00  0.00     0.071 C 
HETATM    2  C   UNL     1      41.282 -14.032   0.521  1.00  0.00     0.048 C 
HETATM    3  N   UNL     1      40.715 -12.787   0.692  1.00  0.00    -0.229 NA
HETATM    4  C   UNL     1      40.235 -12.507   1.854  1.00  0.00     0.170 C 
HETATM    5  N   UNL     1      40.500 -13.332   3.171  1.00  0.00    -0.319 N 
HETATM    6  C   UNL     1      39.798 -12.843   4.149  1.00  0.00     0.011 C 
HETATM    7  C   UNL     1      41.640 -14.264   2.960  1.00  0.00     0.166 C 
HETATM    8  S   UNL     1      39.206 -11.146   2.142  1.00  0.00    -0.086 SA
HETATM    9  C   UNL     1      38.731 -11.843   3.743  1.00  0.00     0.135 C 
HETATM   10  C   UNL     1      41.587 -14.822   1.574  1.00  0.00     0.069 C 
ENDROOT
BRANCH   6  11
HETATM   11  C   UNL     1      39.996 -13.185   5.596  1.00  0.00     0.156 C 
BRANCH  11  12
HETATM   12  C   UNL     1      40.625 -12.100   6.447  1.00  0.00     0.223 C 
HETATM   13  N   UNL     1      39.937 -11.847   7.611  1.00  0.00    -0.359 N 
HETATM   14  H   UNL     1      39.026 -12.289   7.714  1.00  0.00     0.162 HD
HETATM   15  O   UNL     1      41.653 -11.512   6.130  1.00  0.00    -0.273 OA
BRANCH  13  16
HETATM   16  C   UNL     1      40.161 -10.714   8.510  1.00  0.00     0.150 C 
BRANCH  16  17
HETATM   17  C   UNL     1      40.072 -10.991  10.026  1.00  0.00     0.253 C 
BRANCH  17  18
HETATM   18  N   UNL     1      41.402 -11.400  10.630  1.00  0.00    -0.077 N 
HETATM   19  H   UNL     1      41.479 -12.428  10.500  1.00  0.00     0.279 HD
HETATM   20  C   UNL     1      42.594 -10.764   9.969  1.00  0.00     0.269 C 
HETATM   21  C   UNL     1      41.431 -11.152  12.115  1.00  0.00     0.269 C 
ENDBRANCH  17  18
ENDBRANCH  16  17
ENDBRANCH  13  16
ENDBRANCH  11  12
ENDBRANCH   6  11
BRANCH   7  22
HETATM   22  C   UNL     1      41.937 -15.206   4.110  1.00  0.00    -0.030 A 
HETATM   23  C   UNL     1      41.073 -16.228   4.523  1.00  0.00     0.010 A 
HETATM   24  C   UNL     1      41.368 -16.993   5.662  1.00  0.00     0.008 A 
HETATM   25  C   UNL     1      42.527 -16.758   6.415  1.00  0.00    -0.055 A 
HETATM   26  C   UNL     1      43.425 -15.788   5.961  1.00  0.00     0.008 A 
HETATM   27  C   UNL     1      43.137 -15.028   4.827  1.00  0.00     0.010 A 
BRANCH  25  28
HETATM   28  C   UNL     1      42.812 -17.574   7.666  1.00  0.00     0.010 C 
HETATM   29  C   UNL     1      43.542 -18.873   7.324  1.00  0.00     0.015 C 
HETATM   30  C   UNL     1      43.594 -16.778   8.720  1.00  0.00     0.015 C 
ENDBRANCH  25  28
ENDBRANCH   7  22
BRANCH  10  31
HETATM   31  C   UNL     1      41.540 -16.273   1.332  1.00  0.00     0.294 C 
HETATM   32  O   UNL     1      40.547 -16.952   1.223  1.00  0.00    -0.259 OA
BRANCH  31  33
HETATM   33  O   UNL     1      42.838 -16.658   1.376  1.00  0.00    -0.313 OA
BRANCH  33  34
HETATM   34  C   UNL     1      43.151 -17.926   0.777  1.00  0.00     0.217 C 
BRANCH  34  35
HETATM   35  C   UNL     1      43.673 -18.815   1.886  1.00  0.00    -0.034 A 
HETATM   36  C   UNL     1      43.957 -18.288   3.158  1.00  0.00     0.009 A 
HETATM   37  C   UNL     1      44.412 -19.105   4.195  1.00  0.00     0.001 A 
HETATM   38  C   UNL     1      44.581 -20.469   3.977  1.00  0.00     0.000 A 
HETATM   39  C   UNL     1      44.289 -21.011   2.727  1.00  0.00     0.001 A 
HETATM   40  C   UNL     1      43.835 -20.192   1.688  1.00  0.00     0.009 A 
ENDBRANCH  34  35
ENDBRANCH  33  34
ENDBRANCH  31  33
ENDBRANCH  10  31
TORSDOF 11
ENDMDL
MODEL 5
REMARK VINA RESULT:      -8.2      3.335      7.944
REMARK  11 active torsions:
REMARK  status: ('A' for Active; 'I' for Inactive)
REMARK    1  A    between atoms: C_6  and  C_7 
REMARK    2  A    between atoms: C_7  and  C_8 
REMARK       I    between atoms: C_8  and  N_9 
REMARK    3  A    between atoms: N_9  and  C_10 
REMARK    4  A    between atoms: C_10  and  C_11 
REMARK    5  A    between atoms: C_11  and  N_12 
REMARK    6  A    between atoms: C_17  and  C_18 
REMARK    7  A    between atoms: C_21  and  C_22 
REMARK    8  A    between atoms: C_29  and  C_30 
REMARK    9  A    between atoms: C_30  and  O_31 
REMARK   10  A    between atoms: O_31  and  C_32 
REMARK   11  A    between atoms: C_32  and  C_33 
ROOT
HETATM    1  C   UNL     1      39.617 -12.488  -0.291  1.00  0.00     0.071 C 
HETATM    2  C   UNL     1      40.275 -12.337   1.065  1.00  0.00     0.048 C 
HETATM    3  N   UNL     1      40.469 -11.024   1.437  1.00  0.00    -0.229 NA
HETATM    4  C   UNL     1      40.648 -10.780   2.689  1.00  0.00     0.170 C 
HETATM    5  N   UNL     1      40.965 -11.863   3.790  1.00  0.00    -0.319 N 
HETATM    6  C   UNL     1      40.995 -11.306   4.963  1.00  0.00     0.011 C 
HETATM    7  C   UNL     1      41.362 -13.141   3.140  1.00  0.00     0.166 C 
HETATM    8  S   UNL     1      40.568  -9.186   3.356  1.00  0.00    -0.086 SA
HETATM    9  C   UNL     1      40.457  -9.888   5.020  1.00  0.00     0.135 C 
HETATM   10  C   UNL     1      40.542 -13.359   1.909  1.00  0.00     0.069 C 
ENDROOT
BRANCH   6  11
HETATM   11  C   UNL     1      41.532 -11.957   6.203  1.00  0.00     0.156 C 
BRANCH  11  12
HETATM   12  C   UNL     1      41.567 -11.082   7.441  1.00  0.00     0.223 C 
HETATM   13  N   UNL     1      40.627 -11.427   8.384  1.00  0.00    -0.359 N 
HETATM   14  H   UNL     1      39.927 -12.113   8.108  1.00  0.00     0.162 HD
HETATM   15  O   UNL     1      42.365 -10.162   7.589  1.00  0.00    -0.273 OA
BRANCH  13  16
HETATM   16  C   UNL     1      40.265 -10.637   9.562  1.00  0.00     0.150 C 
BRANCH  16  17
HETATM   17  C   UNL     1      41.097 -10.864  10.842  1.00  0.00     0.253 C 
BRANCH  17  18
HETATM   18  N   UNL     1      42.519 -10.348  10.723  1.00  0.00    -0.077 N 
HETATM   19  H   UNL     1      42.584  -9.882   9.796  1.00  0.00     0.279 HD
HETATM   20  C   UNL     1      42.890  -9.336  11.771  1.00  0.00     0.269 C 
HETATM   21  C   UNL     1      43.515 -11.478  10.706  1.00  0.00     0.269 C 
ENDBRANCH  17  18
ENDBRANCH  16  17
ENDBRANCH  13  16
ENDBRANCH  11  12
ENDBRANCH   6  11
BRANCH   7  22
HETATM   22  C   UNL     1      41.588 -14.310   4.077  1.00  0.00    -0.030 A 
HETATM   23  C   UNL     1      40.570 -14.916   4.826  1.00  0.00     0.010 A 
HETATM   24  C   UNL     1      40.872 -15.926   5.751  1.00  0.00     0.008 A 
HETATM   25  C   UNL     1      42.191 -16.355   5.954  1.00  0.00    -0.055 A 
HETATM   26  C   UNL     1      43.196 -15.802   5.156  1.00  0.00     0.008 A 
HETATM   27  C   UNL     1      42.900 -14.801   4.232  1.00  0.00     0.010 A 
BRANCH  25  28
HETATM   28  C   UNL     1      42.503 -17.427   6.988  1.00  0.00     0.010 C 
HETATM   29  C   UNL     1      43.172 -18.640   6.341  1.00  0.00     0.015 C 
HETATM   30  C   UNL     1      43.358 -16.893   8.146  1.00  0.00     0.015 C 
ENDBRANCH  25  28
ENDBRANCH   7  22
BRANCH  10  31
HETATM   31  C   UNL     1      39.735 -14.576   1.730  1.00  0.00     0.294 C 
HETATM   32  O   UNL     1      38.585 -14.733   2.069  1.00  0.00    -0.259 OA
BRANCH  31  33
HETATM   33  O   UNL     1      40.605 -15.478   1.217  1.00  0.00    -0.313 OA
BRANCH  33  34
HETATM   34  C   UNL     1      40.450 -16.838   1.653  1.00  0.00     0.217 C 
BRANCH  34  35
HETATM   35  C   UNL     1      41.844 -17.393   1.854  1.00  0.00    -0.034 A 
HETATM   36  C   UNL     1      42.072 -18.469   2.730  1.00  0.00     0.009 A 
HETATM   37  C   UNL     1      43.350 -19.005   2.901  1.00  0.00     0.001 A 
HETATM   38  C   UNL     1      44.422 -18.477   2.188  1.00  0.00     0.000 A 
HETATM   39  C   UNL     1      44.212 -17.422   1.303  1.00  0.00     0.001 A 
HETATM   40  C   UNL     1      42.932 -16.884   1.134  1.00  0.00     0.009 A 
ENDBRANCH  34  35
ENDBRANCH  33  34
ENDBRANCH  31  33
ENDBRANCH  10  31
TORSDOF 11
ENDMDL
MODEL 6
REMARK VINA RESULT:      -7.9      4.132      9.498
REMARK  11 active torsions:
REMARK  status: ('A' for Active; 'I' for Inactive)
REMARK    1  A    between atoms: C_6  and  C_7 
REMARK    2  A    between atoms: C_7  and  C_8 
REMARK       I    between atoms: C_8  and  N_9 
REMARK    3  A    between atoms: N_9  and  C_10 
REMARK    4  A    between atoms: C_10  and  C_11 
REMARK    5  A    between atoms: C_11  and  N_12 
REMARK    6  A    between atoms: C_17  and  C_18 
REMARK    7  A    between atoms: C_21  and  C_22 
REMARK    8  A    between atoms: C_29  and  C_30 
REMARK    9  A    between atoms: C_30  and  O_31 
REMARK   10  A    between atoms: O_31  and  C_32 
REMARK   11  A    between atoms: C_32  and  C_33 
ROOT
HETATM    1  C   UNL     1      42.122 -18.278   1.366  1.00  0.00     0.071 C 
HETATM    2  C   UNL     1      42.236 -17.732   2.774  1.00  0.00     0.048 C 
HETATM    3  N   UNL     1      42.903 -18.577   3.636  1.00  0.00    -0.229 NA
HETATM    4  C   UNL     1      43.389 -18.065   4.714  1.00  0.00     0.170 C 
HETATM    5  N   UNL     1      43.036 -16.637   5.282  1.00  0.00    -0.319 N 
HETATM    6  C   UNL     1      43.764 -16.385   6.328  1.00  0.00     0.011 C 
HETATM    7  C   UNL     1      41.825 -16.109   4.599  1.00  0.00     0.166 C 
HETATM    8  S   UNL     1      44.525 -18.897   5.720  1.00  0.00    -0.086 SA
HETATM    9  C   UNL     1      44.917 -17.343   6.562  1.00  0.00     0.135 C 
HETATM   10  C   UNL     1      41.850 -16.494   3.154  1.00  0.00     0.069 C 
ENDROOT
BRANCH   6  11
HETATM   11  C   UNL     1      43.517 -15.258   7.288  1.00  0.00     0.156 C 
BRANCH  11  12
HETATM   12  C   UNL     1      44.572 -14.169   7.307  1.00  0.00     0.223 C 
HETATM   13  N   UNL     1      44.607 -13.460   8.484  1.00  0.00    -0.359 N 
HETATM   14  H   UNL     1      43.853 -13.627   9.147  1.00  0.00     0.162 HD
HETATM   15  O   UNL     1      45.326 -13.951   6.364  1.00  0.00    -0.273 OA
BRANCH  13  16
HETATM   16  C   UNL     1      45.345 -12.217   8.714  1.00  0.00     0.150 C 
BRANCH  16  17
HETATM   17  C   UNL     1      44.835 -11.295   9.842  1.00  0.00     0.253 C 
BRANCH  17  18
HETATM   18  N   UNL     1      43.498 -11.736  10.407  1.00  0.00    -0.077 N 
HETATM   19  H   UNL     1      43.254 -12.623   9.923  1.00  0.00     0.279 HD
HETATM   20  C   UNL     1      43.524 -12.014  11.885  1.00  0.00     0.269 C 
HETATM   21  C   UNL     1      42.408 -10.752  10.076  1.00  0.00     0.269 C 
ENDBRANCH  17  18
ENDBRANCH  16  17
ENDBRANCH  13  16
ENDBRANCH  11  12
ENDBRANCH   6  11
BRANCH   7  22
HETATM   22  C   UNL     1      41.433 -14.691   4.964  1.00  0.00    -0.030 A 
HETATM   23  C   UNL     1      42.232 -13.570   4.704  1.00  0.00     0.010 A 
HETATM   24  C   UNL     1      41.850 -12.301   5.165  1.00  0.00     0.008 A 
HETATM   25  C   UNL     1      40.667 -12.119   5.896  1.00  0.00    -0.055 A 
HETATM   26  C   UNL     1      39.835 -13.225   6.092  1.00  0.00     0.008 A 
HETATM   27  C   UNL     1      40.208 -14.487   5.632  1.00  0.00     0.010 A 
BRANCH  25  28
HETATM   28  C   UNL     1      40.288 -10.742   6.419  1.00  0.00     0.010 C 
HETATM   29  C   UNL     1      39.558 -10.841   7.758  1.00  0.00     0.015 C 
HETATM   30  C   UNL     1      41.497  -9.804   6.531  1.00  0.00     0.015 C 
ENDBRANCH  25  28
ENDBRANCH   7  22
BRANCH  10  31
HETATM   31  C   UNL     1      41.777 -15.482   2.089  1.00  0.00     0.294 C 
HETATM   32  O   UNL     1      42.712 -14.936   1.550  1.00  0.00    -0.259 OA
BRANCH  31  33
HETATM   33  O   UNL     1      40.452 -15.241   1.951  1.00  0.00    -0.313 OA
BRANCH  33  34
HETATM   34  C   UNL     1      40.072 -14.322   0.913  1.00  0.00     0.217 C 
BRANCH  34  35
HETATM   35  C   UNL     1      39.849 -12.981   1.578  1.00  0.00    -0.034 A 
HETATM   36  C   UNL     1      38.712 -12.750   2.371  1.00  0.00     0.009 A 
HETATM   37  C   UNL     1      38.512 -11.525   3.011  1.00  0.00     0.001 A 
HETATM   38  C   UNL     1      39.456 -10.512   2.876  1.00  0.00     0.000 A 
HETATM   39  C   UNL     1      40.598 -10.729   2.107  1.00  0.00     0.001 A 
HETATM   40  C   UNL     1      40.796 -11.955   1.464  1.00  0.00     0.009 A 
ENDBRANCH  34  35
ENDBRANCH  33  34
ENDBRANCH  31  33
ENDBRANCH  10  31
TORSDOF 11
ENDMDL
MODEL 7
REMARK VINA RESULT:      -7.8      2.974      8.394
REMARK  11 active torsions:
REMARK  status: ('A' for Active; 'I' for Inactive)
REMARK    1  A    between atoms: C_6  and  C_7 
REMARK    2  A    between atoms: C_7  and  C_8 
REMARK       I    between atoms: C_8  and  N_9 
REMARK    3  A    between atoms: N_9  and  C_10 
REMARK    4  A    between atoms: C_10  and  C_11 
REMARK    5  A    between atoms: C_11  and  N_12 
REMARK    6  A    between atoms: C_17  and  C_18 
REMARK    7  A    between atoms: C_21  and  C_22 
REMARK    8  A    between atoms: C_29  and  C_30 
REMARK    9  A    between atoms: C_30  and  O_31 
REMARK   10  A    between atoms: O_31  and  C_32 
REMARK   11  A    between atoms: C_32  and  C_33 
ROOT
HETATM    1  C   UNL     1      39.109 -11.513   0.349  1.00  0.00     0.071 C 
HETATM    2  C   UNL     1      40.009 -12.001   1.465  1.00  0.00     0.048 C 
HETATM    3  N   UNL     1      40.258 -11.043   2.425  1.00  0.00    -0.229 NA
HETATM    4  C   UNL     1      40.668 -11.447   3.577  1.00  0.00     0.170 C 
HETATM    5  N   UNL     1      41.195 -12.898   3.897  1.00  0.00    -0.319 N 
HETATM    6  C   UNL     1      41.441 -13.009   5.168  1.00  0.00     0.011 C 
HETATM    7  C   UNL     1      41.474 -13.623   2.629  1.00  0.00     0.166 C 
HETATM    8  S   UNL     1      40.702 -10.426   4.973  1.00  0.00    -0.086 SA
HETATM    9  C   UNL     1      40.912 -11.879   6.031  1.00  0.00     0.135 C 
HETATM   10  C   UNL     1      40.438 -13.274   1.608  1.00  0.00     0.069 C 
ENDROOT
BRANCH   6  11
HETATM   11  C   UNL     1      42.207 -14.137   5.793  1.00  0.00     0.156 C 
BRANCH  11  12
HETATM   12  C   UNL     1      43.659 -13.844   6.118  1.00  0.00     0.223 C 
HETATM   13  N   UNL     1      43.905 -13.715   7.465  1.00  0.00    -0.359 N 
HETATM   14  H   UNL     1      43.095 -13.682   8.081  1.00  0.00     0.162 HD
HETATM   15  O   UNL     1      44.529 -13.740   5.260  1.00  0.00    -0.273 OA
BRANCH  13  16
HETATM   16  C   UNL     1      45.140 -13.210   8.066  1.00  0.00     0.150 C 
BRANCH  16  17
HETATM   17  C   UNL     1      45.022 -11.970   8.978  1.00  0.00     0.253 C 
BRANCH  17  18
HETATM   18  N   UNL     1      43.845 -12.048   9.932  1.00  0.00    -0.077 N 
HETATM   19  H   UNL     1      43.245 -12.826   9.593  1.00  0.00     0.279 HD
HETATM   20  C   UNL     1      44.232 -12.353  11.353  1.00  0.00     0.269 C 
HETATM   21  C   UNL     1      43.005 -10.800   9.872  1.00  0.00     0.269 C 
ENDBRANCH  17  18
ENDBRANCH  16  17
ENDBRANCH  13  16
ENDBRANCH  11  12
ENDBRANCH   6  11
BRANCH   7  22
HETATM   22  C   UNL     1      41.881 -15.075   2.780  1.00  0.00    -0.030 A 
HETATM   23  C   UNL     1      41.042 -16.070   3.301  1.00  0.00     0.010 A 
HETATM   24  C   UNL     1      41.524 -17.371   3.508  1.00  0.00     0.008 A 
HETATM   25  C   UNL     1      42.850 -17.712   3.205  1.00  0.00    -0.055 A 
HETATM   26  C   UNL     1      43.665 -16.739   2.619  1.00  0.00     0.008 A 
HETATM   27  C   UNL     1      43.189 -15.445   2.407  1.00  0.00     0.010 A 
BRANCH  25  28
HETATM   28  C   UNL     1      43.365 -19.118   3.471  1.00  0.00     0.010 C 
HETATM   29  C   UNL     1      43.951 -19.740   2.203  1.00  0.00     0.015 C 
HETATM   30  C   UNL     1      44.386 -19.163   4.615  1.00  0.00     0.015 C 
ENDBRANCH  25  28
ENDBRANCH   7  22
BRANCH  10  31
HETATM   31  C   UNL     1      39.622 -14.311   0.957  1.00  0.00     0.294 C 
HETATM   32  O   UNL     1      38.485 -14.612   1.236  1.00  0.00    -0.259 OA
BRANCH  31  33
HETATM   33  O   UNL     1      40.471 -14.899   0.080  1.00  0.00    -0.313 OA
BRANCH  33  34
HETATM   34  C   UNL     1      40.806 -14.140  -1.094  1.00  0.00     0.217 C 
BRANCH  34  35
HETATM   35  C   UNL     1      39.871 -14.602  -2.192  1.00  0.00    -0.034 A 
HETATM   36  C   UNL     1      40.194 -15.711  -2.994  1.00  0.00     0.009 A 
HETATM   37  C   UNL     1      39.325 -16.160  -3.990  1.00  0.00     0.001 A 
HETATM   38  C   UNL     1      38.111 -15.512  -4.194  1.00  0.00     0.000 A 
HETATM   39  C   UNL     1      37.767 -14.421  -3.397  1.00  0.00     0.001 A 
HETATM   40  C   UNL     1      38.639 -13.970  -2.400  1.00  0.00     0.009 A 
ENDBRANCH  34  35
ENDBRANCH  33  34
ENDBRANCH  31  33
ENDBRANCH  10  31
TORSDOF 11
ENDMDL
MODEL 8
REMARK VINA RESULT:      -7.7      2.375      3.520
REMARK  11 active torsions:
REMARK  status: ('A' for Active; 'I' for Inactive)
REMARK    1  A    between atoms: C_6  and  C_7 
REMARK    2  A    between atoms: C_7  and  C_8 
REMARK       I    between atoms: C_8  and  N_9 
REMARK    3  A    between atoms: N_9  and  C_10 
REMARK    4  A    between atoms: C_10  and  C_11 
REMARK    5  A    between atoms: C_11  and  N_12 
REMARK    6  A    between atoms: C_17  and  C_18 
REMARK    7  A    between atoms: C_21  and  C_22 
REMARK    8  A    between atoms: C_29  and  C_30 
REMARK    9  A    between atoms: C_30  and  O_31 
REMARK   10  A    between atoms: O_31  and  C_32 
REMARK   11  A    between atoms: C_32  and  C_33 
ROOT
HETATM    1  C   UNL     1      38.153 -10.144   4.091  1.00  0.00     0.071 C 
HETATM    2  C   UNL     1      38.316 -11.249   3.068  1.00  0.00     0.048 C 
HETATM    3  N   UNL     1      37.518 -11.087   1.956  1.00  0.00    -0.229 NA
HETATM    4  C   UNL     1      37.849 -11.725   0.887  1.00  0.00     0.170 C 
HETATM    5  N   UNL     1      38.900 -12.899   0.818  1.00  0.00    -0.319 N 
HETATM    6  C   UNL     1      39.075 -13.263  -0.417  1.00  0.00     0.011 C 
HETATM    7  C   UNL     1      39.196 -13.391   2.189  1.00  0.00     0.166 C 
HETATM    8  S   UNL     1      37.167 -11.378  -0.665  1.00  0.00    -0.086 SA
HETATM    9  C   UNL     1      38.486 -12.329  -1.458  1.00  0.00     0.135 C 
HETATM   10  C   UNL     1      39.233 -12.239   3.143  1.00  0.00     0.069 C 
ENDROOT
BRANCH   6  11
HETATM   11  C   UNL     1      39.779 -14.517  -0.845  1.00  0.00     0.156 C 
BRANCH  11  12
HETATM   12  C   UNL     1      40.985 -14.320  -1.742  1.00  0.00     0.223 C 
HETATM   13  N   UNL     1      41.765 -13.245  -1.385  1.00  0.00    -0.359 N 
HETATM   14  H   UNL     1      41.393 -12.621  -0.673  1.00  0.00     0.162 HD
HETATM   15  O   UNL     1      41.242 -15.055  -2.690  1.00  0.00    -0.273 OA
BRANCH  13  16
HETATM   16  C   UNL     1      42.848 -12.669  -2.184  1.00  0.00     0.150 C 
BRANCH  16  17
HETATM   17  C   UNL     1      42.623 -11.252  -2.755  1.00  0.00     0.253 C 
BRANCH  17  18
HETATM   18  N   UNL     1      42.131 -11.264  -4.190  1.00  0.00    -0.077 N 
HETATM   19  H   UNL     1      42.621 -12.051  -4.661  1.00  0.00     0.279 HD
HETATM   20  C   UNL     1      40.652 -11.501  -4.324  1.00  0.00     0.269 C 
HETATM   21  C   UNL     1      42.530 -10.009  -4.919  1.00  0.00     0.269 C 
ENDBRANCH  17  18
ENDBRANCH  16  17
ENDBRANCH  13  16
ENDBRANCH  11  12
ENDBRANCH   6  11
BRANCH   7  22
HETATM   22  C   UNL     1      40.279 -14.447   2.287  1.00  0.00    -0.030 A 
HETATM   23  C   UNL     1      41.642 -14.187   2.089  1.00  0.00     0.010 A 
HETATM   24  C   UNL     1      42.574 -15.234   2.093  1.00  0.00     0.008 A 
HETATM   25  C   UNL     1      42.174 -16.563   2.291  1.00  0.00    -0.055 A 
HETATM   26  C   UNL     1      40.826 -16.814   2.561  1.00  0.00     0.008 A 
HETATM   27  C   UNL     1      39.895 -15.775   2.562  1.00  0.00     0.010 A 
BRANCH  25  28
HETATM   28  C   UNL     1      43.195 -17.690   2.256  1.00  0.00     0.010 C 
HETATM   29  C   UNL     1      42.530 -19.027   1.929  1.00  0.00     0.015 C 
HETATM   30  C   UNL     1      44.346 -17.408   1.281  1.00  0.00     0.015 C 
ENDBRANCH  25  28
ENDBRANCH   7  22
BRANCH  10  31
HETATM   31  C   UNL     1      40.418 -11.965   3.970  1.00  0.00     0.294 C 
HETATM   32  O   UNL     1      41.330 -11.221   3.694  1.00  0.00    -0.259 OA
BRANCH  31  33
HETATM   33  O   UNL     1      40.292 -12.808   5.022  1.00  0.00    -0.313 OA
BRANCH  33  34
HETATM   34  C   UNL     1      41.476 -13.043   5.801  1.00  0.00     0.217 C 
BRANCH  34  35
HETATM   35  C   UNL     1      41.678 -14.543   5.847  1.00  0.00    -0.034 A 
HETATM   36  C   UNL     1      42.960 -15.102   5.706  1.00  0.00     0.009 A 
HETATM   37  C   UNL     1      43.159 -16.482   5.774  1.00  0.00     0.001 A 
HETATM   38  C   UNL     1      42.076 -17.327   5.996  1.00  0.00     0.000 A 
HETATM   39  C   UNL     1      40.800 -16.789   6.155  1.00  0.00     0.001 A 
HETATM   40  C   UNL     1      40.601 -15.406   6.084  1.00  0.00     0.009 A 
ENDBRANCH  34  35
ENDBRANCH  33  34
ENDBRANCH  31  33
ENDBRANCH  10  31
TORSDOF 11
ENDMDL
MODEL 9
REMARK VINA RESULT:      -7.6      2.658      5.768
REMARK  11 active torsions:
REMARK  status: ('A' for Active; 'I' for Inactive)
REMARK    1  A    between atoms: C_6  and  C_7 
REMARK    2  A    between atoms: C_7  and  C_8 
REMARK       I    between atoms: C_8  and  N_9 
REMARK    3  A    between atoms: N_9  and  C_10 
REMARK    4  A    between atoms: C_10  and  C_11 
REMARK    5  A    between atoms: C_11  and  N_12 
REMARK    6  A    between atoms: C_17  and  C_18 
REMARK    7  A    between atoms: C_21  and  C_22 
REMARK    8  A    between atoms: C_29  and  C_30 
REMARK    9  A    between atoms: C_30  and  O_31 
REMARK   10  A    between atoms: O_31  and  C_32 
REMARK   11  A    between atoms: C_32  and  C_33 
ROOT
HETATM    1  C   UNL     1      41.407 -17.733   4.917  1.00  0.00     0.071 C 
HETATM    2  C   UNL     1      40.955 -16.386   4.393  1.00  0.00     0.048 C 
HETATM    3  N   UNL     1      41.091 -15.367   5.312  1.00  0.00    -0.229 NA
HETATM    4  C   UNL     1      41.112 -14.160   4.864  1.00  0.00     0.170 C 
HETATM    5  N   UNL     1      40.697 -13.723   3.407  1.00  0.00    -0.319 N 
HETATM    6  C   UNL     1      40.921 -12.454   3.245  1.00  0.00     0.011 C 
HETATM    7  C   UNL     1      39.963 -14.831   2.739  1.00  0.00     0.166 C 
HETATM    8  S   UNL     1      41.607 -12.809   5.826  1.00  0.00    -0.086 SA
HETATM    9  C   UNL     1      41.753 -11.799   4.331  1.00  0.00     0.135 C 
HETATM   10  C   UNL     1      40.573 -16.143   3.119  1.00  0.00     0.069 C 
ENDROOT
BRANCH   6  11
HETATM   11  C   UNL     1      40.401 -11.635   2.100  1.00  0.00     0.156 C 
BRANCH  11  12
HETATM   12  C   UNL     1      41.416 -11.280   1.032  1.00  0.00     0.223 C 
HETATM   13  N   UNL     1      41.041 -10.212   0.252  1.00  0.00    -0.359 N 
HETATM   14  H   UNL     1      40.090  -9.869   0.365  1.00  0.00     0.162 HD
HETATM   15  O   UNL     1      42.473 -11.885   0.885  1.00  0.00    -0.273 OA
BRANCH  13  16
HETATM   16  C   UNL     1      41.691  -9.787  -0.989  1.00  0.00     0.150 C 
BRANCH  16  17
HETATM   17  C   UNL     1      41.211 -10.451  -2.297  1.00  0.00     0.253 C 
BRANCH  17  18
HETATM   18  N   UNL     1      42.340 -11.081  -3.089  1.00  0.00    -0.077 N 
HETATM   19  H   UNL     1      43.127 -10.402  -3.069  1.00  0.00     0.279 HD
HETATM   20  C   UNL     1      42.840 -12.377  -2.512  1.00  0.00     0.269 C 
HETATM   21  C   UNL     1      41.964 -11.261  -4.536  1.00  0.00     0.269 C 
ENDBRANCH  17  18
ENDBRANCH  16  17
ENDBRANCH  13  16
ENDBRANCH  11  12
ENDBRANCH   6  11
BRANCH   7  22
HETATM   22  C   UNL     1      39.600 -14.595   1.287  1.00  0.00    -0.030 A 
HETATM   23  C   UNL     1      40.520 -14.664   0.232  1.00  0.00     0.010 A 
HETATM   24  C   UNL     1      40.132 -14.330  -1.074  1.00  0.00     0.008 A 
HETATM   25  C   UNL     1      38.823 -13.919  -1.360  1.00  0.00    -0.055 A 
HETATM   26  C   UNL     1      37.888 -13.920  -0.322  1.00  0.00     0.008 A 
HETATM   27  C   UNL     1      38.268 -14.256   0.978  1.00  0.00     0.010 A 
BRANCH  25  28
HETATM   28  C   UNL     1      38.430 -13.527  -2.777  1.00  0.00     0.010 C 
HETATM   29  C   UNL     1      37.726 -14.679  -3.494  1.00  0.00     0.015 C 
HETATM   30  C   UNL     1      37.566 -12.259  -2.816  1.00  0.00     0.015 C 
ENDBRANCH  25  28
ENDBRANCH   7  22
BRANCH  10  31
HETATM   31  C   UNL     1      41.073 -17.080   2.102  1.00  0.00     0.294 C 
HETATM   32  O   UNL     1      40.419 -17.887   1.484  1.00  0.00    -0.259 OA
BRANCH  31  33
HETATM   33  O   UNL     1      42.415 -16.898   2.116  1.00  0.00    -0.313 OA
BRANCH  33  34
HETATM   34  C   UNL     1      43.186 -17.746   1.249  1.00  0.00     0.217 C 
BRANCH  34  35
HETATM   35  C   UNL     1      43.715 -18.879   2.104  1.00  0.00    -0.034 A 
HETATM   36  C   UNL     1      44.208 -18.635   3.398  1.00  0.00     0.009 A 
HETATM   37  C   UNL     1      44.672 -19.676   4.204  1.00  0.00     0.001 A 
HETATM   38  C   UNL     1      44.639 -20.984   3.731  1.00  0.00     0.000 A 
HETATM   39  C   UNL     1      44.137 -21.246   2.458  1.00  0.00     0.001 A 
HETATM   40  C   UNL     1      43.675 -20.203   1.649  1.00  0.00     0.009 A 
ENDBRANCH  34  35
ENDBRANCH  33  34
ENDBRANCH  31  33
ENDBRANCH  10  31
TORSDOF 11
ENDMDL
MODEL 10
REMARK VINA RESULT:      -7.5      2.820      5.815
REMARK  11 active torsions:
REMARK  status: ('A' for Active; 'I' for Inactive)
REMARK    1  A    between atoms: C_6  and  C_7 
REMARK    2  A    between atoms: C_7  and  C_8 
REMARK       I    between atoms: C_8  and  N_9 
REMARK    3  A    between atoms: N_9  and  C_10 
REMARK    4  A    between atoms: C_10  and  C_11 
REMARK    5  A    between atoms: C_11  and  N_12 
REMARK    6  A    between atoms: C_17  and  C_18 
REMARK    7  A    between atoms: C_21  and  C_22 
REMARK    8  A    between atoms: C_29  and  C_30 
REMARK    9  A    between atoms: C_30  and  O_31 
REMARK   10  A    between atoms: O_31  and  C_32 
REMARK   11  A    between atoms: C_32  and  C_33 
ROOT
HETATM    1  C   UNL     1      41.344 -17.697   5.090  1.00  0.00     0.071 C 
HETATM    2  C   UNL     1      40.944 -16.354   4.517  1.00  0.00     0.048 C 
HETATM    3  N   UNL     1      41.054 -15.318   5.420  1.00  0.00    -0.229 NA
HETATM    4  C   UNL     1      41.119 -14.122   4.949  1.00  0.00     0.170 C 
HETATM    5  N   UNL     1      40.785 -13.709   3.464  1.00  0.00    -0.319 N 
HETATM    6  C   UNL     1      41.041 -12.448   3.287  1.00  0.00     0.011 C 
HETATM    7  C   UNL     1      40.065 -14.818   2.784  1.00  0.00     0.166 C 
HETATM    8  S   UNL     1      41.592 -12.759   5.906  1.00  0.00    -0.086 SA
HETATM    9  C   UNL     1      41.830 -11.784   4.400  1.00  0.00     0.135 C 
HETATM   10  C   UNL     1      40.630 -16.132   3.221  1.00  0.00     0.069 C 
ENDROOT
BRANCH   6  11
HETATM   11  C   UNL     1      40.593 -11.645   2.101  1.00  0.00     0.156 C 
BRANCH  11  12
HETATM   12  C   UNL     1      41.697 -11.165   1.179  1.00  0.00     0.223 C 
HETATM   13  N   UNL     1      41.680  -9.808   0.963  1.00  0.00    -0.359 N 
HETATM   14  H   UNL     1      40.872  -9.295   1.309  1.00  0.00     0.162 HD
HETATM   15  O   UNL     1      42.528 -11.918   0.681  1.00  0.00    -0.273 OA
BRANCH  13  16
HETATM   16  C   UNL     1      42.460  -9.090  -0.047  1.00  0.00     0.150 C 
BRANCH  16  17
HETATM   17  C   UNL     1      41.784  -8.842  -1.412  1.00  0.00     0.253 C 
BRANCH  17  18
HETATM   18  N   UNL     1      42.597  -9.370  -2.579  1.00  0.00    -0.077 N 
HETATM   19  H   UNL     1      43.575  -9.054  -2.420  1.00  0.00     0.279 HD
HETATM   20  C   UNL     1      42.612 -10.870  -2.682  1.00  0.00     0.269 C 
HETATM   21  C   UNL     1      42.153  -8.758  -3.881  1.00  0.00     0.269 C 
ENDBRANCH  17  18
ENDBRANCH  16  17
ENDBRANCH  13  16
ENDBRANCH  11  12
ENDBRANCH   6  11
BRANCH   7  22
HETATM   22  C   UNL     1      39.779 -14.607   1.310  1.00  0.00    -0.030 A 
HETATM   23  C   UNL     1      40.749 -14.713   0.305  1.00  0.00     0.010 A 
HETATM   24  C   UNL     1      40.432 -14.401  -1.025  1.00  0.00     0.008 A 
HETATM   25  C   UNL     1      39.146 -13.976  -1.386  1.00  0.00    -0.055 A 
HETATM   26  C   UNL     1      38.160 -13.941  -0.396  1.00  0.00     0.008 A 
HETATM   27  C   UNL     1      38.469 -14.254   0.928  1.00  0.00     0.010 A 
BRANCH  25  28
HETATM   28  C   UNL     1      38.831 -13.608  -2.828  1.00  0.00     0.010 C 
HETATM   29  C   UNL     1      40.098 -13.593  -3.683  1.00  0.00     0.015 C 
HETATM   30  C   UNL     1      37.771 -14.527  -3.450  1.00  0.00     0.015 C 
ENDBRANCH  25  28
ENDBRANCH   7  22
BRANCH  10  31
HETATM   31  C   UNL     1      41.163 -17.100   2.249  1.00  0.00     0.294 C 
HETATM   32  O   UNL     1      40.524 -17.895   1.602  1.00  0.00    -0.259 OA
BRANCH  31  33
HETATM   33  O   UNL     1      42.507 -16.961   2.346  1.00  0.00    -0.313 OA
BRANCH  33  34
HETATM   34  C   UNL     1      43.300 -17.766   1.459  1.00  0.00     0.217 C 
BRANCH  34  35
HETATM   35  C   UNL     1      43.741 -18.980   2.250  1.00  0.00    -0.034 A 
HETATM   36  C   UNL     1      43.678 -20.268   1.688  1.00  0.00     0.009 A 
HETATM   37  C   UNL     1      44.109 -21.389   2.400  1.00  0.00     0.001 A 
HETATM   38  C   UNL     1      44.619 -21.238   3.685  1.00  0.00     0.000 A 
HETATM   39  C   UNL     1      44.704 -19.968   4.251  1.00  0.00     0.001 A 
HETATM   40  C   UNL     1      44.271 -18.845   3.539  1.00  0.00     0.009 A 
ENDBRANCH  34  35
ENDBRANCH  33  34
ENDBRANCH  31  33
ENDBRANCH  10  31
TORSDOF 11
ENDMDL
