MODEL 1
REMARK VINA RESULT:      -9.6      0.000      0.000
REMARK  8 active torsions:
REMARK  status: ('A' for Active; 'I' for Inactive)
REMARK    1  A    between atoms: O_2  and  C_3 
REMARK    2  A    between atoms: C_4  and  O_5 
REMARK    3  A    between atoms: C_13  and  C_14 
REMARK    4  A    between atoms: C_14  and  N_15 
REMARK    5  A    between atoms: C_19  and  C_20 
REMARK    6  A    between atoms: C_20  and  O_21 
REMARK    7  A    between atoms: C_20  and  C_22 
REMARK    8  A    between atoms: C_20  and  C_28 
ROOT
HETATM    1  N   UNL     1      41.944 -15.487   1.028  1.00  0.00    -0.064 N 
HETATM    2  H   UNL     1      42.579 -14.846   0.538  1.00  0.00     0.280 HD
HETATM    3  C   UNL     1      42.149 -15.217   2.507  1.00  0.00     0.236 C 
HETATM    4  C   UNL     1      43.562 -15.600   2.919  1.00  0.00     0.036 C 
HETATM    5  C   UNL     1      43.920 -17.073   2.605  1.00  0.00     0.033 C 
HETATM    6  C   UNL     1      43.718 -17.247   1.083  1.00  0.00     0.036 C 
HETATM    7  C   UNL     1      42.324 -16.882   0.596  1.00  0.00     0.236 C 
ENDROOT
BRANCH   1   8
HETATM    8  C   UNL     1      40.524 -15.100   0.576  1.00  0.00     0.313 C 
BRANCH   8   9
HETATM    9  C   UNL     1      40.497 -14.309  -0.732  1.00  0.00     0.133 A 
HETATM   10  N   UNL     1      39.526 -14.641  -1.639  1.00  0.00    -0.309 N 
HETATM   11  C   UNL     1      39.263 -13.892  -2.757  1.00  0.00     0.259 A 
HETATM   12  H   UNL     1      38.890 -15.416  -1.508  1.00  0.00     0.170 HD
HETATM   13  C   UNL     1      40.173 -12.764  -3.004  1.00  0.00     0.064 A 
HETATM   14  O   UNL     1      38.301 -14.138  -3.470  1.00  0.00    -0.267 OA
HETATM   15  C   UNL     1      41.188 -12.546  -2.071  1.00  0.00     0.077 A 
HETATM   16  C   UNL     1      40.009 -11.938  -4.119  1.00  0.00     0.059 A 
HETATM   17  C   UNL     1      42.068 -11.482  -2.274  1.00  0.00     0.072 A 
HETATM   18  N   UNL     1      41.321 -13.327  -0.907  1.00  0.00    -0.233 NA
HETATM   19  C   UNL     1      41.929 -10.646  -3.389  1.00  0.00     0.103 A 
HETATM   20  C   UNL     1      40.883 -10.867  -4.312  1.00  0.00     0.102 A 
BRANCH  19  21
HETATM   21  O   UNL     1      42.740  -9.569  -3.647  1.00  0.00    -0.353 OA
HETATM   22  C   UNL     1      42.689  -8.473  -2.743  1.00  0.00     0.210 C 
ENDBRANCH  19  21
BRANCH  20  23
HETATM   23  O   UNL     1      40.810  -9.986  -5.360  1.00  0.00    -0.353 OA
HETATM   24  C   UNL     1      39.603  -9.936  -6.108  1.00  0.00     0.210 C 
ENDBRANCH  20  23
ENDBRANCH   8   9
ENDBRANCH   1   8
BRANCH   5  25
HETATM   25  C   UNL     1      43.161 -18.139   3.504  1.00  0.00     0.116 C 
BRANCH  25  26
HETATM   26  O   UNL     1      41.772 -18.060   3.140  1.00  0.00    -0.380 OA
HETATM   27  H   UNL     1      41.385 -18.922   3.391  1.00  0.00     0.211 HD
ENDBRANCH  25  26
BRANCH  25  28
HETATM   28  C   UNL     1      43.644 -19.571   3.180  1.00  0.00    -0.019 A 
HETATM   29  C   UNL     1      43.254 -20.235   2.003  1.00  0.00     0.010 A 
HETATM   30  C   UNL     1      43.677 -21.540   1.727  1.00  0.00     0.001 A 
HETATM   31  C   UNL     1      44.490 -22.220   2.625  1.00  0.00     0.000 A 
HETATM   32  C   UNL     1      44.881 -21.598   3.804  1.00  0.00     0.001 A 
HETATM   33  C   UNL     1      44.461 -20.293   4.080  1.00  0.00     0.010 A 
ENDBRANCH  25  28
BRANCH  25  34
HETATM   34  C   UNL     1      43.246 -17.798   5.012  1.00  0.00    -0.019 A 
HETATM   35  C   UNL     1      42.093 -17.544   5.783  1.00  0.00     0.010 A 
HETATM   36  C   UNL     1      42.177 -17.216   7.141  1.00  0.00     0.001 A 
HETATM   37  C   UNL     1      43.415 -17.144   7.768  1.00  0.00     0.000 A 
HETATM   38  C   UNL     1      44.570 -17.398   7.039  1.00  0.00     0.001 A 
HETATM   39  C   UNL     1      44.487 -17.719   5.681  1.00  0.00     0.010 A 
ENDBRANCH  25  34
ENDBRANCH   5  25
TORSDOF 8
ENDMDL
MODEL 2
REMARK VINA RESULT:      -9.4      1.231      2.148
REMARK  8 active torsions:
REMARK  status: ('A' for Active; 'I' for Inactive)
REMARK    1  A    between atoms: O_2  and  C_3 
REMARK    2  A    between atoms: C_4  and  O_5 
REMARK    3  A    between atoms: C_13  and  C_14 
REMARK    4  A    between atoms: C_14  and  N_15 
REMARK    5  A    between atoms: C_19  and  C_20 
REMARK    6  A    between atoms: C_20  and  O_21 
REMARK    7  A    between atoms: C_20  and  C_22 
REMARK    8  A    between atoms: C_20  and  C_28 
ROOT
HETATM    1  N   UNL     1      42.076 -15.573   0.961  1.00  0.00    -0.064 N 
HETATM    2  H   UNL     1      42.732 -14.942   0.485  1.00  0.00     0.280 HD
HETATM    3  C   UNL     1      42.234 -15.285   2.443  1.00  0.00     0.236 C 
HETATM    4  C   UNL     1      43.631 -15.671   2.906  1.00  0.00     0.036 C 
HETATM    5  C   UNL     1      43.990 -17.149   2.624  1.00  0.00     0.033 C 
HETATM    6  C   UNL     1      43.837 -17.342   1.098  1.00  0.00     0.036 C 
HETATM    7  C   UNL     1      42.462 -16.976   0.560  1.00  0.00     0.236 C 
ENDROOT
BRANCH   1   8
HETATM    8  C   UNL     1      40.674 -15.184   0.458  1.00  0.00     0.313 C 
BRANCH   8   9
HETATM    9  C   UNL     1      40.697 -14.126  -0.646  1.00  0.00     0.133 A 
HETATM   10  N   UNL     1      41.918 -13.812  -1.179  1.00  0.00    -0.309 N 
HETATM   11  C   UNL     1      42.063 -13.033  -2.299  1.00  0.00     0.259 A 
HETATM   12  H   UNL     1      42.788 -14.191  -0.830  1.00  0.00     0.170 HD
HETATM   13  C   UNL     1      40.829 -12.440  -2.835  1.00  0.00     0.064 A 
HETATM   14  O   UNL     1      43.156 -12.887  -2.829  1.00  0.00    -0.267 OA
HETATM   15  C   UNL     1      39.636 -12.748  -2.179  1.00  0.00     0.077 A 
HETATM   16  C   UNL     1      40.858 -11.621  -3.967  1.00  0.00     0.059 A 
HETATM   17  C   UNL     1      38.446 -12.204  -2.664  1.00  0.00     0.072 A 
HETATM   18  N   UNL     1      39.585 -13.629  -1.082  1.00  0.00    -0.233 NA
HETATM   19  C   UNL     1      38.450 -11.371  -3.791  1.00  0.00     0.103 A 
HETATM   20  C   UNL     1      39.663 -11.089  -4.456  1.00  0.00     0.102 A 
BRANCH  19  21
HETATM   21  O   UNL     1      37.320 -10.815  -4.339  1.00  0.00    -0.353 OA
HETATM   22  C   UNL     1      36.343 -11.698  -4.874  1.00  0.00     0.210 C 
ENDBRANCH  19  21
BRANCH  20  23
HETATM   23  O   UNL     1      39.569 -10.284  -5.562  1.00  0.00    -0.353 OA
HETATM   24  C   UNL     1      40.727 -10.121  -6.370  1.00  0.00     0.210 C 
ENDBRANCH  20  23
ENDBRANCH   8   9
ENDBRANCH   1   8
BRANCH   5  25
HETATM   25  C   UNL     1      43.196 -18.199   3.510  1.00  0.00     0.116 C 
BRANCH  25  26
HETATM   26  O   UNL     1      41.816 -18.104   3.112  1.00  0.00    -0.380 OA
HETATM   27  H   UNL     1      41.614 -17.148   3.092  1.00  0.00     0.211 HD
ENDBRANCH  25  26
BRANCH  25  28
HETATM   28  C   UNL     1      43.667 -19.640   3.207  1.00  0.00    -0.019 A 
HETATM   29  C   UNL     1      43.306 -20.302   2.020  1.00  0.00     0.010 A 
HETATM   30  C   UNL     1      43.718 -21.614   1.762  1.00  0.00     0.001 A 
HETATM   31  C   UNL     1      44.490 -22.303   2.689  1.00  0.00     0.000 A 
HETATM   32  C   UNL     1      44.851 -21.683   3.878  1.00  0.00     0.001 A 
HETATM   33  C   UNL     1      44.442 -20.371   4.136  1.00  0.00     0.010 A 
ENDBRANCH  25  28
BRANCH  25  34
HETATM   34  C   UNL     1      43.248 -17.849   5.018  1.00  0.00    -0.019 A 
HETATM   35  C   UNL     1      42.080 -17.580   5.761  1.00  0.00     0.010 A 
HETATM   36  C   UNL     1      42.136 -17.244   7.118  1.00  0.00     0.001 A 
HETATM   37  C   UNL     1      43.359 -17.179   7.773  1.00  0.00     0.000 A 
HETATM   38  C   UNL     1      44.529 -17.449   7.072  1.00  0.00     0.001 A 
HETATM   39  C   UNL     1      44.474 -17.778   5.715  1.00  0.00     0.010 A 
ENDBRANCH  25  34
ENDBRANCH   5  25
TORSDOF 8
ENDMDL
MODEL 3
REMARK VINA RESULT:      -9.2      2.875      4.828
REMARK  8 active torsions:
REMARK  status: ('A' for Active; 'I' for Inactive)
REMARK    1  A    between atoms: O_2  and  C_3 
REMARK    2  A    between atoms: C_4  and  O_5 
REMARK    3  A    between atoms: C_13  and  C_14 
REMARK    4  A    between atoms: C_14  and  N_15 
REMARK    5  A    between atoms: C_19  and  C_20 
REMARK    6  A    between atoms: C_20  and  O_21 
REMARK    7  A    between atoms: C_20  and  C_22 
REMARK    8  A    between atoms: C_20  and  C_28 
ROOT
HETATM    1  N   UNL     1      40.504 -15.332   0.183  1.00  0.00    -0.064 N 
HETATM    2  H   UNL     1      39.504 -15.546   0.091  1.00  0.00     0.280 HD
HETATM    3  C   UNL     1      41.227 -16.646  -0.049  1.00  0.00     0.236 C 
HETATM    4  C   UNL     1      40.885 -17.634   1.057  1.00  0.00     0.036 C 
HETATM    5  C   UNL     1      41.206 -17.108   2.476  1.00  0.00     0.033 C 
HETATM    6  C   UNL     1      40.406 -15.795   2.637  1.00  0.00     0.036 C 
HETATM    7  C   UNL     1      40.696 -14.756   1.564  1.00  0.00     0.236 C 
ENDROOT
BRANCH   1   8
HETATM    8  C   UNL     1      40.821 -14.312  -0.927  1.00  0.00     0.313 C 
BRANCH   8   9
HETATM    9  C   UNL     1      39.740 -14.232  -2.006  1.00  0.00     0.133 A 
HETATM   10  N   UNL     1      39.653 -15.285  -2.877  1.00  0.00    -0.309 N 
HETATM   11  C   UNL     1      38.616 -15.437  -3.761  1.00  0.00     0.259 A 
HETATM   12  H   UNL     1      40.305 -16.058  -2.876  1.00  0.00     0.170 HD
HETATM   13  C   UNL     1      37.650 -14.329  -3.815  1.00  0.00     0.064 A 
HETATM   14  O   UNL     1      38.496 -16.456  -4.425  1.00  0.00    -0.267 OA
HETATM   15  C   UNL     1      37.860 -13.256  -2.949  1.00  0.00     0.077 A 
HETATM   16  C   UNL     1      36.558 -14.370  -4.686  1.00  0.00     0.059 A 
HETATM   17  C   UNL     1      36.960 -12.189  -2.973  1.00  0.00     0.072 A 
HETATM   18  N   UNL     1      38.915 -13.236  -2.016  1.00  0.00    -0.233 NA
HETATM   19  C   UNL     1      35.864 -12.202  -3.844  1.00  0.00     0.103 A 
HETATM   20  C   UNL     1      35.653 -13.307  -4.698  1.00  0.00     0.102 A 
BRANCH  19  21
HETATM   21  O   UNL     1      34.925 -11.202  -3.912  1.00  0.00    -0.353 OA
HETATM   22  C   UNL     1      34.346 -10.757  -2.693  1.00  0.00     0.210 C 
ENDBRANCH  19  21
BRANCH  20  23
HETATM   23  O   UNL     1      34.543 -13.243  -5.500  1.00  0.00    -0.353 OA
HETATM   24  C   UNL     1      34.739 -13.084  -6.899  1.00  0.00     0.210 C 
ENDBRANCH  20  23
ENDBRANCH   8   9
ENDBRANCH   1   8
BRANCH   5  25
HETATM   25  C   UNL     1      42.756 -16.986   2.797  1.00  0.00     0.116 C 
BRANCH  25  26
HETATM   26  O   UNL     1      43.363 -16.383   1.641  1.00  0.00    -0.380 OA
HETATM   27  H   UNL     1      43.297 -15.418   1.783  1.00  0.00     0.211 HD
ENDBRANCH  25  26
BRANCH  25  28
HETATM   28  C   UNL     1      42.994 -16.037   3.994  1.00  0.00    -0.019 A 
HETATM   29  C   UNL     1      42.550 -16.354   5.291  1.00  0.00     0.010 A 
HETATM   30  C   UNL     1      42.751 -15.480   6.365  1.00  0.00     0.001 A 
HETATM   31  C   UNL     1      43.389 -14.262   6.169  1.00  0.00     0.000 A 
HETATM   32  C   UNL     1      43.827 -13.912   4.898  1.00  0.00     0.001 A 
HETATM   33  C   UNL     1      43.630 -14.786   3.825  1.00  0.00     0.010 A 
ENDBRANCH  25  28
BRANCH  25  34
HETATM   34  C   UNL     1      43.425 -18.371   2.980  1.00  0.00    -0.019 A 
HETATM   35  C   UNL     1      43.374 -19.360   1.975  1.00  0.00     0.010 A 
HETATM   36  C   UNL     1      43.963 -20.616   2.154  1.00  0.00     0.001 A 
HETATM   37  C   UNL     1      44.629 -20.915   3.336  1.00  0.00     0.000 A 
HETATM   38  C   UNL     1      44.706 -19.959   4.342  1.00  0.00     0.001 A 
HETATM   39  C   UNL     1      44.111 -18.706   4.166  1.00  0.00     0.010 A 
ENDBRANCH  25  34
ENDBRANCH   5  25
TORSDOF 8
ENDMDL
MODEL 4
REMARK VINA RESULT:      -9.1      2.608      9.314
REMARK  8 active torsions:
REMARK  status: ('A' for Active; 'I' for Inactive)
REMARK    1  A    between atoms: O_2  and  C_3 
REMARK    2  A    between atoms: C_4  and  O_5 
REMARK    3  A    between atoms: C_13  and  C_14 
REMARK    4  A    between atoms: C_14  and  N_15 
REMARK    5  A    between atoms: C_19  and  C_20 
REMARK    6  A    between atoms: C_20  and  O_21 
REMARK    7  A    between atoms: C_20  and  C_22 
REMARK    8  A    between atoms: C_20  and  C_28 
ROOT
HETATM    1  N   UNL     1      39.540 -13.838   2.863  1.00  0.00    -0.064 N 
HETATM    2  H   UNL     1      38.732 -13.406   3.328  1.00  0.00     0.280 HD
HETATM    3  C   UNL     1      40.338 -12.688   2.276  1.00  0.00     0.236 C 
HETATM    4  C   UNL     1      39.529 -11.988   1.194  1.00  0.00     0.036 C 
HETATM    5  C   UNL     1      39.068 -12.933   0.058  1.00  0.00     0.033 C 
HETATM    6  C   UNL     1      38.240 -14.046   0.738  1.00  0.00     0.036 C 
HETATM    7  C   UNL     1      38.984 -14.793   1.835  1.00  0.00     0.236 C 
ENDROOT
BRANCH   1   8
HETATM    8  C   UNL     1      40.327 -14.562   3.971  1.00  0.00     0.313 C 
BRANCH   8   9
HETATM    9  C   UNL     1      41.059 -15.811   3.479  1.00  0.00     0.133 A 
HETATM   10  N   UNL     1      41.097 -16.016   2.126  1.00  0.00    -0.309 N 
HETATM   11  C   UNL     1      41.878 -16.979   1.540  1.00  0.00     0.259 A 
HETATM   12  H   UNL     1      40.612 -15.426   1.464  1.00  0.00     0.170 HD
HETATM   13  C   UNL     1      42.590 -17.878   2.461  1.00  0.00     0.064 A 
HETATM   14  O   UNL     1      41.996 -17.043   0.325  1.00  0.00    -0.267 OA
HETATM   15  C   UNL     1      42.429 -17.648   3.828  1.00  0.00     0.077 A 
HETATM   16  C   UNL     1      43.407 -18.903   1.977  1.00  0.00     0.059 A 
HETATM   17  C   UNL     1      43.093 -18.482   4.730  1.00  0.00     0.072 A 
HETATM   18  N   UNL     1      41.667 -16.576   4.328  1.00  0.00    -0.233 NA
HETATM   19  C   UNL     1      43.910 -19.523   4.269  1.00  0.00     0.103 A 
HETATM   20  C   UNL     1      44.080 -19.726   2.882  1.00  0.00     0.102 A 
BRANCH  19  21
HETATM   21  O   UNL     1      44.611 -20.371   5.091  1.00  0.00    -0.353 OA
HETATM   22  C   UNL     1      43.976 -20.804   6.287  1.00  0.00     0.210 C 
ENDBRANCH  19  21
BRANCH  20  23
HETATM   23  O   UNL     1      44.914 -20.753   2.523  1.00  0.00    -0.353 OA
HETATM   24  C   UNL     1      44.343 -21.883   1.877  1.00  0.00     0.210 C 
ENDBRANCH  20  23
ENDBRANCH   8   9
ENDBRANCH   1   8
BRANCH   5  25
HETATM   25  C   UNL     1      40.239 -13.453  -0.880  1.00  0.00     0.116 C 
BRANCH  25  26
HETATM   26  O   UNL     1      41.103 -14.245  -0.047  1.00  0.00    -0.380 OA
HETATM   27  H   UNL     1      41.753 -13.619   0.329  1.00  0.00     0.211 HD
ENDBRANCH  25  26
BRANCH  25  28
HETATM   28  C   UNL     1      39.684 -14.380  -1.985  1.00  0.00    -0.019 A 
HETATM   29  C   UNL     1      40.438 -15.450  -2.502  1.00  0.00     0.010 A 
HETATM   30  C   UNL     1      39.938 -16.272  -3.517  1.00  0.00     0.001 A 
HETATM   31  C   UNL     1      38.677 -16.040  -4.052  1.00  0.00     0.000 A 
HETATM   32  C   UNL     1      37.913 -14.983  -3.574  1.00  0.00     0.001 A 
HETATM   33  C   UNL     1      38.410 -14.162  -2.558  1.00  0.00     0.010 A 
ENDBRANCH  25  28
BRANCH  25  34
HETATM   34  C   UNL     1      41.099 -12.293  -1.438  1.00  0.00    -0.019 A 
HETATM   35  C   UNL     1      42.452 -12.128  -1.075  1.00  0.00     0.010 A 
HETATM   36  C   UNL     1      43.219 -11.066  -1.567  1.00  0.00     0.001 A 
HETATM   37  C   UNL     1      42.658 -10.146  -2.444  1.00  0.00     0.000 A 
HETATM   38  C   UNL     1      41.330 -10.285  -2.830  1.00  0.00     0.001 A 
HETATM   39  C   UNL     1      40.562 -11.343  -2.333  1.00  0.00     0.010 A 
ENDBRANCH  25  34
ENDBRANCH   5  25
TORSDOF 8
ENDMDL
MODEL 5
REMARK VINA RESULT:      -9.1      6.049      9.913
REMARK  8 active torsions:
REMARK  status: ('A' for Active; 'I' for Inactive)
REMARK    1  A    between atoms: O_2  and  C_3 
REMARK    2  A    between atoms: C_4  and  O_5 
REMARK    3  A    between atoms: C_13  and  C_14 
REMARK    4  A    between atoms: C_14  and  N_15 
REMARK    5  A    between atoms: C_19  and  C_20 
REMARK    6  A    between atoms: C_20  and  O_21 
REMARK    7  A    between atoms: C_20  and  C_22 
REMARK    8  A    between atoms: C_20  and  C_28 
ROOT
HETATM    1  N   UNL     1      43.465 -14.914   7.320  1.00  0.00    -0.064 N 
HETATM    2  H   UNL     1      42.660 -14.692   7.918  1.00  0.00     0.280 HD
HETATM    3  C   UNL     1      42.949 -14.837   5.895  1.00  0.00     0.236 C 
HETATM    4  C   UNL     1      41.910 -15.922   5.654  1.00  0.00     0.036 C 
HETATM    5  C   UNL     1      42.430 -17.351   5.942  1.00  0.00     0.033 C 
HETATM    6  C   UNL     1      42.898 -17.346   7.415  1.00  0.00     0.036 C 
HETATM    7  C   UNL     1      43.941 -16.285   7.732  1.00  0.00     0.236 C 
ENDROOT
BRANCH   1   8
HETATM    8  C   UNL     1      44.513 -13.821   7.600  1.00  0.00     0.313 C 
BRANCH   8   9
HETATM    9  C   UNL     1      43.928 -12.574   8.265  1.00  0.00     0.133 A 
HETATM   10  N   UNL     1      43.028 -11.845   7.535  1.00  0.00    -0.309 N 
HETATM   11  C   UNL     1      42.285 -10.826   8.072  1.00  0.00     0.259 A 
HETATM   12  H   UNL     1      42.797 -12.056   6.573  1.00  0.00     0.170 HD
HETATM   13  C   UNL     1      42.596 -10.467   9.464  1.00  0.00     0.064 A 
HETATM   14  O   UNL     1      41.393 -10.289   7.431  1.00  0.00    -0.267 OA
HETATM   15  C   UNL     1      43.586 -11.210  10.108  1.00  0.00     0.077 A 
HETATM   16  C   UNL     1      41.909  -9.437  10.112  1.00  0.00     0.059 A 
HETATM   17  C   UNL     1      43.905 -10.897  11.431  1.00  0.00     0.072 A 
HETATM   18  N   UNL     1      44.235 -12.296   9.490  1.00  0.00    -0.233 NA
HETATM   19  C   UNL     1      43.237  -9.862  12.098  1.00  0.00     0.103 A 
HETATM   20  C   UNL     1      42.222  -9.136  11.439  1.00  0.00     0.102 A 
BRANCH  19  21
HETATM   21  O   UNL     1      43.479  -9.508  13.403  1.00  0.00    -0.353 OA
HETATM   22  C   UNL     1      42.706 -10.144  14.412  1.00  0.00     0.210 C 
ENDBRANCH  19  21
BRANCH  20  23
HETATM   23  O   UNL     1      41.608  -8.156  12.176  1.00  0.00    -0.353 OA
HETATM   24  C   UNL     1      40.210  -8.270  12.405  1.00  0.00     0.210 C 
ENDBRANCH  20  23
ENDBRANCH   8   9
ENDBRANCH   1   8
BRANCH   5  25
HETATM   25  C   UNL     1      43.506 -17.880   4.903  1.00  0.00     0.116 C 
BRANCH  25  26
HETATM   26  O   UNL     1      44.697 -17.103   5.122  1.00  0.00    -0.380 OA
HETATM   27  H   UNL     1      44.751 -16.972   6.089  1.00  0.00     0.211 HD
ENDBRANCH  25  26
BRANCH  25  28
HETATM   28  C   UNL     1      43.860 -19.358   5.185  1.00  0.00    -0.019 A 
HETATM   29  C   UNL     1      43.587 -19.961   6.427  1.00  0.00     0.010 A 
HETATM   30  C   UNL     1      43.930 -21.293   6.682  1.00  0.00     0.001 A 
HETATM   31  C   UNL     1      44.566 -22.054   5.709  1.00  0.00     0.000 A 
HETATM   32  C   UNL     1      44.863 -21.484   4.478  1.00  0.00     0.001 A 
HETATM   33  C   UNL     1      44.518 -20.154   4.220  1.00  0.00     0.010 A 
ENDBRANCH  25  28
BRANCH  25  34
HETATM   34  C   UNL     1      43.075 -17.630   3.436  1.00  0.00    -0.019 A 
HETATM   35  C   UNL     1      43.995 -17.218   2.450  1.00  0.00     0.010 A 
HETATM   36  C   UNL     1      43.595 -16.974   1.131  1.00  0.00     0.001 A 
HETATM   37  C   UNL     1      42.267 -17.146   0.760  1.00  0.00     0.000 A 
HETATM   38  C   UNL     1      41.337 -17.561   1.705  1.00  0.00     0.001 A 
HETATM   39  C   UNL     1      41.735 -17.798   3.024  1.00  0.00     0.010 A 
ENDBRANCH  25  34
ENDBRANCH   5  25
TORSDOF 8
ENDMDL
MODEL 6
REMARK VINA RESULT:      -9.0      1.432      2.283
REMARK  8 active torsions:
REMARK  status: ('A' for Active; 'I' for Inactive)
REMARK    1  A    between atoms: O_2  and  C_3 
REMARK    2  A    between atoms: C_4  and  O_5 
REMARK    3  A    between atoms: C_13  and  C_14 
REMARK    4  A    between atoms: C_14  and  N_15 
REMARK    5  A    between atoms: C_19  and  C_20 
REMARK    6  A    between atoms: C_20  and  O_21 
REMARK    7  A    between atoms: C_20  and  C_22 
REMARK    8  A    between atoms: C_20  and  C_28 
ROOT
HETATM    1  N   UNL     1      42.048 -15.512   0.917  1.00  0.00    -0.064 N 
HETATM    2  H   UNL     1      42.717 -14.898   0.435  1.00  0.00     0.280 HD
HETATM    3  C   UNL     1      42.219 -15.220   2.397  1.00  0.00     0.236 C 
HETATM    4  C   UNL     1      43.608 -15.638   2.856  1.00  0.00     0.036 C 
HETATM    5  C   UNL     1      43.931 -17.126   2.578  1.00  0.00     0.033 C 
HETATM    6  C   UNL     1      43.766 -17.322   1.054  1.00  0.00     0.036 C 
HETATM    7  C   UNL     1      42.398 -16.924   0.520  1.00  0.00     0.236 C 
ENDROOT
BRANCH   1   8
HETATM    8  C   UNL     1      40.654 -15.090   0.418  1.00  0.00     0.313 C 
BRANCH   8   9
HETATM    9  C   UNL     1      40.617 -13.674  -0.159  1.00  0.00     0.133 A 
HETATM   10  N   UNL     1      39.992 -12.715   0.592  1.00  0.00    -0.309 N 
HETATM   11  C   UNL     1      40.055 -11.378   0.293  1.00  0.00     0.259 A 
HETATM   12  H   UNL     1      39.508 -12.918   1.456  1.00  0.00     0.170 HD
HETATM   13  C   UNL     1      40.733 -11.030  -0.964  1.00  0.00     0.064 A 
HETATM   14  O   UNL     1      39.605 -10.538   1.060  1.00  0.00    -0.267 OA
HETATM   15  C   UNL     1      41.270 -12.080  -1.710  1.00  0.00     0.077 A 
HETATM   16  C   UNL     1      40.848  -9.700  -1.376  1.00  0.00     0.059 A 
HETATM   17  C   UNL     1      41.923 -11.785  -2.908  1.00  0.00     0.072 A 
HETATM   18  N   UNL     1      41.224 -13.418  -1.272  1.00  0.00    -0.233 NA
HETATM   19  C   UNL     1      42.042 -10.460  -3.347  1.00  0.00     0.103 A 
HETATM   20  C   UNL     1      41.513  -9.408  -2.568  1.00  0.00     0.102 A 
BRANCH  19  21
HETATM   21  O   UNL     1      42.686 -10.088  -4.501  1.00  0.00    -0.353 OA
HETATM   22  C   UNL     1      41.966 -10.196  -5.722  1.00  0.00     0.210 C 
ENDBRANCH  19  21
BRANCH  20  23
HETATM   23  O   UNL     1      41.695  -8.143  -3.063  1.00  0.00    -0.353 OA
HETATM   24  C   UNL     1      42.657  -7.309  -2.431  1.00  0.00     0.210 C 
ENDBRANCH  20  23
ENDBRANCH   8   9
ENDBRANCH   1   8
BRANCH   5  25
HETATM   25  C   UNL     1      43.115 -18.152   3.473  1.00  0.00     0.116 C 
BRANCH  25  26
HETATM   26  O   UNL     1      41.745 -18.069   3.039  1.00  0.00    -0.380 OA
HETATM   27  H   UNL     1      41.260 -17.654   3.779  1.00  0.00     0.211 HD
ENDBRANCH  25  26
BRANCH  25  28
HETATM   28  C   UNL     1      43.592 -19.600   3.219  1.00  0.00    -0.019 A 
HETATM   29  C   UNL     1      44.412 -20.282   4.138  1.00  0.00     0.010 A 
HETATM   30  C   UNL     1      44.858 -21.585   3.891  1.00  0.00     0.001 A 
HETATM   31  C   UNL     1      44.508 -22.236   2.715  1.00  0.00     0.000 A 
HETATM   32  C   UNL     1      43.712 -21.586   1.780  1.00  0.00     0.001 A 
HETATM   33  C   UNL     1      43.263 -20.285   2.027  1.00  0.00     0.010 A 
ENDBRANCH  25  28
BRANCH  25  34
HETATM   34  C   UNL     1      43.131 -17.763   4.972  1.00  0.00    -0.019 A 
HETATM   35  C   UNL     1      44.335 -17.655   5.698  1.00  0.00     0.010 A 
HETATM   36  C   UNL     1      44.342 -17.322   7.058  1.00  0.00     0.001 A 
HETATM   37  C   UNL     1      43.148 -17.079   7.725  1.00  0.00     0.000 A 
HETATM   38  C   UNL     1      41.945 -17.167   7.035  1.00  0.00     0.001 A 
HETATM   39  C   UNL     1      41.937 -17.506   5.678  1.00  0.00     0.010 A 
ENDBRANCH  25  34
ENDBRANCH   5  25
TORSDOF 8
ENDMDL
MODEL 7
REMARK VINA RESULT:      -9.0      6.143     10.152
REMARK  8 active torsions:
REMARK  status: ('A' for Active; 'I' for Inactive)
REMARK    1  A    between atoms: O_2  and  C_3 
REMARK    2  A    between atoms: C_4  and  O_5 
REMARK    3  A    between atoms: C_13  and  C_14 
REMARK    4  A    between atoms: C_14  and  N_15 
REMARK    5  A    between atoms: C_19  and  C_20 
REMARK    6  A    between atoms: C_20  and  O_21 
REMARK    7  A    between atoms: C_20  and  C_22 
REMARK    8  A    between atoms: C_20  and  C_28 
ROOT
HETATM    1  N   UNL     1      43.351 -14.544   6.838  1.00  0.00    -0.064 N 
HETATM    2  H   UNL     1      42.875 -14.674   7.739  1.00  0.00     0.280 HD
HETATM    3  C   UNL     1      42.245 -14.440   5.803  1.00  0.00     0.236 C 
HETATM    4  C   UNL     1      41.486 -15.755   5.713  1.00  0.00     0.036 C 
HETATM    5  C   UNL     1      42.389 -16.969   5.388  1.00  0.00     0.033 C 
HETATM    6  C   UNL     1      43.457 -17.019   6.505  1.00  0.00     0.036 C 
HETATM    7  C   UNL     1      44.259 -15.735   6.655  1.00  0.00     0.236 C 
ENDROOT
BRANCH   1   8
HETATM    8  C   UNL     1      44.133 -13.224   6.962  1.00  0.00     0.313 C 
BRANCH   8   9
HETATM    9  C   UNL     1      43.922 -12.515   8.301  1.00  0.00     0.133 A 
HETATM   10  N   UNL     1      44.717 -12.911   9.344  1.00  0.00    -0.309 N 
HETATM   11  C   UNL     1      44.772 -12.234  10.535  1.00  0.00     0.259 A 
HETATM   12  H   UNL     1      45.370 -13.680   9.280  1.00  0.00     0.170 HD
HETATM   13  C   UNL     1      43.828 -11.117  10.686  1.00  0.00     0.064 A 
HETATM   14  O   UNL     1      45.593 -12.531  11.392  1.00  0.00    -0.267 OA
HETATM   15  C   UNL     1      42.996 -10.835   9.601  1.00  0.00     0.077 A 
HETATM   16  C   UNL     1      43.787 -10.363  11.861  1.00  0.00     0.059 A 
HETATM   17  C   UNL     1      42.089  -9.779   9.710  1.00  0.00     0.072 A 
HETATM   18  N   UNL     1      43.076 -11.541   8.386  1.00  0.00    -0.233 NA
HETATM   19  C   UNL     1      42.023  -9.015  10.882  1.00  0.00     0.103 A 
HETATM   20  C   UNL     1      42.889  -9.300  11.961  1.00  0.00     0.102 A 
BRANCH  19  21
HETATM   21  O   UNL     1      41.174  -7.950  11.058  1.00  0.00    -0.353 OA
HETATM   22  C   UNL     1      39.784  -8.225  11.162  1.00  0.00     0.210 C 
ENDBRANCH  19  21
BRANCH  20  23
HETATM   23  O   UNL     1      42.769  -8.487  13.059  1.00  0.00    -0.353 OA
HETATM   24  C   UNL     1      42.501  -9.096  14.314  1.00  0.00     0.210 C 
ENDBRANCH  20  23
ENDBRANCH   8   9
ENDBRANCH   1   8
BRANCH   5  25
HETATM   25  C   UNL     1      42.970 -16.980   3.911  1.00  0.00     0.116 C 
BRANCH  25  26
HETATM   26  O   UNL     1      44.142 -16.144   3.931  1.00  0.00    -0.380 OA
HETATM   27  H   UNL     1      43.821 -15.238   3.757  1.00  0.00     0.211 HD
ENDBRANCH  25  26
BRANCH  25  28
HETATM   28  C   UNL     1      43.423 -18.402   3.510  1.00  0.00    -0.019 A 
HETATM   29  C   UNL     1      44.229 -19.188   4.354  1.00  0.00     0.010 A 
HETATM   30  C   UNL     1      44.653 -20.466   3.975  1.00  0.00     0.001 A 
HETATM   31  C   UNL     1      44.294 -20.988   2.739  1.00  0.00     0.000 A 
HETATM   32  C   UNL     1      43.512 -20.232   1.876  1.00  0.00     0.001 A 
HETATM   33  C   UNL     1      43.085 -18.955   2.254  1.00  0.00     0.010 A 
ENDBRANCH  25  28
BRANCH  25  34
HETATM   34  C   UNL     1      41.989 -16.347   2.893  1.00  0.00    -0.019 A 
HETATM   35  C   UNL     1      42.366 -15.264   2.072  1.00  0.00     0.010 A 
HETATM   36  C   UNL     1      41.469 -14.683   1.169  1.00  0.00     0.001 A 
HETATM   37  C   UNL     1      40.175 -15.176   1.053  1.00  0.00     0.000 A 
HETATM   38  C   UNL     1      39.775 -16.249   1.841  1.00  0.00     0.001 A 
HETATM   39  C   UNL     1      40.670 -16.825   2.748  1.00  0.00     0.010 A 
ENDBRANCH  25  34
ENDBRANCH   5  25
TORSDOF 8
ENDMDL
MODEL 8
REMARK VINA RESULT:      -8.9      2.574      4.369
REMARK  8 active torsions:
REMARK  status: ('A' for Active; 'I' for Inactive)
REMARK    1  A    between atoms: O_2  and  C_3 
REMARK    2  A    between atoms: C_4  and  O_5 
REMARK    3  A    between atoms: C_13  and  C_14 
REMARK    4  A    between atoms: C_14  and  N_15 
REMARK    5  A    between atoms: C_19  and  C_20 
REMARK    6  A    between atoms: C_20  and  O_21 
REMARK    7  A    between atoms: C_20  and  C_22 
REMARK    8  A    between atoms: C_20  and  C_28 
ROOT
HETATM    1  N   UNL     1      40.983 -15.424   0.910  1.00  0.00    -0.064 N 
HETATM    2  H   UNL     1      39.972 -15.506   0.747  1.00  0.00     0.280 HD
HETATM    3  C   UNL     1      41.561 -16.792   0.593  1.00  0.00     0.236 C 
HETATM    4  C   UNL     1      41.039 -17.823   1.583  1.00  0.00     0.036 C 
HETATM    5  C   UNL     1      41.330 -17.466   3.060  1.00  0.00     0.033 C 
HETATM    6  C   UNL     1      40.680 -16.084   3.301  1.00  0.00     0.036 C 
HETATM    7  C   UNL     1      41.155 -14.999   2.347  1.00  0.00     0.236 C 
ENDROOT
BRANCH   1   8
HETATM    8  C   UNL     1      41.484 -14.358  -0.081  1.00  0.00     0.313 C 
BRANCH   8   9
HETATM    9  C   UNL     1      40.486 -14.049  -1.198  1.00  0.00     0.133 A 
HETATM   10  N   UNL     1      40.548 -14.831  -2.320  1.00  0.00    -0.309 N 
HETATM   11  C   UNL     1      39.596 -14.794  -3.306  1.00  0.00     0.259 A 
HETATM   12  H   UNL     1      41.255 -15.539  -2.461  1.00  0.00     0.170 HD
HETATM   13  C   UNL     1      38.554 -13.767  -3.157  1.00  0.00     0.064 A 
HETATM   14  O   UNL     1      39.606 -15.603  -4.224  1.00  0.00    -0.267 OA
HETATM   15  C   UNL     1      38.615 -12.957  -2.023  1.00  0.00     0.077 A 
HETATM   16  C   UNL     1      37.538 -13.630  -4.107  1.00  0.00     0.059 A 
HETATM   17  C   UNL     1      37.639 -11.973  -1.850  1.00  0.00     0.072 A 
HETATM   18  N   UNL     1      39.590 -13.132  -1.023  1.00  0.00    -0.233 NA
HETATM   19  C   UNL     1      36.617 -11.810  -2.793  1.00  0.00     0.103 A 
HETATM   20  C   UNL     1      36.558 -12.654  -3.923  1.00  0.00     0.102 A 
BRANCH  19  21
HETATM   21  O   UNL     1      35.612 -10.881  -2.683  1.00  0.00    -0.353 OA
HETATM   22  C   UNL     1      35.937  -9.523  -2.952  1.00  0.00     0.210 C 
ENDBRANCH  19  21
BRANCH  20  23
HETATM   23  O   UNL     1      35.511 -12.436  -4.782  1.00  0.00    -0.353 OA
HETATM   24  C   UNL     1      35.411 -13.260  -5.936  1.00  0.00     0.210 C 
ENDBRANCH  20  23
ENDBRANCH   8   9
ENDBRANCH   1   8
BRANCH   5  25
HETATM   25  C   UNL     1      42.861 -17.562   3.469  1.00  0.00     0.116 C 
BRANCH  25  26
HETATM   26  O   UNL     1      43.567 -16.647   2.612  1.00  0.00    -0.380 OA
HETATM   27  H   UNL     1      44.036 -16.034   3.212  1.00  0.00     0.211 HD
ENDBRANCH  25  26
BRANCH  25  28
HETATM   28  C   UNL     1      43.069 -17.086   4.925  1.00  0.00    -0.019 A 
HETATM   29  C   UNL     1      43.912 -16.003   5.237  1.00  0.00     0.010 A 
HETATM   30  C   UNL     1      44.112 -15.592   6.559  1.00  0.00     0.001 A 
HETATM   31  C   UNL     1      43.487 -16.259   7.605  1.00  0.00     0.000 A 
HETATM   32  C   UNL     1      42.660 -17.341   7.332  1.00  0.00     0.001 A 
HETATM   33  C   UNL     1      42.456 -17.751   6.012  1.00  0.00     0.010 A 
ENDBRANCH  25  28
BRANCH  25  34
HETATM   34  C   UNL     1      43.450 -18.969   3.202  1.00  0.00    -0.019 A 
HETATM   35  C   UNL     1      44.357 -19.577   4.094  1.00  0.00     0.010 A 
HETATM   36  C   UNL     1      44.901 -20.840   3.837  1.00  0.00     0.001 A 
HETATM   37  C   UNL     1      44.547 -21.534   2.686  1.00  0.00     0.000 A 
HETATM   38  C   UNL     1      43.647 -20.966   1.791  1.00  0.00     0.001 A 
HETATM   39  C   UNL     1      43.108 -19.702   2.045  1.00  0.00     0.010 A 
ENDBRANCH  25  34
ENDBRANCH   5  25
TORSDOF 8
ENDMDL
MODEL 9
REMARK VINA RESULT:      -8.7      4.363      7.308
REMARK  8 active torsions:
REMARK  status: ('A' for Active; 'I' for Inactive)
REMARK    1  A    between atoms: O_2  and  C_3 
REMARK    2  A    between atoms: C_4  and  O_5 
REMARK    3  A    between atoms: C_13  and  C_14 
REMARK    4  A    between atoms: C_14  and  N_15 
REMARK    5  A    between atoms: C_19  and  C_20 
REMARK    6  A    between atoms: C_20  and  O_21 
REMARK    7  A    between atoms: C_20  and  C_22 
REMARK    8  A    between atoms: C_20  and  C_28 
ROOT
HETATM    1  N   UNL     1      41.420 -14.729   2.103  1.00  0.00    -0.064 N 
HETATM    2  H   UNL     1      40.477 -14.729   1.696  1.00  0.00     0.280 HD
HETATM    3  C   UNL     1      42.255 -15.616   1.198  1.00  0.00     0.236 C 
HETATM    4  C   UNL     1      41.750 -17.050   1.259  1.00  0.00     0.036 C 
HETATM    5  C   UNL     1      41.731 -17.639   2.690  1.00  0.00     0.033 C 
HETATM    6  C   UNL     1      40.835 -16.698   3.527  1.00  0.00     0.036 C 
HETATM    7  C   UNL     1      41.280 -15.243   3.514  1.00  0.00     0.236 C 
ENDROOT
BRANCH   1   8
HETATM    8  C   UNL     1      41.900 -13.267   2.056  1.00  0.00     0.313 C 
BRANCH   8   9
HETATM    9  C   UNL     1      41.337 -12.406   3.188  1.00  0.00     0.133 A 
HETATM   10  N   UNL     1      40.085 -11.882   3.005  1.00  0.00    -0.309 N 
HETATM   11  C   UNL     1      39.384 -11.261   4.007  1.00  0.00     0.259 A 
HETATM   12  H   UNL     1      39.564 -11.984   2.145  1.00  0.00     0.170 HD
HETATM   13  C   UNL     1      40.105 -11.071   5.275  1.00  0.00     0.064 A 
HETATM   14  O   UNL     1      38.217 -10.931   3.850  1.00  0.00    -0.267 OA
HETATM   15  C   UNL     1      41.409 -11.564   5.347  1.00  0.00     0.077 A 
HETATM   16  C   UNL     1      39.494 -10.441   6.362  1.00  0.00     0.059 A 
HETATM   17  C   UNL     1      42.121 -11.402   6.536  1.00  0.00     0.072 A 
HETATM   18  N   UNL     1      42.010 -12.263   4.283  1.00  0.00    -0.233 NA
HETATM   19  C   UNL     1      41.534 -10.765   7.637  1.00  0.00     0.103 A 
HETATM   20  C   UNL     1      40.205 -10.294   7.554  1.00  0.00     0.102 A 
BRANCH  19  21
HETATM   21  O   UNL     1      42.161 -10.587   8.846  1.00  0.00    -0.353 OA
HETATM   22  C   UNL     1      43.423 -11.213   9.033  1.00  0.00     0.210 C 
ENDBRANCH  19  21
BRANCH  20  23
HETATM   23  O   UNL     1      39.705  -9.704   8.686  1.00  0.00    -0.353 OA
HETATM   24  C   UNL     1      38.574 -10.299   9.306  1.00  0.00     0.210 C 
ENDBRANCH  20  23
ENDBRANCH   8   9
ENDBRANCH   1   8
BRANCH   5  25
HETATM   25  C   UNL     1      43.168 -17.914   3.306  1.00  0.00     0.116 C 
BRANCH  25  26
HETATM   26  O   UNL     1      44.088 -17.084   2.574  1.00  0.00    -0.380 OA
HETATM   27  H   UNL     1      44.334 -16.362   3.186  1.00  0.00     0.211 HD
ENDBRANCH  25  26
BRANCH  25  28
HETATM   28  C   UNL     1      43.222 -17.471   4.786  1.00  0.00    -0.019 A 
HETATM   29  C   UNL     1      44.112 -16.475   5.229  1.00  0.00     0.010 A 
HETATM   30  C   UNL     1      44.171 -16.095   6.574  1.00  0.00     0.001 A 
HETATM   31  C   UNL     1      43.353 -16.709   7.514  1.00  0.00     0.000 A 
HETATM   32  C   UNL     1      42.474 -17.706   7.113  1.00  0.00     0.001 A 
HETATM   33  C   UNL     1      42.412 -18.085   5.768  1.00  0.00     0.010 A 
ENDBRANCH  25  28
BRANCH  25  34
HETATM   34  C   UNL     1      43.624 -19.379   3.095  1.00  0.00    -0.019 A 
HETATM   35  C   UNL     1      43.268 -20.109   1.942  1.00  0.00     0.010 A 
HETATM   36  C   UNL     1      43.666 -21.439   1.766  1.00  0.00     0.001 A 
HETATM   37  C   UNL     1      44.440 -22.071   2.731  1.00  0.00     0.000 A 
HETATM   38  C   UNL     1      44.816 -21.376   3.874  1.00  0.00     0.001 A 
HETATM   39  C   UNL     1      44.413 -20.049   4.053  1.00  0.00     0.010 A 
ENDBRANCH  25  34
ENDBRANCH   5  25
TORSDOF 8
ENDMDL
MODEL 10
REMARK VINA RESULT:      -8.6      2.438      2.839
REMARK  8 active torsions:
REMARK  status: ('A' for Active; 'I' for Inactive)
REMARK    1  A    between atoms: O_2  and  C_3 
REMARK    2  A    between atoms: C_4  and  O_5 
REMARK    3  A    between atoms: C_13  and  C_14 
REMARK    4  A    between atoms: C_14  and  N_15 
REMARK    5  A    between atoms: C_19  and  C_20 
REMARK    6  A    between atoms: C_20  and  O_21 
REMARK    7  A    between atoms: C_20  and  C_22 
REMARK    8  A    between atoms: C_20  and  C_28 
ROOT
HETATM    1  N   UNL     1      41.680 -15.067   1.605  1.00  0.00    -0.064 N 
HETATM    2  H   UNL     1      42.252 -14.480   0.986  1.00  0.00     0.280 HD
HETATM    3  C   UNL     1      42.361 -15.015   2.961  1.00  0.00     0.236 C 
HETATM    4  C   UNL     1      43.734 -15.667   2.882  1.00  0.00     0.036 C 
HETATM    5  C   UNL     1      43.697 -17.128   2.374  1.00  0.00     0.033 C 
HETATM    6  C   UNL     1      43.024 -17.080   0.984  1.00  0.00     0.036 C 
HETATM    7  C   UNL     1      41.643 -16.441   0.983  1.00  0.00     0.236 C 
ENDROOT
BRANCH   1   8
HETATM    8  C   UNL     1      40.291 -14.405   1.648  1.00  0.00     0.313 C 
BRANCH   8   9
HETATM    9  C   UNL     1      39.750 -14.036   0.265  1.00  0.00     0.133 A 
HETATM   10  N   UNL     1      40.242 -14.739  -0.801  1.00  0.00    -0.309 N 
HETATM   11  C   UNL     1      39.709 -14.650  -2.062  1.00  0.00     0.259 A 
HETATM   12  H   UNL     1      40.980 -15.425  -0.718  1.00  0.00     0.170 HD
HETATM   13  C   UNL     1      38.644 -13.652  -2.241  1.00  0.00     0.064 A 
HETATM   14  O   UNL     1      40.081 -15.394  -2.958  1.00  0.00    -0.267 OA
HETATM   15  C   UNL     1      38.261 -12.919  -1.116  1.00  0.00     0.077 A 
HETATM   16  C   UNL     1      38.035 -13.466  -3.484  1.00  0.00     0.059 A 
HETATM   17  C   UNL     1      37.251 -11.965  -1.251  1.00  0.00     0.072 A 
HETATM   18  N   UNL     1      38.817 -13.147   0.157  1.00  0.00    -0.233 NA
HETATM   19  C   UNL     1      36.632 -11.753  -2.490  1.00  0.00     0.103 A 
HETATM   20  C   UNL     1      37.016 -12.519  -3.612  1.00  0.00     0.102 A 
BRANCH  19  21
HETATM   21  O   UNL     1      35.619 -10.849  -2.698  1.00  0.00    -0.353 OA
HETATM   22  C   UNL     1      35.891  -9.481  -2.426  1.00  0.00     0.210 C 
ENDBRANCH  19  21
BRANCH  20  23
HETATM   23  O   UNL     1      36.342 -12.260  -4.777  1.00  0.00    -0.353 OA
HETATM   24  C   UNL     1      35.708 -13.347  -5.438  1.00  0.00     0.210 C 
ENDBRANCH  20  23
ENDBRANCH   8   9
ENDBRANCH   1   8
BRANCH   5  25
HETATM   25  C   UNL     1      43.050 -18.161   3.392  1.00  0.00     0.116 C 
BRANCH  25  26
HETATM   26  O   UNL     1      41.639 -18.176   3.111  1.00  0.00    -0.380 OA
HETATM   27  H   UNL     1      41.322 -17.272   3.306  1.00  0.00     0.211 HD
ENDBRANCH  25  26
BRANCH  25  28
HETATM   28  C   UNL     1      43.587 -19.588   3.139  1.00  0.00    -0.019 A 
HETATM   29  C   UNL     1      43.251 -20.312   1.980  1.00  0.00     0.010 A 
HETATM   30  C   UNL     1      43.724 -21.612   1.769  1.00  0.00     0.001 A 
HETATM   31  C   UNL     1      44.534 -22.227   2.715  1.00  0.00     0.000 A 
HETATM   32  C   UNL     1      44.872 -21.546   3.877  1.00  0.00     0.001 A 
HETATM   33  C   UNL     1      44.403 -20.246   4.088  1.00  0.00     0.010 A 
ENDBRANCH  25  28
BRANCH  25  34
HETATM   34  C   UNL     1      43.206 -17.707   4.864  1.00  0.00    -0.019 A 
HETATM   35  C   UNL     1      44.473 -17.512   5.452  1.00  0.00     0.010 A 
HETATM   36  C   UNL     1      44.608 -17.122   6.789  1.00  0.00     0.001 A 
HETATM   37  C   UNL     1      43.481 -16.903   7.571  1.00  0.00     0.000 A 
HETATM   38  C   UNL     1      42.217 -17.076   7.019  1.00  0.00     0.001 A 
HETATM   39  C   UNL     1      42.082 -17.473   5.685  1.00  0.00     0.010 A 
ENDBRANCH  25  34
ENDBRANCH   5  25
TORSDOF 8
ENDMDL
