MODEL 1
REMARK VINA RESULT:      -8.8      0.000      0.000
REMARK  4 active torsions:
REMARK  status: ('A' for Active; 'I' for Inactive)
REMARK    1  A    between atoms: C_6  and  N_7 
REMARK       I    between atoms: N_7  and  C_8 
REMARK    2  A    between atoms: C_8  and  C_9 
REMARK    3  A    between atoms: C_10  and  C_11 
REMARK    4  A    between atoms: C_14  and  O_15 
ROOT
HETATM    1  C   UNL     1      42.541 -14.842   4.749  1.00  0.00     0.125 C 
HETATM    2  C   UNL     1      41.155 -14.353   4.244  1.00  0.00     0.160 C 
HETATM    3  N   UNL     1      40.675 -13.181   4.964  1.00  0.00    -0.231 N 
HETATM    4  C   UNL     1      41.354 -12.547   5.965  1.00  0.00     0.200 A 
HETATM    5  N   UNL     1      42.558 -12.994   6.374  1.00  0.00    -0.256 NA
HETATM    6  C   UNL     1      42.800 -14.434   6.220  1.00  0.00     0.074 C 
HETATM    7  C   UNL     1      44.247 -14.713   6.638  1.00  0.00     0.027 C 
HETATM    8  N   UNL     1      39.447 -12.653   4.796  1.00  0.00    -0.162 NA
HETATM    9  C   UNL     1      39.488 -11.646   5.677  1.00  0.00     0.258 A 
HETATM   10  N   UNL     1      40.639 -11.548   6.412  1.00  0.00    -0.210 NA
HETATM   11  H   UNL     1      42.848 -12.609   7.272  1.00  0.00     0.131 HD
ENDROOT
BRANCH   1  12
HETATM   12  C   UNL     1      42.582 -16.358   4.623  1.00  0.00     0.230 C 
HETATM   13  N   UNL     1      43.537 -16.819   3.733  1.00  0.00    -0.326 N 
HETATM   14  H   UNL     1      43.823 -16.178   3.001  1.00  0.00     0.169 HD
HETATM   15  O   UNL     1      41.778 -17.061   5.229  1.00  0.00    -0.273 OA
BRANCH  13  16
HETATM   16  C   UNL     1      43.829 -18.181   3.485  1.00  0.00     0.040 A 
HETATM   17  C   UNL     1      44.470 -19.045   4.390  1.00  0.00    -0.035 A 
HETATM   18  C   UNL     1      44.646 -20.398   4.032  1.00  0.00     0.015 A 
HETATM   19  C   UNL     1      45.042 -18.616   5.714  1.00  0.00     0.050 C 
HETATM   20  C   UNL     1      44.263 -20.881   2.777  1.00  0.00    -0.061 A 
HETATM   21  C   UNL     1      44.435 -22.330   2.430  1.00  0.00     0.048 C 
HETATM   22  C   UNL     1      43.682 -20.000   1.866  1.00  0.00     0.009 A 
HETATM   23  C   UNL     1      43.483 -18.660   2.210  1.00  0.00     0.030 A 
ENDBRANCH  13  16
ENDBRANCH   1  12
BRANCH   2  24
HETATM   24  C   UNL     1      41.194 -14.058   2.744  1.00  0.00    -0.032 A 
HETATM   25  C   UNL     1      40.471 -14.855   1.847  1.00  0.00     0.012 A 
HETATM   26  C   UNL     1      40.529 -14.603   0.474  1.00  0.00     0.037 A 
HETATM   27  C   UNL     1      41.300 -13.552  -0.031  1.00  0.00     0.068 A 
HETATM   28  C   UNL     1      42.011 -12.745   0.855  1.00  0.00     0.037 A 
HETATM   29  C   UNL     1      41.955 -12.993   2.231  1.00  0.00     0.012 A 
BRANCH  27  30
HETATM   30  O   UNL     1      41.271 -13.418  -1.391  1.00  0.00    -0.356 OA
HETATM   31  C   UNL     1      40.777 -14.526  -2.135  1.00  0.00     0.210 C 
ENDBRANCH  27  30
ENDBRANCH   2  24
TORSDOF 4
ENDMDL
MODEL 2
REMARK VINA RESULT:      -8.6      0.388      1.338
REMARK  4 active torsions:
REMARK  status: ('A' for Active; 'I' for Inactive)
REMARK    1  A    between atoms: C_6  and  N_7 
REMARK       I    between atoms: N_7  and  C_8 
REMARK    2  A    between atoms: C_8  and  C_9 
REMARK    3  A    between atoms: C_10  and  C_11 
REMARK    4  A    between atoms: C_14  and  O_15 
ROOT
HETATM    1  C   UNL     1      42.632 -15.014   4.768  1.00  0.00     0.125 C 
HETATM    2  C   UNL     1      41.272 -14.446   4.273  1.00  0.00     0.160 C 
HETATM    3  N   UNL     1      40.854 -13.261   5.011  1.00  0.00    -0.231 N 
HETATM    4  C   UNL     1      41.566 -12.678   6.020  1.00  0.00     0.200 A 
HETATM    5  N   UNL     1      42.745 -13.193   6.420  1.00  0.00    -0.256 NA
HETATM    6  C   UNL     1      42.913 -14.641   6.244  1.00  0.00     0.074 C 
HETATM    7  C   UNL     1      44.344 -15.001   6.655  1.00  0.00     0.027 C 
HETATM    8  N   UNL     1      39.654 -12.668   4.853  1.00  0.00    -0.162 NA
HETATM    9  C   UNL     1      39.749 -11.678   5.748  1.00  0.00     0.258 A 
HETATM   10  N   UNL     1      40.904 -11.650   6.483  1.00  0.00    -0.210 NA
HETATM   11  H   UNL     1      43.057 -12.836   7.323  1.00  0.00     0.131 HD
ENDROOT
BRANCH   1  12
HETATM   12  C   UNL     1      42.594 -16.528   4.620  1.00  0.00     0.230 C 
HETATM   13  N   UNL     1      43.513 -17.023   3.711  1.00  0.00    -0.326 N 
HETATM   14  H   UNL     1      43.824 -16.386   2.985  1.00  0.00     0.169 HD
HETATM   15  O   UNL     1      41.762 -17.198   5.225  1.00  0.00    -0.273 OA
BRANCH  13  16
HETATM   16  C   UNL     1      43.733 -18.395   3.440  1.00  0.00     0.040 A 
HETATM   17  C   UNL     1      43.232 -19.085   2.322  1.00  0.00    -0.035 A 
HETATM   18  C   UNL     1      43.579 -20.440   2.148  1.00  0.00     0.015 A 
HETATM   19  C   UNL     1      42.294 -18.491   1.307  1.00  0.00     0.050 C 
HETATM   20  C   UNL     1      44.347 -21.130   3.092  1.00  0.00    -0.061 A 
HETATM   21  C   UNL     1      44.725 -22.564   2.871  1.00  0.00     0.048 C 
HETATM   22  C   UNL     1      44.787 -20.449   4.227  1.00  0.00     0.009 A 
HETATM   23  C   UNL     1      44.468 -19.100   4.407  1.00  0.00     0.030 A 
ENDBRANCH  13  16
ENDBRANCH   1  12
BRANCH   2  24
HETATM   24  C   UNL     1      41.324 -14.132   2.777  1.00  0.00    -0.032 A 
HETATM   25  C   UNL     1      40.677 -14.964   1.856  1.00  0.00     0.012 A 
HETATM   26  C   UNL     1      40.748 -14.692   0.487  1.00  0.00     0.037 A 
HETATM   27  C   UNL     1      41.458 -13.587   0.011  1.00  0.00     0.068 A 
HETATM   28  C   UNL     1      42.094 -12.745   0.921  1.00  0.00     0.037 A 
HETATM   29  C   UNL     1      42.024 -13.013   2.293  1.00  0.00     0.012 A 
BRANCH  27  30
HETATM   30  O   UNL     1      41.450 -13.440  -1.349  1.00  0.00    -0.356 OA
HETATM   31  C   UNL     1      40.714 -14.402  -2.095  1.00  0.00     0.210 C 
ENDBRANCH  27  30
ENDBRANCH   2  24
TORSDOF 4
ENDMDL
MODEL 3
REMARK VINA RESULT:      -8.0      3.267      5.195
REMARK  4 active torsions:
REMARK  status: ('A' for Active; 'I' for Inactive)
REMARK    1  A    between atoms: C_6  and  N_7 
REMARK       I    between atoms: N_7  and  C_8 
REMARK    2  A    between atoms: C_8  and  C_9 
REMARK    3  A    between atoms: C_10  and  C_11 
REMARK    4  A    between atoms: C_14  and  O_15 
ROOT
HETATM    1  C   UNL     1      40.976 -14.596   0.156  1.00  0.00     0.125 C 
HETATM    2  C   UNL     1      41.645 -13.363   0.824  1.00  0.00     0.160 C 
HETATM    3  N   UNL     1      42.122 -12.386  -0.146  1.00  0.00    -0.231 N 
HETATM    4  C   UNL     1      41.993 -12.503  -1.500  1.00  0.00     0.200 A 
HETATM    5  N   UNL     1      41.400 -13.583  -2.046  1.00  0.00    -0.256 NA
HETATM    6  C   UNL     1      41.499 -14.832  -1.281  1.00  0.00     0.074 C 
HETATM    7  C   UNL     1      40.678 -15.897  -2.014  1.00  0.00     0.027 C 
HETATM    8  N   UNL     1      42.849 -11.300   0.183  1.00  0.00    -0.162 NA
HETATM    9  C   UNL     1      43.052 -10.763  -1.025  1.00  0.00     0.258 A 
HETATM   10  N   UNL     1      42.543 -11.470  -2.082  1.00  0.00    -0.210 NA
HETATM   11  H   UNL     1      41.580 -13.682  -3.045  1.00  0.00     0.131 HD
ENDROOT
BRANCH   1  12
HETATM   12  C   UNL     1      41.269 -15.817   1.016  1.00  0.00     0.230 C 
HETATM   13  N   UNL     1      42.618 -16.033   1.238  1.00  0.00    -0.326 N 
HETATM   14  H   UNL     1      43.258 -15.653   0.549  1.00  0.00     0.169 HD
HETATM   15  O   UNL     1      40.359 -16.547   1.401  1.00  0.00    -0.273 OA
BRANCH  13  16
HETATM   16  C   UNL     1      43.155 -17.053   2.059  1.00  0.00     0.040 A 
HETATM   17  C   UNL     1      43.360 -16.946   3.446  1.00  0.00    -0.035 A 
HETATM   18  C   UNL     1      43.850 -18.065   4.150  1.00  0.00     0.015 A 
HETATM   19  C   UNL     1      43.142 -15.688   4.242  1.00  0.00     0.050 C 
HETATM   20  C   UNL     1      44.202 -19.249   3.494  1.00  0.00    -0.061 A 
HETATM   21  C   UNL     1      44.695 -20.435   4.269  1.00  0.00     0.048 C 
HETATM   22  C   UNL     1      44.050 -19.321   2.110  1.00  0.00     0.009 A 
HETATM   23  C   UNL     1      43.548 -18.228   1.398  1.00  0.00     0.030 A 
ENDBRANCH  13  16
ENDBRANCH   1  12
BRANCH   2  24
HETATM   24  C   UNL     1      40.689 -12.689   1.809  1.00  0.00    -0.032 A 
HETATM   25  C   UNL     1      39.422 -12.266   1.387  1.00  0.00     0.012 A 
HETATM   26  C   UNL     1      38.559 -11.624   2.280  1.00  0.00     0.037 A 
HETATM   27  C   UNL     1      38.937 -11.398   3.606  1.00  0.00     0.068 A 
HETATM   28  C   UNL     1      40.190 -11.828   4.038  1.00  0.00     0.037 A 
HETATM   29  C   UNL     1      41.057 -12.472   3.148  1.00  0.00     0.012 A 
BRANCH  27  30
HETATM   30  O   UNL     1      38.000 -10.758   4.370  1.00  0.00    -0.356 OA
HETATM   31  C   UNL     1      37.624  -9.449   3.962  1.00  0.00     0.210 C 
ENDBRANCH  27  30
ENDBRANCH   2  24
TORSDOF 4
ENDMDL
MODEL 4
REMARK VINA RESULT:      -7.9      1.856      2.456
REMARK  4 active torsions:
REMARK  status: ('A' for Active; 'I' for Inactive)
REMARK    1  A    between atoms: C_6  and  N_7 
REMARK       I    between atoms: N_7  and  C_8 
REMARK    2  A    between atoms: C_8  and  C_9 
REMARK    3  A    between atoms: C_10  and  C_11 
REMARK    4  A    between atoms: C_14  and  O_15 
ROOT
HETATM    1  C   UNL     1      41.138 -14.204   2.965  1.00  0.00     0.125 C 
HETATM    2  C   UNL     1      40.132 -13.817   1.846  1.00  0.00     0.160 C 
HETATM    3  N   UNL     1      39.275 -12.700   2.220  1.00  0.00    -0.231 N 
HETATM    4  C   UNL     1      39.338 -12.032   3.410  1.00  0.00     0.200 A 
HETATM    5  N   UNL     1      40.228 -12.390   4.356  1.00  0.00    -0.256 NA
HETATM    6  C   UNL     1      40.626 -13.803   4.370  1.00  0.00     0.074 C 
HETATM    7  C   UNL     1      41.711 -13.974   5.438  1.00  0.00     0.027 C 
HETATM    8  N   UNL     1      38.242 -12.268   1.471  1.00  0.00    -0.162 NA
HETATM    9  C   UNL     1      37.777 -11.276   2.240  1.00  0.00     0.258 A 
HETATM   10  N   UNL     1      38.421 -11.101   3.436  1.00  0.00    -0.210 NA
HETATM   11  H   UNL     1      40.020 -11.999   5.275  1.00  0.00     0.131 HD
ENDROOT
BRANCH   1  12
HETATM   12  C   UNL     1      41.353 -15.710   2.908  1.00  0.00     0.230 C 
HETATM   13  N   UNL     1      42.684 -16.082   2.835  1.00  0.00    -0.326 N 
HETATM   14  H   UNL     1      43.326 -15.399   2.448  1.00  0.00     0.169 HD
HETATM   15  O   UNL     1      40.397 -16.479   2.869  1.00  0.00    -0.273 OA
BRANCH  13  16
HETATM   16  C   UNL     1      43.158 -17.415   2.843  1.00  0.00     0.040 A 
HETATM   17  C   UNL     1      43.647 -18.089   3.976  1.00  0.00    -0.035 A 
HETATM   18  C   UNL     1      44.034 -19.439   3.851  1.00  0.00     0.015 A 
HETATM   19  C   UNL     1      43.842 -17.452   5.325  1.00  0.00     0.050 C 
HETATM   20  C   UNL     1      44.010 -20.099   2.618  1.00  0.00    -0.061 A 
HETATM   21  C   UNL     1      44.401 -21.543   2.515  1.00  0.00     0.048 C 
HETATM   22  C   UNL     1      43.580 -19.400   1.490  1.00  0.00     0.009 A 
HETATM   23  C   UNL     1      43.175 -18.068   1.599  1.00  0.00     0.030 A 
ENDBRANCH  13  16
ENDBRANCH   1  12
BRANCH   2  24
HETATM   24  C   UNL     1      40.864 -13.493   0.542  1.00  0.00    -0.032 A 
HETATM   25  C   UNL     1      40.712 -14.320  -0.578  1.00  0.00     0.012 A 
HETATM   26  C   UNL     1      41.403 -14.040  -1.761  1.00  0.00     0.037 A 
HETATM   27  C   UNL     1      42.249 -12.931  -1.851  1.00  0.00     0.068 A 
HETATM   28  C   UNL     1      42.396 -12.096  -0.746  1.00  0.00     0.037 A 
HETATM   29  C   UNL     1      41.705 -12.372   0.439  1.00  0.00     0.012 A 
BRANCH  27  30
HETATM   30  O   UNL     1      42.866 -12.776  -3.062  1.00  0.00    -0.356 OA
HETATM   31  C   UNL     1      42.417 -11.701  -3.879  1.00  0.00     0.210 C 
ENDBRANCH  27  30
ENDBRANCH   2  24
TORSDOF 4
ENDMDL
MODEL 5
REMARK VINA RESULT:      -7.8      2.847      6.663
REMARK  4 active torsions:
REMARK  status: ('A' for Active; 'I' for Inactive)
REMARK    1  A    between atoms: C_6  and  N_7 
REMARK       I    between atoms: N_7  and  C_8 
REMARK    2  A    between atoms: C_8  and  C_9 
REMARK    3  A    between atoms: C_10  and  C_11 
REMARK    4  A    between atoms: C_14  and  O_15 
ROOT
HETATM    1  C   UNL     1      42.273 -16.218   2.942  1.00  0.00     0.125 C 
HETATM    2  C   UNL     1      41.602 -16.269   4.342  1.00  0.00     0.160 C 
HETATM    3  N   UNL     1      42.347 -17.082   5.295  1.00  0.00    -0.231 N 
HETATM    4  C   UNL     1      43.521 -17.725   5.023  1.00  0.00     0.200 A 
HETATM    5  N   UNL     1      44.079 -17.653   3.799  1.00  0.00    -0.256 NA
HETATM    6  C   UNL     1      43.154 -17.463   2.675  1.00  0.00     0.074 C 
HETATM    7  C   UNL     1      43.989 -17.302   1.401  1.00  0.00     0.027 C 
HETATM    8  N   UNL     1      41.901 -17.382   6.531  1.00  0.00    -0.162 NA
HETATM    9  C   UNL     1      42.904 -18.146   6.977  1.00  0.00     0.258 A 
HETATM   10  N   UNL     1      43.915 -18.380   6.083  1.00  0.00    -0.210 NA
HETATM   11  H   UNL     1      44.799 -18.359   3.641  1.00  0.00     0.131 HD
ENDROOT
BRANCH   1  12
HETATM   12  C   UNL     1      41.173 -16.134   1.893  1.00  0.00     0.230 C 
HETATM   13  N   UNL     1      41.182 -14.955   1.167  1.00  0.00    -0.326 N 
HETATM   14  H   UNL     1      41.609 -14.150   1.613  1.00  0.00     0.169 HD
HETATM   15  O   UNL     1      40.339 -17.029   1.784  1.00  0.00    -0.273 OA
BRANCH  13  16
HETATM   16  C   UNL     1      40.316 -14.656   0.090  1.00  0.00     0.040 A 
HETATM   17  C   UNL     1      39.043 -14.072   0.219  1.00  0.00    -0.035 A 
HETATM   18  C   UNL     1      38.310 -13.775  -0.949  1.00  0.00     0.015 A 
HETATM   19  C   UNL     1      38.369 -13.785   1.532  1.00  0.00     0.050 C 
HETATM   20  C   UNL     1      38.785 -14.109  -2.221  1.00  0.00    -0.061 A 
HETATM   21  C   UNL     1      37.999 -13.758  -3.448  1.00  0.00     0.048 C 
HETATM   22  C   UNL     1      40.023 -14.742  -2.330  1.00  0.00     0.009 A 
HETATM   23  C   UNL     1      40.772 -15.027  -1.186  1.00  0.00     0.030 A 
ENDBRANCH  13  16
ENDBRANCH   1  12
BRANCH   2  24
HETATM   24  C   UNL     1      41.406 -14.861   4.906  1.00  0.00    -0.032 A 
HETATM   25  C   UNL     1      42.515 -14.065   5.221  1.00  0.00     0.012 A 
HETATM   26  C   UNL     1      42.336 -12.788   5.762  1.00  0.00     0.037 A 
HETATM   27  C   UNL     1      41.055 -12.280   5.993  1.00  0.00     0.068 A 
HETATM   28  C   UNL     1      39.947 -13.059   5.670  1.00  0.00     0.037 A 
HETATM   29  C   UNL     1      40.120 -14.337   5.127  1.00  0.00     0.012 A 
BRANCH  27  30
HETATM   30  O   UNL     1      41.024 -11.022   6.529  1.00  0.00    -0.356 OA
HETATM   31  C   UNL     1      41.885 -10.772   7.632  1.00  0.00     0.210 C 
ENDBRANCH  27  30
ENDBRANCH   2  24
TORSDOF 4
ENDMDL
MODEL 6
REMARK VINA RESULT:      -7.8      1.753      2.421
REMARK  4 active torsions:
REMARK  status: ('A' for Active; 'I' for Inactive)
REMARK    1  A    between atoms: C_6  and  N_7 
REMARK       I    between atoms: N_7  and  C_8 
REMARK    2  A    between atoms: C_8  and  C_9 
REMARK    3  A    between atoms: C_10  and  C_11 
REMARK    4  A    between atoms: C_14  and  O_15 
ROOT
HETATM    1  C   UNL     1      42.937 -14.797   2.450  1.00  0.00     0.125 C 
HETATM    2  C   UNL     1      41.507 -14.912   1.854  1.00  0.00     0.160 C 
HETATM    3  N   UNL     1      40.541 -14.061   2.536  1.00  0.00    -0.231 N 
HETATM    4  C   UNL     1      40.834 -13.227   3.577  1.00  0.00     0.200 A 
HETATM    5  N   UNL     1      42.087 -13.146   4.065  1.00  0.00    -0.256 NA
HETATM    6  C   UNL     1      42.912 -14.352   3.933  1.00  0.00     0.074 C 
HETATM    7  C   UNL     1      44.317 -14.018   4.446  1.00  0.00     0.027 C 
HETATM    8  N   UNL     1      39.217 -14.084   2.286  1.00  0.00    -0.162 NA
HETATM    9  C   UNL     1      38.784 -13.171   3.162  1.00  0.00     0.258 A 
HETATM   10  N   UNL     1      39.743 -12.623   3.972  1.00  0.00    -0.210 NA
HETATM   11  H   UNL     1      42.136 -12.696   4.979  1.00  0.00     0.131 HD
ENDROOT
BRANCH   1  12
HETATM   12  C   UNL     1      43.609 -16.157   2.333  1.00  0.00     0.230 C 
HETATM   13  N   UNL     1      43.209 -17.064   3.300  1.00  0.00    -0.326 N 
HETATM   14  H   UNL     1      42.853 -16.676   4.167  1.00  0.00     0.169 HD
HETATM   15  O   UNL     1      44.469 -16.361   1.480  1.00  0.00    -0.273 OA
BRANCH  13  16
HETATM   16  C   UNL     1      43.626 -18.414   3.372  1.00  0.00     0.040 A 
HETATM   17  C   UNL     1      44.285 -18.995   4.470  1.00  0.00    -0.035 A 
HETATM   18  C   UNL     1      44.591 -20.371   4.429  1.00  0.00     0.015 A 
HETATM   19  C   UNL     1      44.744 -18.235   5.685  1.00  0.00     0.050 C 
HETATM   20  C   UNL     1      44.320 -21.151   3.301  1.00  0.00    -0.061 A 
HETATM   21  C   UNL     1      44.630 -22.618   3.292  1.00  0.00     0.048 C 
HETATM   22  C   UNL     1      43.720 -20.548   2.196  1.00  0.00     0.009 A 
HETATM   23  C   UNL     1      43.392 -19.190   2.225  1.00  0.00     0.030 A 
ENDBRANCH  13  16
ENDBRANCH   1  12
BRANCH   2  24
HETATM   24  C   UNL     1      41.512 -14.592   0.358  1.00  0.00    -0.032 A 
HETATM   25  C   UNL     1      41.893 -13.322  -0.093  1.00  0.00     0.012 A 
HETATM   26  C   UNL     1      41.870 -13.021  -1.457  1.00  0.00     0.037 A 
HETATM   27  C   UNL     1      41.475 -13.978  -2.396  1.00  0.00     0.068 A 
HETATM   28  C   UNL     1      41.108 -15.248  -1.959  1.00  0.00     0.037 A 
HETATM   29  C   UNL     1      41.130 -15.554  -0.593  1.00  0.00     0.012 A 
BRANCH  27  30
HETATM   30  O   UNL     1      41.495 -13.551  -3.695  1.00  0.00    -0.356 OA
HETATM   31  C   UNL     1      41.326 -12.156  -3.916  1.00  0.00     0.210 C 
ENDBRANCH  27  30
ENDBRANCH   2  24
TORSDOF 4
ENDMDL
MODEL 7
REMARK VINA RESULT:      -7.7      2.741      4.814
REMARK  4 active torsions:
REMARK  status: ('A' for Active; 'I' for Inactive)
REMARK    1  A    between atoms: C_6  and  N_7 
REMARK       I    between atoms: N_7  and  C_8 
REMARK    2  A    between atoms: C_8  and  C_9 
REMARK    3  A    between atoms: C_10  and  C_11 
REMARK    4  A    between atoms: C_14  and  O_15 
ROOT
HETATM    1  C   UNL     1      41.793 -14.912   1.689  1.00  0.00     0.125 C 
HETATM    2  C   UNL     1      42.173 -13.431   1.968  1.00  0.00     0.160 C 
HETATM    3  N   UNL     1      41.960 -12.568   0.813  1.00  0.00    -0.231 N 
HETATM    4  C   UNL     1      41.464 -12.982  -0.390  1.00  0.00     0.200 A 
HETATM    5  N   UNL     1      41.137 -14.273  -0.595  1.00  0.00    -0.256 NA
HETATM    6  C   UNL     1      41.891 -15.263   0.185  1.00  0.00     0.074 C 
HETATM    7  C   UNL     1      41.299 -16.644  -0.113  1.00  0.00     0.027 C 
HETATM    8  N   UNL     1      42.336 -11.275   0.768  1.00  0.00    -0.162 NA
HETATM    9  C   UNL     1      41.955 -10.951  -0.473  1.00  0.00     0.258 A 
HETATM   10  N   UNL     1      41.417 -11.969  -1.214  1.00  0.00    -0.210 NA
HETATM   11  H   UNL     1      41.020 -14.509  -1.580  1.00  0.00     0.131 HD
ENDROOT
BRANCH   1  12
HETATM   12  C   UNL     1      42.738 -15.801   2.486  1.00  0.00     0.230 C 
HETATM   13  N   UNL     1      42.205 -17.036   2.808  1.00  0.00    -0.326 N 
HETATM   14  H   UNL     1      41.193 -17.098   2.850  1.00  0.00     0.169 HD
HETATM   15  O   UNL     1      43.839 -15.388   2.839  1.00  0.00    -0.273 OA
BRANCH  13  16
HETATM   16  C   UNL     1      42.897 -18.072   3.479  1.00  0.00     0.040 A 
HETATM   17  C   UNL     1      42.947 -18.235   4.875  1.00  0.00    -0.035 A 
HETATM   18  C   UNL     1      43.628 -19.350   5.406  1.00  0.00     0.015 A 
HETATM   19  C   UNL     1      42.364 -17.264   5.865  1.00  0.00     0.050 C 
HETATM   20  C   UNL     1      44.311 -20.253   4.585  1.00  0.00    -0.061 A 
HETATM   21  C   UNL     1      45.005 -21.446   5.172  1.00  0.00     0.048 C 
HETATM   22  C   UNL     1      44.304 -20.046   3.206  1.00  0.00     0.009 A 
HETATM   23  C   UNL     1      43.618 -18.957   2.661  1.00  0.00     0.030 A 
ENDBRANCH  13  16
ENDBRANCH   1  12
BRANCH   2  24
HETATM   24  C   UNL     1      41.401 -12.887   3.170  1.00  0.00    -0.032 A 
HETATM   25  C   UNL     1      40.010 -12.737   3.109  1.00  0.00     0.012 A 
HETATM   26  C   UNL     1      39.308 -12.213   4.198  1.00  0.00     0.037 A 
HETATM   27  C   UNL     1      39.974 -11.834   5.366  1.00  0.00     0.068 A 
HETATM   28  C   UNL     1      41.356 -11.991   5.441  1.00  0.00     0.037 A 
HETATM   29  C   UNL     1      42.063 -12.517   4.354  1.00  0.00     0.012 A 
BRANCH  27  30
HETATM   30  O   UNL     1      39.168 -11.333   6.351  1.00  0.00    -0.356 OA
HETATM   31  C   UNL     1      39.557 -11.595   7.694  1.00  0.00     0.210 C 
ENDBRANCH  27  30
ENDBRANCH   2  24
TORSDOF 4
ENDMDL
MODEL 8
REMARK VINA RESULT:      -7.6      3.071      5.185
REMARK  4 active torsions:
REMARK  status: ('A' for Active; 'I' for Inactive)
REMARK    1  A    between atoms: C_6  and  N_7 
REMARK       I    between atoms: N_7  and  C_8 
REMARK    2  A    between atoms: C_8  and  C_9 
REMARK    3  A    between atoms: C_10  and  C_11 
REMARK    4  A    between atoms: C_14  and  O_15 
ROOT
HETATM    1  C   UNL     1      41.832 -14.976   2.030  1.00  0.00     0.125 C 
HETATM    2  C   UNL     1      42.087 -13.451   1.874  1.00  0.00     0.160 C 
HETATM    3  N   UNL     1      42.069 -13.016   0.483  1.00  0.00    -0.231 N 
HETATM    4  C   UNL     1      41.837 -13.833  -0.587  1.00  0.00     0.200 A 
HETATM    5  N   UNL     1      41.612 -15.150  -0.414  1.00  0.00    -0.256 NA
HETATM    6  C   UNL     1      42.239 -15.765   0.762  1.00  0.00     0.074 C 
HETATM    7  C   UNL     1      41.776 -17.224   0.832  1.00  0.00     0.027 C 
HETATM    8  N   UNL     1      42.390 -11.770   0.086  1.00  0.00    -0.162 NA
HETATM    9  C   UNL     1      42.248 -11.888  -1.239  1.00  0.00     0.258 A 
HETATM   10  N   UNL     1      41.910 -13.136  -1.690  1.00  0.00    -0.210 NA
HETATM   11  H   UNL     1      41.701 -15.691  -1.274  1.00  0.00     0.131 HD
ENDROOT
BRANCH   1  12
HETATM   12  C   UNL     1      42.639 -15.470   3.223  1.00  0.00     0.230 C 
HETATM   13  N   UNL     1      42.016 -16.475   3.941  1.00  0.00    -0.326 N 
HETATM   14  H   UNL     1      41.004 -16.518   3.880  1.00  0.00     0.169 HD
HETATM   15  O   UNL     1      43.711 -14.948   3.515  1.00  0.00    -0.273 OA
BRANCH  13  16
HETATM   16  C   UNL     1      42.579 -17.156   5.047  1.00  0.00     0.040 A 
HETATM   17  C   UNL     1      43.413 -18.284   4.958  1.00  0.00    -0.035 A 
HETATM   18  C   UNL     1      43.951 -18.827   6.143  1.00  0.00     0.015 A 
HETATM   19  C   UNL     1      43.738 -19.002   3.677  1.00  0.00     0.050 C 
HETATM   20  C   UNL     1      43.621 -18.316   7.402  1.00  0.00    -0.061 A 
HETATM   21  C   UNL     1      44.228 -18.893   8.646  1.00  0.00     0.048 C 
HETATM   22  C   UNL     1      42.745 -17.234   7.479  1.00  0.00     0.009 A 
HETATM   23  C   UNL     1      42.216 -16.671   6.314  1.00  0.00     0.030 A 
ENDBRANCH  13  16
ENDBRANCH   1  12
BRANCH   2  24
HETATM   24  C   UNL     1      41.071 -12.642   2.682  1.00  0.00    -0.032 A 
HETATM   25  C   UNL     1      41.474 -11.937   3.823  1.00  0.00     0.012 A 
HETATM   26  C   UNL     1      40.540 -11.221   4.577  1.00  0.00     0.037 A 
HETATM   27  C   UNL     1      39.193 -11.189   4.207  1.00  0.00     0.068 A 
HETATM   28  C   UNL     1      38.785 -11.876   3.066  1.00  0.00     0.037 A 
HETATM   29  C   UNL     1      39.717 -12.593   2.307  1.00  0.00     0.012 A 
BRANCH  27  30
HETATM   30  O   UNL     1      38.387 -10.455   5.033  1.00  0.00    -0.356 OA
HETATM   31  C   UNL     1      38.032  -9.150   4.592  1.00  0.00     0.210 C 
ENDBRANCH  27  30
ENDBRANCH   2  24
TORSDOF 4
ENDMDL
MODEL 9
REMARK VINA RESULT:      -7.5      2.758      7.023
REMARK  4 active torsions:
REMARK  status: ('A' for Active; 'I' for Inactive)
REMARK    1  A    between atoms: C_6  and  N_7 
REMARK       I    between atoms: N_7  and  C_8 
REMARK    2  A    between atoms: C_8  and  C_9 
REMARK    3  A    between atoms: C_10  and  C_11 
REMARK    4  A    between atoms: C_14  and  O_15 
ROOT
HETATM    1  C   UNL     1      43.053 -17.430   3.555  1.00  0.00     0.125 C 
HETATM    2  C   UNL     1      42.705 -17.378   5.068  1.00  0.00     0.160 C 
HETATM    3  N   UNL     1      43.252 -18.506   5.812  1.00  0.00    -0.231 N 
HETATM    4  C   UNL     1      44.008 -19.505   5.269  1.00  0.00     0.200 A 
HETATM    5  N   UNL     1      44.296 -19.516   3.952  1.00  0.00    -0.256 NA
HETATM    6  C   UNL     1      43.313 -18.877   3.069  1.00  0.00     0.074 C 
HETATM    7  C   UNL     1      43.876 -18.902   1.645  1.00  0.00     0.027 C 
HETATM    8  N   UNL     1      42.979 -18.749   7.108  1.00  0.00    -0.162 NA
HETATM    9  C   UNL     1      43.677 -19.874   7.301  1.00  0.00     0.258 A 
HETATM   10  N   UNL     1      44.320 -20.369   6.199  1.00  0.00    -0.210 NA
HETATM   11  H   UNL     1      44.641 -20.417   3.622  1.00  0.00     0.131 HD
ENDROOT
BRANCH   1  12
HETATM   12  C   UNL     1      41.886 -16.832   2.781  1.00  0.00     0.230 C 
HETATM   13  N   UNL     1      42.240 -15.764   1.975  1.00  0.00    -0.326 N 
HETATM   14  H   UNL     1      43.072 -15.249   2.242  1.00  0.00     0.169 HD
HETATM   15  O   UNL     1      40.744 -17.253   2.942  1.00  0.00    -0.273 OA
BRANCH  13  16
HETATM   16  C   UNL     1      41.364 -15.077   1.102  1.00  0.00     0.040 A 
HETATM   17  C   UNL     1      40.456 -14.077   1.494  1.00  0.00    -0.035 A 
HETATM   18  C   UNL     1      39.682 -13.435   0.506  1.00  0.00     0.015 A 
HETATM   19  C   UNL     1      40.205 -13.670   2.920  1.00  0.00     0.050 C 
HETATM   20  C   UNL     1      39.744 -13.815  -0.839  1.00  0.00    -0.061 A 
HETATM   21  C   UNL     1      38.931 -13.098  -1.875  1.00  0.00     0.048 C 
HETATM   22  C   UNL     1      40.605 -14.850  -1.205  1.00  0.00     0.009 A 
HETATM   23  C   UNL     1      41.393 -15.485  -0.242  1.00  0.00     0.030 A 
ENDBRANCH  13  16
ENDBRANCH   1  12
BRANCH   2  24
HETATM   24  C   UNL     1      43.184 -16.066   5.693  1.00  0.00    -0.032 A 
HETATM   25  C   UNL     1      44.365 -16.030   6.445  1.00  0.00     0.012 A 
HETATM   26  C   UNL     1      44.788 -14.838   7.040  1.00  0.00     0.037 A 
HETATM   27  C   UNL     1      44.048 -13.662   6.892  1.00  0.00     0.068 A 
HETATM   28  C   UNL     1      42.879 -13.685   6.134  1.00  0.00     0.037 A 
HETATM   29  C   UNL     1      42.453 -14.876   5.536  1.00  0.00     0.012 A 
BRANCH  27  30
HETATM   30  O   UNL     1      44.571 -12.570   7.527  1.00  0.00    -0.356 OA
HETATM   31  C   UNL     1      44.810 -12.692   8.924  1.00  0.00     0.210 C 
ENDBRANCH  27  30
ENDBRANCH   2  24
TORSDOF 4
ENDMDL
MODEL 10
REMARK VINA RESULT:      -7.5      2.056      6.505
REMARK  4 active torsions:
REMARK  status: ('A' for Active; 'I' for Inactive)
REMARK    1  A    between atoms: C_6  and  N_7 
REMARK       I    between atoms: N_7  and  C_8 
REMARK    2  A    between atoms: C_8  and  C_9 
REMARK    3  A    between atoms: C_10  and  C_11 
REMARK    4  A    between atoms: C_14  and  O_15 
ROOT
HETATM    1  C   UNL     1      41.447 -15.598   4.578  1.00  0.00     0.125 C 
HETATM    2  C   UNL     1      42.990 -15.784   4.616  1.00  0.00     0.160 C 
HETATM    3  N   UNL     1      43.640 -14.902   5.577  1.00  0.00    -0.231 N 
HETATM    4  C   UNL     1      42.990 -14.014   6.385  1.00  0.00     0.200 A 
HETATM    5  N   UNL     1      41.650 -13.884   6.332  1.00  0.00    -0.256 NA
HETATM    6  C   UNL     1      41.022 -14.184   5.040  1.00  0.00     0.074 C 
HETATM    7  C   UNL     1      39.504 -14.081   5.221  1.00  0.00     0.027 C 
HETATM    8  N   UNL     1      44.977 -14.786   5.698  1.00  0.00    -0.162 NA
HETATM    9  C   UNL     1      45.058 -13.864   6.664  1.00  0.00     0.258 A 
HETATM   10  N   UNL     1      43.863 -13.366   7.111  1.00  0.00    -0.210 NA
HETATM   11  H   UNL     1      41.308 -13.036   6.784  1.00  0.00     0.131 HD
ENDROOT
BRANCH   1  12
HETATM   12  C   UNL     1      40.977 -15.836   3.150  1.00  0.00     0.230 C 
HETATM   13  N   UNL     1      40.974 -14.695   2.366  1.00  0.00    -0.326 N 
HETATM   14  H   UNL     1      40.894 -13.809   2.853  1.00  0.00     0.169 HD
HETATM   15  O   UNL     1      40.587 -16.944   2.794  1.00  0.00    -0.273 OA
BRANCH  13  16
HETATM   16  C   UNL     1      40.651 -14.654   0.989  1.00  0.00     0.040 A 
HETATM   17  C   UNL     1      39.440 -14.172   0.460  1.00  0.00    -0.035 A 
HETATM   18  C   UNL     1      39.276 -14.136  -0.940  1.00  0.00     0.015 A 
HETATM   19  C   UNL     1      38.266 -13.731   1.291  1.00  0.00     0.050 C 
HETATM   20  C   UNL     1      40.254 -14.633  -1.808  1.00  0.00    -0.061 A 
HETATM   21  C   UNL     1      40.067 -14.559  -3.294  1.00  0.00     0.048 C 
HETATM   22  C   UNL     1      41.425 -15.164  -1.267  1.00  0.00     0.009 A 
HETATM   23  C   UNL     1      41.613 -15.190   0.117  1.00  0.00     0.030 A 
ENDBRANCH  13  16
ENDBRANCH   1  12
BRANCH   2  24
HETATM   24  C   UNL     1      43.358 -17.237   4.915  1.00  0.00    -0.032 A 
HETATM   25  C   UNL     1      43.136 -17.775   6.190  1.00  0.00     0.012 A 
HETATM   26  C   UNL     1      43.499 -19.095   6.471  1.00  0.00     0.037 A 
HETATM   27  C   UNL     1      44.082 -19.904   5.492  1.00  0.00     0.068 A 
HETATM   28  C   UNL     1      44.295 -19.381   4.219  1.00  0.00     0.037 A 
HETATM   29  C   UNL     1      43.932 -18.061   3.931  1.00  0.00     0.012 A 
BRANCH  27  30
HETATM   30  O   UNL     1      44.391 -21.171   5.902  1.00  0.00    -0.356 OA
HETATM   31  C   UNL     1      44.930 -22.050   4.922  1.00  0.00     0.210 C 
ENDBRANCH  27  30
ENDBRANCH   2  24
TORSDOF 4
ENDMDL
