MODEL 1
REMARK VINA RESULT:      -7.7      0.000      0.000
REMARK  7 active torsions:
REMARK  status: ('A' for Active; 'I' for Inactive)
REMARK    1  A    between atoms: C_3  and  N_4 
REMARK       I    between atoms: N_4  and  C_5 
REMARK    2  A    between atoms: C_5  and  C_6 
REMARK    3  A    between atoms: C_7  and  C_8 
REMARK    4  A    between atoms: C_19  and  C_20 
REMARK    5  A    between atoms: C_20  and  C_21 
REMARK    6  A    between atoms: C_21  and  C_22 
REMARK    7  A    between atoms: C_22  and  O_23 
ROOT
HETATM    1  C   UNL     1      41.964 -15.859   1.776  1.00  0.00     0.062 A 
HETATM    2  C   UNL     1      41.949 -14.685   2.746  1.00  0.00     0.202 A 
HETATM    3  N   UNL     1      40.728 -13.882   2.597  1.00  0.00    -0.083 N 
HETATM    4  C   UNL     1      39.771 -14.116   1.647  1.00  0.00     0.726 A 
HETATM    5  N   UNL     1      39.919 -15.150   0.799  1.00  0.00    -0.192 N 
HETATM    6  N   UNL     1      40.466 -12.750   3.287  1.00  0.00    -0.140 NA
HETATM    7  C   UNL     1      39.275 -12.413   2.770  1.00  0.00     0.166 A 
HETATM    8  N   UNL     1      38.826 -13.217   1.749  1.00  0.00    -0.046 NA
HETATM    9  C   UNL     1      40.979 -16.047   0.864  1.00  0.00     0.037 A 
HETATM   10  C   UNL     1      40.935 -17.186  -0.125  1.00  0.00     0.070 C 
HETATM   11  H   UNL     1      39.181 -15.340   0.127  1.00  0.00     0.184 HD
ENDROOT
BRANCH   1  12
HETATM   12  C   UNL     1      43.025 -16.885   1.953  1.00  0.00     0.256 C 
HETATM   13  N   UNL     1      42.547 -18.084   2.434  1.00  0.00    -0.323 N 
HETATM   14  H   UNL     1      41.572 -18.124   2.691  1.00  0.00     0.169 HD
HETATM   15  O   UNL     1      44.182 -16.589   1.685  1.00  0.00    -0.267 OA
BRANCH  13  16
HETATM   16  C   UNL     1      43.288 -19.274   2.652  1.00  0.00     0.041 A 
HETATM   17  C   UNL     1      44.103 -19.374   3.803  1.00  0.00    -0.035 A 
HETATM   18  C   UNL     1      44.211 -18.270   4.820  1.00  0.00     0.050 C 
HETATM   19  C   UNL     1      44.827 -20.559   4.036  1.00  0.00     0.009 A 
HETATM   20  C   UNL     1      44.760 -21.627   3.146  1.00  0.00     0.001 A 
HETATM   21  C   UNL     1      43.962 -21.529   2.015  1.00  0.00     0.002 A 
HETATM   22  C   UNL     1      43.231 -20.364   1.773  1.00  0.00     0.030 A 
ENDBRANCH  13  16
ENDBRANCH   1  12
BRANCH   2  23
HETATM   23  C   UNL     1      42.155 -15.085   4.203  1.00  0.00    -0.027 A 
HETATM   24  C   UNL     1      43.225 -14.536   4.931  1.00  0.00     0.028 A 
HETATM   25  C   UNL     1      43.438 -14.910   6.259  1.00  0.00     0.011 A 
HETATM   26 BR   UNL     1      44.890 -14.166   7.216  1.00  0.00    -0.051 Br
HETATM   27  C   UNL     1      42.597 -15.827   6.880  1.00  0.00     0.019 A 
HETATM   28  C   UNL     1      41.528 -16.372   6.171  1.00  0.00     0.002 A 
HETATM   29  C   UNL     1      41.303 -16.003   4.843  1.00  0.00     0.010 A 
ENDBRANCH   2  23
BRANCH   7  30
HETATM   30  C   UNL     1      38.494 -11.243   3.243  1.00  0.00     0.085 C 
BRANCH  30  31
HETATM   31  C   UNL     1      39.147 -10.506   4.408  1.00  0.00     0.034 C 
BRANCH  31  32
HETATM   32  C   UNL     1      40.033  -9.348   3.963  1.00  0.00     0.164 C 
BRANCH  32  33
HETATM   33  O   UNL     1      41.376  -9.801   3.826  1.00  0.00    -0.401 OA
HETATM   34  H   UNL     1      41.622  -9.710   2.890  1.00  0.00     0.209 HD
ENDBRANCH  32  33
ENDBRANCH  31  32
ENDBRANCH  30  31
ENDBRANCH   7  30
TORSDOF 7
ENDMDL
MODEL 2
REMARK VINA RESULT:      -7.7      2.954      4.158
REMARK  7 active torsions:
REMARK  status: ('A' for Active; 'I' for Inactive)
REMARK    1  A    between atoms: C_3  and  N_4 
REMARK       I    between atoms: N_4  and  C_5 
REMARK    2  A    between atoms: C_5  and  C_6 
REMARK    3  A    between atoms: C_7  and  C_8 
REMARK    4  A    between atoms: C_19  and  C_20 
REMARK    5  A    between atoms: C_20  and  C_21 
REMARK    6  A    between atoms: C_21  and  C_22 
REMARK    7  A    between atoms: C_22  and  O_23 
ROOT
HETATM    1  C   UNL     1      42.066 -15.144   2.218  1.00  0.00     0.062 A 
HETATM    2  C   UNL     1      42.283 -13.636   2.261  1.00  0.00     0.202 A 
HETATM    3  N   UNL     1      42.208 -13.046   0.919  1.00  0.00    -0.083 N 
HETATM    4  C   UNL     1      42.047 -13.775  -0.229  1.00  0.00     0.726 A 
HETATM    5  N   UNL     1      41.927 -15.112  -0.152  1.00  0.00    -0.192 N 
HETATM    6  N   UNL     1      42.414 -11.740   0.643  1.00  0.00    -0.140 NA
HETATM    7  C   UNL     1      42.257 -11.737  -0.689  1.00  0.00     0.166 A 
HETATM    8  N   UNL     1      42.048 -12.971  -1.260  1.00  0.00    -0.046 NA
HETATM    9  C   UNL     1      41.900 -15.810   1.050  1.00  0.00     0.037 A 
HETATM   10  C   UNL     1      41.683 -17.299   0.939  1.00  0.00     0.070 C 
HETATM   11  H   UNL     1      41.764 -15.638  -1.006  1.00  0.00     0.184 HD
ENDROOT
BRANCH   1  12
HETATM   12  C   UNL     1      41.897 -15.851   3.515  1.00  0.00     0.256 C 
HETATM   13  N   UNL     1      43.092 -16.215   4.096  1.00  0.00    -0.323 N 
HETATM   14  H   UNL     1      43.934 -16.048   3.565  1.00  0.00     0.169 HD
HETATM   15  O   UNL     1      40.764 -16.055   3.932  1.00  0.00    -0.267 OA
BRANCH  13  16
HETATM   16  C   UNL     1      43.275 -16.843   5.355  1.00  0.00     0.041 A 
HETATM   17  C   UNL     1      43.655 -18.204   5.393  1.00  0.00    -0.035 A 
HETATM   18  C   UNL     1      43.887 -19.018   4.149  1.00  0.00     0.050 C 
HETATM   19  C   UNL     1      43.856 -18.830   6.638  1.00  0.00     0.009 A 
HETATM   20  C   UNL     1      43.677 -18.132   7.829  1.00  0.00     0.001 A 
HETATM   21  C   UNL     1      43.301 -16.797   7.792  1.00  0.00     0.002 A 
HETATM   22  C   UNL     1      43.105 -16.158   6.566  1.00  0.00     0.030 A 
ENDBRANCH  13  16
ENDBRANCH   1  12
BRANCH   2  23
HETATM   23  C   UNL     1      41.353 -12.905   3.223  1.00  0.00    -0.027 A 
HETATM   24  C   UNL     1      41.860 -12.401   4.434  1.00  0.00     0.028 A 
HETATM   25  C   UNL     1      41.015 -11.750   5.334  1.00  0.00     0.011 A 
HETATM   26 BR   UNL     1      41.717 -11.088   6.960  1.00  0.00    -0.051 Br
HETATM   27  C   UNL     1      39.664 -11.588   5.046  1.00  0.00     0.019 A 
HETATM   28  C   UNL     1      39.151 -12.076   3.846  1.00  0.00     0.002 A 
HETATM   29  C   UNL     1      39.988 -12.728   2.937  1.00  0.00     0.010 A 
ENDBRANCH   2  23
BRANCH   7  30
HETATM   30  C   UNL     1      42.320 -10.500  -1.506  1.00  0.00     0.085 C 
BRANCH  30  31
HETATM   31  C   UNL     1      43.684  -9.816  -1.470  1.00  0.00     0.034 C 
BRANCH  31  32
HETATM   32  C   UNL     1      43.665  -8.482  -0.735  1.00  0.00     0.164 C 
BRANCH  32  33
HETATM   33  O   UNL     1      43.297  -8.692   0.625  1.00  0.00    -0.401 OA
HETATM   34  H   UNL     1      43.967  -9.274   1.023  1.00  0.00     0.209 HD
ENDBRANCH  32  33
ENDBRANCH  31  32
ENDBRANCH  30  31
ENDBRANCH   7  30
TORSDOF 7
ENDMDL
MODEL 3
REMARK VINA RESULT:      -7.6      2.534      4.192
REMARK  7 active torsions:
REMARK  status: ('A' for Active; 'I' for Inactive)
REMARK    1  A    between atoms: C_3  and  N_4 
REMARK       I    between atoms: N_4  and  C_5 
REMARK    2  A    between atoms: C_5  and  C_6 
REMARK    3  A    between atoms: C_7  and  C_8 
REMARK    4  A    between atoms: C_19  and  C_20 
REMARK    5  A    between atoms: C_20  and  C_21 
REMARK    6  A    between atoms: C_21  and  C_22 
REMARK    7  A    between atoms: C_22  and  O_23 
ROOT
HETATM    1  C   UNL     1      42.067 -15.368   5.523  1.00  0.00     0.062 A 
HETATM    2  C   UNL     1      40.913 -14.512   5.016  1.00  0.00     0.202 A 
HETATM    3  N   UNL     1      41.086 -13.103   5.393  1.00  0.00    -0.083 N 
HETATM    4  C   UNL     1      42.112 -12.640   6.171  1.00  0.00     0.726 A 
HETATM    5  N   UNL     1      43.046 -13.501   6.615  1.00  0.00    -0.192 N 
HETATM    6  N   UNL     1      40.194 -12.124   5.127  1.00  0.00    -0.140 NA
HETATM    7  C   UNL     1      40.805 -11.070   5.689  1.00  0.00     0.166 A 
HETATM    8  N   UNL     1      41.975 -11.352   6.354  1.00  0.00    -0.046 NA
HETATM    9  C   UNL     1      43.064 -14.850   6.281  1.00  0.00     0.037 A 
HETATM   10  C   UNL     1      44.232 -15.642   6.815  1.00  0.00     0.070 C 
HETATM   11  H   UNL     1      43.826 -13.138   7.156  1.00  0.00     0.184 HD
ENDROOT
BRANCH   1  12
HETATM   12  C   UNL     1      42.147 -16.771   5.038  1.00  0.00     0.256 C 
HETATM   13  N   UNL     1      43.243 -17.008   4.237  1.00  0.00    -0.323 N 
HETATM   14  H   UNL     1      43.819 -16.216   3.996  1.00  0.00     0.169 HD
HETATM   15  O   UNL     1      41.268 -17.559   5.362  1.00  0.00    -0.267 OA
BRANCH  13  16
HETATM   16  C   UNL     1      43.636 -18.248   3.671  1.00  0.00     0.041 A 
HETATM   17  C   UNL     1      43.364 -18.496   2.307  1.00  0.00    -0.035 A 
HETATM   18  C   UNL     1      42.680 -17.492   1.419  1.00  0.00     0.050 C 
HETATM   19  C   UNL     1      43.767 -19.717   1.733  1.00  0.00     0.009 A 
HETATM   20  C   UNL     1      44.421 -20.685   2.491  1.00  0.00     0.001 A 
HETATM   21  C   UNL     1      44.687 -20.443   3.831  1.00  0.00     0.002 A 
HETATM   22  C   UNL     1      44.301 -19.234   4.415  1.00  0.00     0.030 A 
ENDBRANCH  13  16
ENDBRANCH   1  12
BRANCH   2  23
HETATM   23  C   UNL     1      40.658 -14.641   3.519  1.00  0.00    -0.027 A 
HETATM   24  C   UNL     1      41.371 -13.830   2.619  1.00  0.00     0.028 A 
HETATM   25  C   UNL     1      41.131 -13.921   1.247  1.00  0.00     0.011 A 
HETATM   26 BR   UNL     1      42.095 -12.813   0.055  1.00  0.00    -0.051 Br
HETATM   27  C   UNL     1      40.189 -14.816   0.751  1.00  0.00     0.019 A 
HETATM   28  C   UNL     1      39.481 -15.632   1.632  1.00  0.00     0.002 A 
HETATM   29  C   UNL     1      39.714 -15.550   3.007  1.00  0.00     0.010 A 
ENDBRANCH   2  23
BRANCH   7  30
HETATM   30  C   UNL     1      40.258  -9.692   5.622  1.00  0.00     0.085 C 
BRANCH  30  31
HETATM   31  C   UNL     1      39.625  -9.353   4.276  1.00  0.00     0.034 C 
BRANCH  31  32
HETATM   32  C   UNL     1      38.102  -9.320   4.323  1.00  0.00     0.164 C 
BRANCH  32  33
HETATM   33  O   UNL     1      37.597 -10.651   4.365  1.00  0.00    -0.401 OA
HETATM   34  H   UNL     1      38.158 -11.195   3.785  1.00  0.00     0.209 HD
ENDBRANCH  32  33
ENDBRANCH  31  32
ENDBRANCH  30  31
ENDBRANCH   7  30
TORSDOF 7
ENDMDL
MODEL 4
REMARK VINA RESULT:      -7.6      2.295      3.877
REMARK  7 active torsions:
REMARK  status: ('A' for Active; 'I' for Inactive)
REMARK    1  A    between atoms: C_3  and  N_4 
REMARK       I    between atoms: N_4  and  C_5 
REMARK    2  A    between atoms: C_5  and  C_6 
REMARK    3  A    between atoms: C_7  and  C_8 
REMARK    4  A    between atoms: C_19  and  C_20 
REMARK    5  A    between atoms: C_20  and  C_21 
REMARK    6  A    between atoms: C_21  and  C_22 
REMARK    7  A    between atoms: C_22  and  O_23 
ROOT
HETATM    1  C   UNL     1      42.329 -14.981   3.906  1.00  0.00     0.062 A 
HETATM    2  C   UNL     1      41.067 -14.579   3.153  1.00  0.00     0.202 A 
HETATM    3  N   UNL     1      40.487 -13.346   3.701  1.00  0.00    -0.083 N 
HETATM    4  C   UNL     1      40.976 -12.693   4.800  1.00  0.00     0.726 A 
HETATM    5  N   UNL     1      42.065 -13.175   5.425  1.00  0.00    -0.192 N 
HETATM    6  N   UNL     1      39.338 -12.782   3.269  1.00  0.00    -0.140 NA
HETATM    7  C   UNL     1      39.252 -11.726   4.093  1.00  0.00     0.166 A 
HETATM    8  N   UNL     1      40.230 -11.650   5.057  1.00  0.00    -0.046 NA
HETATM    9  C   UNL     1      42.772 -14.287   4.982  1.00  0.00     0.037 A 
HETATM   10  C   UNL     1      44.011 -14.633   5.772  1.00  0.00     0.070 C 
HETATM   11  H   UNL     1      42.445 -12.659   6.214  1.00  0.00     0.184 HD
ENDROOT
BRANCH   1  12
HETATM   12  C   UNL     1      43.149 -16.082   3.335  1.00  0.00     0.256 C 
HETATM   13  N   UNL     1      42.805 -17.325   3.821  1.00  0.00    -0.323 N 
HETATM   14  H   UNL     1      42.113 -17.358   4.555  1.00  0.00     0.169 HD
HETATM   15  O   UNL     1      44.028 -15.806   2.530  1.00  0.00    -0.267 OA
BRANCH  13  16
HETATM   16  C   UNL     1      43.350 -18.576   3.433  1.00  0.00     0.041 A 
HETATM   17  C   UNL     1      44.280 -19.212   4.285  1.00  0.00    -0.035 A 
HETATM   18  C   UNL     1      44.713 -18.623   5.601  1.00  0.00     0.050 C 
HETATM   19  C   UNL     1      44.812 -20.463   3.916  1.00  0.00     0.009 A 
HETATM   20  C   UNL     1      44.442 -21.075   2.721  1.00  0.00     0.001 A 
HETATM   21  C   UNL     1      43.530 -20.449   1.883  1.00  0.00     0.002 A 
HETATM   22  C   UNL     1      42.987 -19.212   2.238  1.00  0.00     0.030 A 
ENDBRANCH  13  16
ENDBRANCH   1  12
BRANCH   2  23
HETATM   23  C   UNL     1      41.258 -14.460   1.645  1.00  0.00    -0.027 A 
HETATM   24  C   UNL     1      41.766 -13.268   1.100  1.00  0.00     0.028 A 
HETATM   25  C   UNL     1      41.924 -13.138  -0.281  1.00  0.00     0.011 A 
HETATM   26 BR   UNL     1      42.601 -11.523  -0.994  1.00  0.00    -0.051 Br
HETATM   27  C   UNL     1      41.585 -14.182  -1.134  1.00  0.00     0.019 A 
HETATM   28  C   UNL     1      41.088 -15.372  -0.605  1.00  0.00     0.002 A 
HETATM   29  C   UNL     1      40.927 -15.514   0.775  1.00  0.00     0.010 A 
ENDBRANCH   2  23
BRANCH   7  30
HETATM   30  C   UNL     1      38.172 -10.714   3.995  1.00  0.00     0.085 C 
BRANCH  30  31
HETATM   31  C   UNL     1      38.682  -9.276   4.031  1.00  0.00     0.034 C 
BRANCH  31  32
HETATM   32  C   UNL     1      38.276  -8.528   5.296  1.00  0.00     0.164 C 
BRANCH  32  33
HETATM   33  O   UNL     1      38.565  -9.331   6.436  1.00  0.00    -0.401 OA
HETATM   34  H   UNL     1      39.222  -9.996   6.168  1.00  0.00     0.209 HD
ENDBRANCH  32  33
ENDBRANCH  31  32
ENDBRANCH  30  31
ENDBRANCH   7  30
TORSDOF 7
ENDMDL
MODEL 5
REMARK VINA RESULT:      -7.6      1.809      2.286
REMARK  7 active torsions:
REMARK  status: ('A' for Active; 'I' for Inactive)
REMARK    1  A    between atoms: C_3  and  N_4 
REMARK       I    between atoms: N_4  and  C_5 
REMARK    2  A    between atoms: C_5  and  C_6 
REMARK    3  A    between atoms: C_7  and  C_8 
REMARK    4  A    between atoms: C_19  and  C_20 
REMARK    5  A    between atoms: C_20  and  C_21 
REMARK    6  A    between atoms: C_21  and  C_22 
REMARK    7  A    between atoms: C_22  and  O_23 
ROOT
HETATM    1  C   UNL     1      41.868 -15.536   3.009  1.00  0.00     0.062 A 
HETATM    2  C   UNL     1      42.299 -14.295   3.779  1.00  0.00     0.202 A 
HETATM    3  N   UNL     1      41.143 -13.475   4.164  1.00  0.00    -0.083 N 
HETATM    4  C   UNL     1      39.854 -13.754   3.801  1.00  0.00     0.726 A 
HETATM    5  N   UNL     1      39.596 -14.849   3.064  1.00  0.00    -0.192 N 
HETATM    6  N   UNL     1      41.225 -12.290   4.808  1.00  0.00    -0.140 NA
HETATM    7  C   UNL     1      39.927 -11.961   4.891  1.00  0.00     0.166 A 
HETATM    8  N   UNL     1      39.058 -12.827   4.268  1.00  0.00    -0.046 NA
HETATM    9  C   UNL     1      40.571 -15.765   2.688  1.00  0.00     0.037 A 
HETATM   10  C   UNL     1      40.079 -16.972   1.927  1.00  0.00     0.070 C 
HETATM   11  H   UNL     1      38.630 -15.069   2.838  1.00  0.00     0.184 HD
ENDROOT
BRANCH   1  12
HETATM   12  C   UNL     1      42.900 -16.573   2.741  1.00  0.00     0.256 C 
HETATM   13  N   UNL     1      42.516 -17.837   3.131  1.00  0.00    -0.323 N 
HETATM   14  H   UNL     1      41.638 -17.922   3.621  1.00  0.00     0.169 HD
HETATM   15  O   UNL     1      43.961 -16.231   2.233  1.00  0.00    -0.267 OA
BRANCH  13  16
HETATM   16  C   UNL     1      43.242 -19.043   2.958  1.00  0.00     0.041 A 
HETATM   17  C   UNL     1      44.238 -19.385   3.899  1.00  0.00    -0.035 A 
HETATM   18  C   UNL     1      44.558 -18.525   5.093  1.00  0.00     0.050 C 
HETATM   19  C   UNL     1      44.951 -20.589   3.745  1.00  0.00     0.009 A 
HETATM   20  C   UNL     1      44.696 -21.442   2.674  1.00  0.00     0.001 A 
HETATM   21  C   UNL     1      43.719 -21.105   1.748  1.00  0.00     0.002 A 
HETATM   22  C   UNL     1      42.997 -19.919   1.891  1.00  0.00     0.030 A 
ENDBRANCH  13  16
ENDBRANCH   1  12
BRANCH   2  23
HETATM   23  C   UNL     1      43.175 -14.593   4.992  1.00  0.00    -0.027 A 
HETATM   24  C   UNL     1      42.832 -15.647   5.856  1.00  0.00     0.028 A 
HETATM   25  C   UNL     1      43.611 -15.915   6.982  1.00  0.00     0.011 A 
HETATM   26 BR   UNL     1      43.126 -17.332   8.137  1.00  0.00    -0.051 Br
HETATM   27  C   UNL     1      44.737 -15.149   7.263  1.00  0.00     0.019 A 
HETATM   28  C   UNL     1      45.093 -14.106   6.409  1.00  0.00     0.002 A 
HETATM   29  C   UNL     1      44.321 -13.829   5.278  1.00  0.00     0.010 A 
ENDBRANCH   2  23
BRANCH   7  30
HETATM   30  C   UNL     1      39.447 -10.741   5.587  1.00  0.00     0.085 C 
BRANCH  30  31
HETATM   31  C   UNL     1      40.066 -10.546   6.969  1.00  0.00     0.034 C 
BRANCH  31  32
HETATM   32  C   UNL     1      39.371 -11.358   8.056  1.00  0.00     0.164 C 
BRANCH  32  33
HETATM   33  O   UNL     1      39.379 -12.736   7.699  1.00  0.00    -0.401 OA
HETATM   34  H   UNL     1      38.602 -13.150   8.113  1.00  0.00     0.209 HD
ENDBRANCH  32  33
ENDBRANCH  31  32
ENDBRANCH  30  31
ENDBRANCH   7  30
TORSDOF 7
ENDMDL
MODEL 6
REMARK VINA RESULT:      -7.4      3.277      4.885
REMARK  7 active torsions:
REMARK  status: ('A' for Active; 'I' for Inactive)
REMARK    1  A    between atoms: C_3  and  N_4 
REMARK       I    between atoms: N_4  and  C_5 
REMARK    2  A    between atoms: C_5  and  C_6 
REMARK    3  A    between atoms: C_7  and  C_8 
REMARK    4  A    between atoms: C_19  and  C_20 
REMARK    5  A    between atoms: C_20  and  C_21 
REMARK    6  A    between atoms: C_21  and  C_22 
REMARK    7  A    between atoms: C_22  and  O_23 
ROOT
HETATM    1  C   UNL     1      41.018 -13.918   3.289  1.00  0.00     0.062 A 
HETATM    2  C   UNL     1      40.074 -13.661   2.121  1.00  0.00     0.202 A 
HETATM    3  N   UNL     1      39.188 -12.522   2.391  1.00  0.00    -0.083 N 
HETATM    4  C   UNL     1      39.162 -11.836   3.576  1.00  0.00     0.726 A 
HETATM    5  N   UNL     1      40.003 -12.192   4.564  1.00  0.00    -0.192 N 
HETATM    6  N   UNL     1      38.211 -12.096   1.560  1.00  0.00    -0.140 NA
HETATM    7  C   UNL     1      37.705 -11.077   2.270  1.00  0.00     0.166 A 
HETATM    8  N   UNL     1      38.251 -10.900   3.519  1.00  0.00    -0.046 NA
HETATM    9  C   UNL     1      40.954 -13.198   4.434  1.00  0.00     0.037 A 
HETATM   10  C   UNL     1      41.857 -13.403   5.626  1.00  0.00     0.070 C 
HETATM   11  H   UNL     1      40.005 -11.649   5.422  1.00  0.00     0.184 HD
ENDROOT
BRANCH   1  12
HETATM   12  C   UNL     1      42.119 -14.897   3.080  1.00  0.00     0.256 C 
HETATM   13  N   UNL     1      41.726 -16.204   3.263  1.00  0.00    -0.323 N 
HETATM   14  H   UNL     1      40.785 -16.362   3.592  1.00  0.00     0.169 HD
HETATM   15  O   UNL     1      43.232 -14.479   2.790  1.00  0.00    -0.267 OA
BRANCH  13  16
HETATM   16  C   UNL     1      42.515 -17.368   3.079  1.00  0.00     0.041 A 
HETATM   17  C   UNL     1      43.217 -17.902   4.183  1.00  0.00    -0.035 A 
HETATM   18  C   UNL     1      43.155 -17.292   5.558  1.00  0.00     0.050 C 
HETATM   19  C   UNL     1      43.989 -19.068   4.014  1.00  0.00     0.009 A 
HETATM   20  C   UNL     1      44.077 -19.695   2.774  1.00  0.00     0.001 A 
HETATM   21  C   UNL     1      43.389 -19.170   1.689  1.00  0.00     0.002 A 
HETATM   22  C   UNL     1      42.613 -18.020   1.841  1.00  0.00     0.030 A 
ENDBRANCH  13  16
ENDBRANCH   1  12
BRANCH   2  23
HETATM   23  C   UNL     1      40.780 -13.488   0.781  1.00  0.00    -0.027 A 
HETATM   24  C   UNL     1      40.567 -14.426  -0.244  1.00  0.00     0.028 A 
HETATM   25  C   UNL     1      41.225 -14.292  -1.468  1.00  0.00     0.011 A 
HETATM   26 BR   UNL     1      40.931 -15.571  -2.829  1.00  0.00    -0.051 Br
HETATM   27  C   UNL     1      42.095 -13.231  -1.691  1.00  0.00     0.019 A 
HETATM   28  C   UNL     1      42.308 -12.290  -0.686  1.00  0.00     0.002 A 
HETATM   29  C   UNL     1      41.654 -12.413   0.542  1.00  0.00     0.010 A 
ENDBRANCH   2  23
BRANCH   7  30
HETATM   30  C   UNL     1      36.616 -10.205   1.764  1.00  0.00     0.085 C 
BRANCH  30  31
HETATM   31  C   UNL     1      35.589 -10.946   0.912  1.00  0.00     0.034 C 
BRANCH  31  32
HETATM   32  C   UNL     1      34.195 -10.335   0.990  1.00  0.00     0.164 C 
BRANCH  32  33
HETATM   33  O   UNL     1      33.426 -11.024   1.970  1.00  0.00    -0.401 OA
HETATM   34  H   UNL     1      32.502 -11.028   1.668  1.00  0.00     0.209 HD
ENDBRANCH  32  33
ENDBRANCH  31  32
ENDBRANCH  30  31
ENDBRANCH   7  30
TORSDOF 7
ENDMDL
MODEL 7
REMARK VINA RESULT:      -7.3      2.739      4.274
REMARK  7 active torsions:
REMARK  status: ('A' for Active; 'I' for Inactive)
REMARK    1  A    between atoms: C_3  and  N_4 
REMARK       I    between atoms: N_4  and  C_5 
REMARK    2  A    between atoms: C_5  and  C_6 
REMARK    3  A    between atoms: C_7  and  C_8 
REMARK    4  A    between atoms: C_19  and  C_20 
REMARK    5  A    between atoms: C_20  and  C_21 
REMARK    6  A    between atoms: C_21  and  C_22 
REMARK    7  A    between atoms: C_22  and  O_23 
ROOT
HETATM    1  C   UNL     1      41.991 -15.550   5.402  1.00  0.00     0.062 A 
HETATM    2  C   UNL     1      40.926 -14.596   4.875  1.00  0.00     0.202 A 
HETATM    3  N   UNL     1      41.164 -13.222   5.335  1.00  0.00    -0.083 N 
HETATM    4  C   UNL     1      42.167 -12.866   6.195  1.00  0.00     0.726 A 
HETATM    5  N   UNL     1      43.015 -13.807   6.647  1.00  0.00    -0.192 N 
HETATM    6  N   UNL     1      40.353 -12.174   5.070  1.00  0.00    -0.140 NA
HETATM    7  C   UNL     1      40.993 -11.192   5.721  1.00  0.00     0.166 A 
HETATM    8  N   UNL     1      42.100 -11.583   6.438  1.00  0.00    -0.046 NA
HETATM    9  C   UNL     1      42.969 -15.137   6.243  1.00  0.00     0.037 A 
HETATM   10  C   UNL     1      44.050 -16.029   6.802  1.00  0.00     0.070 C 
HETATM   11  H   UNL     1      43.782 -13.524   7.251  1.00  0.00     0.184 HD
ENDROOT
BRANCH   1  12
HETATM   12  C   UNL     1      42.012 -16.930   4.849  1.00  0.00     0.256 C 
HETATM   13  N   UNL     1      43.167 -17.220   4.155  1.00  0.00    -0.323 N 
HETATM   14  H   UNL     1      43.827 -16.468   4.021  1.00  0.00     0.169 HD
HETATM   15  O   UNL     1      41.043 -17.655   5.034  1.00  0.00    -0.267 OA
BRANCH  13  16
HETATM   16  C   UNL     1      43.521 -18.460   3.564  1.00  0.00     0.041 A 
HETATM   17  C   UNL     1      44.394 -19.327   4.260  1.00  0.00    -0.035 A 
HETATM   18  C   UNL     1      44.960 -18.994   5.614  1.00  0.00     0.050 C 
HETATM   19  C   UNL     1      44.736 -20.568   3.689  1.00  0.00     0.009 A 
HETATM   20  C   UNL     1      44.235 -20.948   2.446  1.00  0.00     0.001 A 
HETATM   21  C   UNL     1      43.379 -20.096   1.762  1.00  0.00     0.002 A 
HETATM   22  C   UNL     1      43.023 -18.866   2.318  1.00  0.00     0.030 A 
ENDBRANCH  13  16
ENDBRANCH   1  12
BRANCH   2  23
HETATM   23  C   UNL     1      40.757 -14.635   3.360  1.00  0.00    -0.027 A 
HETATM   24  C   UNL     1      39.488 -14.418   2.796  1.00  0.00     0.028 A 
HETATM   25  C   UNL     1      39.314 -14.473   1.412  1.00  0.00     0.011 A 
HETATM   26 BR   UNL     1      37.596 -14.188   0.675  1.00  0.00    -0.051 Br
HETATM   27  C   UNL     1      40.391 -14.740   0.574  1.00  0.00     0.019 A 
HETATM   28  C   UNL     1      41.656 -14.949   1.120  1.00  0.00     0.002 A 
HETATM   29  C   UNL     1      41.842 -14.894   2.504  1.00  0.00     0.010 A 
ENDBRANCH   2  23
BRANCH   7  30
HETATM   30  C   UNL     1      40.539  -9.779   5.696  1.00  0.00     0.085 C 
BRANCH  30  31
HETATM   31  C   UNL     1      41.108  -8.979   4.527  1.00  0.00     0.034 C 
BRANCH  31  32
HETATM   32  C   UNL     1      42.042  -7.858   4.968  1.00  0.00     0.164 C 
BRANCH  32  33
HETATM   33  O   UNL     1      42.070  -7.793   6.390  1.00  0.00    -0.401 OA
HETATM   34  H   UNL     1      43.003  -7.789   6.665  1.00  0.00     0.209 HD
ENDBRANCH  32  33
ENDBRANCH  31  32
ENDBRANCH  30  31
ENDBRANCH   7  30
TORSDOF 7
ENDMDL
MODEL 8
REMARK VINA RESULT:      -7.3      2.904      4.597
REMARK  7 active torsions:
REMARK  status: ('A' for Active; 'I' for Inactive)
REMARK    1  A    between atoms: C_3  and  N_4 
REMARK       I    between atoms: N_4  and  C_5 
REMARK    2  A    between atoms: C_5  and  C_6 
REMARK    3  A    between atoms: C_7  and  C_8 
REMARK    4  A    between atoms: C_19  and  C_20 
REMARK    5  A    between atoms: C_20  and  C_21 
REMARK    6  A    between atoms: C_21  and  C_22 
REMARK    7  A    between atoms: C_22  and  O_23 
ROOT
HETATM    1  C   UNL     1      42.660 -15.477   1.879  1.00  0.00     0.062 A 
HETATM    2  C   UNL     1      42.028 -14.135   1.532  1.00  0.00     0.202 A 
HETATM    3  N   UNL     1      41.287 -14.203   0.266  1.00  0.00    -0.083 N 
HETATM    4  C   UNL     1      41.244 -15.312  -0.535  1.00  0.00     0.726 A 
HETATM    5  N   UNL     1      41.893 -16.428  -0.157  1.00  0.00    -0.192 N 
HETATM    6  N   UNL     1      40.670 -13.153  -0.319  1.00  0.00    -0.140 NA
HETATM    7  C   UNL     1      40.184 -13.734  -1.426  1.00  0.00     0.166 A 
HETATM    8  N   UNL     1      40.532 -15.053  -1.601  1.00  0.00    -0.046 NA
HETATM    9  C   UNL     1      42.573 -16.545   1.050  1.00  0.00     0.037 A 
HETATM   10  C   UNL     1      43.176 -17.899   1.333  1.00  0.00     0.070 C 
HETATM   11  H   UNL     1      41.818 -17.258  -0.738  1.00  0.00     0.184 HD
ENDROOT
BRANCH   1  12
HETATM   12  C   UNL     1      43.257 -15.626   3.233  1.00  0.00     0.256 C 
HETATM   13  N   UNL     1      42.751 -16.697   3.936  1.00  0.00    -0.323 N 
HETATM   14  H   UNL     1      41.990 -17.208   3.514  1.00  0.00     0.169 HD
HETATM   15  O   UNL     1      44.099 -14.815   3.598  1.00  0.00    -0.267 OA
BRANCH  13  16
HETATM   16  C   UNL     1      43.154 -17.144   5.221  1.00  0.00     0.041 A 
HETATM   17  C   UNL     1      42.337 -16.850   6.336  1.00  0.00    -0.035 A 
HETATM   18  C   UNL     1      41.044 -16.089   6.219  1.00  0.00     0.050 C 
HETATM   19  C   UNL     1      42.720 -17.306   7.612  1.00  0.00     0.009 A 
HETATM   20  C   UNL     1      43.895 -18.032   7.791  1.00  0.00     0.001 A 
HETATM   21  C   UNL     1      44.698 -18.318   6.697  1.00  0.00     0.002 A 
HETATM   22  C   UNL     1      44.329 -17.881   5.423  1.00  0.00     0.030 A 
ENDBRANCH  13  16
ENDBRANCH   1  12
BRANCH   2  23
HETATM   23  C   UNL     1      41.151 -13.559   2.638  1.00  0.00    -0.027 A 
HETATM   24  C   UNL     1      41.481 -12.320   3.215  1.00  0.00     0.028 A 
HETATM   25  C   UNL     1      40.700 -11.793   4.244  1.00  0.00     0.011 A 
HETATM   26 BR   UNL     1      41.167 -10.129   5.011  1.00  0.00    -0.051 Br
HETATM   27  C   UNL     1      39.585 -12.481   4.711  1.00  0.00     0.019 A 
HETATM   28  C   UNL     1      39.243 -13.707   4.143  1.00  0.00     0.002 A 
HETATM   29  C   UNL     1      40.017 -14.243   3.111  1.00  0.00     0.010 A 
ENDBRANCH   2  23
BRANCH   7  30
HETATM   30  C   UNL     1      39.344 -13.011  -2.413  1.00  0.00     0.085 C 
BRANCH  30  31
HETATM   31  C   UNL     1      37.867 -13.389  -2.348  1.00  0.00     0.034 C 
BRANCH  31  32
HETATM   32  C   UNL     1      37.439 -14.328  -3.469  1.00  0.00     0.164 C 
BRANCH  32  33
HETATM   33  O   UNL     1      37.693 -15.676  -3.084  1.00  0.00    -0.401 OA
HETATM   34  H   UNL     1      37.963 -15.667  -2.150  1.00  0.00     0.209 HD
ENDBRANCH  32  33
ENDBRANCH  31  32
ENDBRANCH  30  31
ENDBRANCH   7  30
TORSDOF 7
ENDMDL
MODEL 9
REMARK VINA RESULT:      -7.2      3.217      6.083
REMARK  7 active torsions:
REMARK  status: ('A' for Active; 'I' for Inactive)
REMARK    1  A    between atoms: C_3  and  N_4 
REMARK       I    between atoms: N_4  and  C_5 
REMARK    2  A    between atoms: C_5  and  C_6 
REMARK    3  A    between atoms: C_7  and  C_8 
REMARK    4  A    between atoms: C_19  and  C_20 
REMARK    5  A    between atoms: C_20  and  C_21 
REMARK    6  A    between atoms: C_21  and  C_22 
REMARK    7  A    between atoms: C_22  and  O_23 
ROOT
HETATM    1  C   UNL     1      41.505 -14.038   2.806  1.00  0.00     0.062 A 
HETATM    2  C   UNL     1      42.895 -14.394   3.317  1.00  0.00     0.202 A 
HETATM    3  N   UNL     1      43.076 -13.973   4.712  1.00  0.00    -0.083 N 
HETATM    4  C   UNL     1      42.142 -13.275   5.428  1.00  0.00     0.726 A 
HETATM    5  N   UNL     1      40.968 -12.960   4.852  1.00  0.00    -0.192 N 
HETATM    6  N   UNL     1      44.225 -14.110   5.410  1.00  0.00    -0.140 NA
HETATM    7  C   UNL     1      43.871 -13.561   6.583  1.00  0.00     0.166 A 
HETATM    8  N   UNL     1      42.607 -13.023   6.624  1.00  0.00    -0.046 NA
HETATM    9  C   UNL     1      40.616 -13.355   3.567  1.00  0.00     0.037 A 
HETATM   10  C   UNL     1      39.226 -12.970   3.120  1.00  0.00     0.070 C 
HETATM   11  H   UNL     1      40.265 -12.480   5.407  1.00  0.00     0.184 HD
ENDROOT
BRANCH   1  12
HETATM   12  C   UNL     1      41.094 -14.591   1.488  1.00  0.00     0.256 C 
HETATM   13  N   UNL     1      41.628 -13.903   0.420  1.00  0.00    -0.323 N 
HETATM   14  H   UNL     1      42.158 -13.069   0.625  1.00  0.00     0.169 HD
HETATM   15  O   UNL     1      40.341 -15.555   1.461  1.00  0.00    -0.267 OA
BRANCH  13  16
HETATM   16  C   UNL     1      41.481 -14.213  -0.957  1.00  0.00     0.041 A 
HETATM   17  C   UNL     1      41.832 -13.241  -1.920  1.00  0.00    -0.035 A 
HETATM   18  C   UNL     1      42.370 -11.885  -1.548  1.00  0.00     0.050 C 
HETATM   19  C   UNL     1      41.707 -13.547  -3.289  1.00  0.00     0.009 A 
HETATM   20  C   UNL     1      41.233 -14.789  -3.705  1.00  0.00     0.001 A 
HETATM   21  C   UNL     1      40.886 -15.743  -2.759  1.00  0.00     0.002 A 
HETATM   22  C   UNL     1      41.012 -15.459  -1.398  1.00  0.00     0.030 A 
ENDBRANCH  13  16
ENDBRANCH   1  12
BRANCH   2  23
HETATM   23  C   UNL     1      43.257 -15.866   3.148  1.00  0.00    -0.027 A 
HETATM   24  C   UNL     1      43.157 -16.738   4.246  1.00  0.00     0.028 A 
HETATM   25  C   UNL     1      43.508 -18.082   4.111  1.00  0.00     0.011 A 
HETATM   26 BR   UNL     1      43.374 -19.236   5.603  1.00  0.00    -0.051 Br
HETATM   27  C   UNL     1      43.957 -18.578   2.892  1.00  0.00     0.019 A 
HETATM   28  C   UNL     1      44.054 -17.725   1.793  1.00  0.00     0.002 A 
HETATM   29  C   UNL     1      43.704 -16.378   1.917  1.00  0.00     0.010 A 
ENDBRANCH   2  23
BRANCH   7  30
HETATM   30  C   UNL     1      44.778 -13.514   7.757  1.00  0.00     0.085 C 
BRANCH  30  31
HETATM   31  C   UNL     1      46.156 -12.941   7.438  1.00  0.00     0.034 C 
BRANCH  31  32
HETATM   32  C   UNL     1      46.634 -11.924   8.467  1.00  0.00     0.164 C 
BRANCH  32  33
HETATM   33  O   UNL     1      47.397 -10.912   7.818  1.00  0.00    -0.401 OA
HETATM   34  H   UNL     1      46.918 -10.072   7.923  1.00  0.00     0.209 HD
ENDBRANCH  32  33
ENDBRANCH  31  32
ENDBRANCH  30  31
ENDBRANCH   7  30
TORSDOF 7
ENDMDL
MODEL 10
REMARK VINA RESULT:      -7.2      3.307      6.216
REMARK  7 active torsions:
REMARK  status: ('A' for Active; 'I' for Inactive)
REMARK    1  A    between atoms: C_3  and  N_4 
REMARK       I    between atoms: N_4  and  C_5 
REMARK    2  A    between atoms: C_5  and  C_6 
REMARK    3  A    between atoms: C_7  and  C_8 
REMARK    4  A    between atoms: C_19  and  C_20 
REMARK    5  A    between atoms: C_20  and  C_21 
REMARK    6  A    between atoms: C_21  and  C_22 
REMARK    7  A    between atoms: C_22  and  O_23 
ROOT
HETATM    1  C   UNL     1      41.154 -13.611   3.513  1.00  0.00     0.062 A 
HETATM    2  C   UNL     1      42.457 -14.242   3.987  1.00  0.00     0.202 A 
HETATM    3  N   UNL     1      42.879 -13.690   5.281  1.00  0.00    -0.083 N 
HETATM    4  C   UNL     1      42.224 -12.679   5.931  1.00  0.00     0.726 A 
HETATM    5  N   UNL     1      41.112 -12.153   5.386  1.00  0.00    -0.192 N 
HETATM    6  N   UNL     1      44.023 -14.021   5.920  1.00  0.00    -0.140 NA
HETATM    7  C   UNL     1      43.937 -13.239   7.007  1.00  0.00     0.166 A 
HETATM    8  N   UNL     1      42.857 -12.389   7.038  1.00  0.00    -0.046 NA
HETATM    9  C   UNL     1      40.544 -12.620   4.206  1.00  0.00     0.037 A 
HETATM   10  C   UNL     1      39.256 -11.953   3.790  1.00  0.00     0.070 C 
HETATM   11  H   UNL     1      40.611 -11.432   5.898  1.00  0.00     0.184 HD
ENDROOT
BRANCH   1  12
HETATM   12  C   UNL     1      40.487 -14.219   2.330  1.00  0.00     0.256 C 
HETATM   13  N   UNL     1      40.997 -13.774   1.130  1.00  0.00    -0.323 N 
HETATM   14  H   UNL     1      41.691 -13.042   1.166  1.00  0.00     0.169 HD
HETATM   15  O   UNL     1      39.574 -15.014   2.512  1.00  0.00    -0.267 OA
BRANCH  13  16
HETATM   16  C   UNL     1      40.624 -14.204  -0.169  1.00  0.00     0.041 A 
HETATM   17  C   UNL     1      39.495 -13.620  -0.786  1.00  0.00    -0.035 A 
HETATM   18  C   UNL     1      38.671 -12.548  -0.125  1.00  0.00     0.050 C 
HETATM   19  C   UNL     1      39.128 -14.027  -2.083  1.00  0.00     0.009 A 
HETATM   20  C   UNL     1      39.855 -15.002  -2.761  1.00  0.00     0.001 A 
HETATM   21  C   UNL     1      40.964 -15.577  -2.155  1.00  0.00     0.002 A 
HETATM   22  C   UNL     1      41.346 -15.178  -0.872  1.00  0.00     0.030 A 
ENDBRANCH  13  16
ENDBRANCH   1  12
BRANCH   2  23
HETATM   23  C   UNL     1      42.424 -15.766   4.038  1.00  0.00    -0.027 A 
HETATM   24  C   UNL     1      43.101 -16.509   3.055  1.00  0.00     0.028 A 
HETATM   25  C   UNL     1      43.061 -17.904   3.076  1.00  0.00     0.011 A 
HETATM   26 BR   UNL     1      43.971 -18.884   1.739  1.00  0.00    -0.051 Br
HETATM   27  C   UNL     1      42.355 -18.577   4.067  1.00  0.00     0.019 A 
HETATM   28  C   UNL     1      41.686 -17.851   5.052  1.00  0.00     0.002 A 
HETATM   29  C   UNL     1      41.721 -16.455   5.042  1.00  0.00     0.010 A 
ENDBRANCH   2  23
BRANCH   7  30
HETATM   30  C   UNL     1      44.942 -13.264   8.098  1.00  0.00     0.085 C 
BRANCH  30  31
HETATM   31  C   UNL     1      45.018 -11.960   8.886  1.00  0.00     0.034 C 
BRANCH  31  32
HETATM   32  C   UNL     1      44.826 -12.154  10.385  1.00  0.00     0.164 C 
BRANCH  32  33
HETATM   33  O   UNL     1      43.971 -13.269  10.616  1.00  0.00    -0.401 OA
HETATM   34  H   UNL     1      44.155 -13.600  11.511  1.00  0.00     0.209 HD
ENDBRANCH  32  33
ENDBRANCH  31  32
ENDBRANCH  30  31
ENDBRANCH   7  30
TORSDOF 7
ENDMDL
