MODEL 1
REMARK VINA RESULT:      -7.6      0.000      0.000
REMARK  10 active torsions:
REMARK  status: ('A' for Active; 'I' for Inactive)
REMARK    1  A    between atoms: C_2  and  O_3 
REMARK    2  A    between atoms: O_3  and  C_4 
REMARK    3  A    between atoms: C_4  and  C_5 
REMARK    4  A    between atoms: C_6  and  C_7 
REMARK    5  A    between atoms: C_14  and  C_15 
REMARK    6  A    between atoms: C_15  and  C_16 
REMARK       I    between atoms: C_16  and  N_17 
REMARK    7  A    between atoms: N_17  and  C_18 
REMARK    8  A    between atoms: C_18  and  C_19 
REMARK    9  A    between atoms: C_19  and  N_20 
REMARK   10  A    between atoms: C_31  and  C_32 
ROOT
HETATM    1  C   UNL     1      41.335 -13.460   1.236  1.00  0.00     0.074 C 
HETATM    2  C   UNL     1      42.190 -14.072   2.322  1.00  0.00     0.166 C 
HETATM    3  N   UNL     1      41.615 -13.895   3.677  1.00  0.00    -0.318 N 
HETATM    4  C   UNL     1      42.075 -14.069   4.875  1.00  0.00     0.011 C 
HETATM    5  C   UNL     1      40.097 -13.631   3.677  1.00  0.00     0.170 C 
HETATM    6  S   UNL     1      39.414 -13.747   5.262  1.00  0.00    -0.086 SA
HETATM    7  C   UNL     1      41.063 -13.899   5.989  1.00  0.00     0.135 C 
HETATM    8  N   UNL     1      39.390 -13.370   2.643  1.00  0.00    -0.223 NA
HETATM    9  C   UNL     1      40.017 -13.218   1.426  1.00  0.00     0.084 C 
ENDROOT
BRANCH   4  10
HETATM   10  C   UNL     1      43.496 -14.522   5.105  1.00  0.00     0.156 C 
BRANCH  10  11
HETATM   11  C   UNL     1      43.794 -15.171   6.448  1.00  0.00     0.223 C 
HETATM   12  N   UNL     1      43.302 -16.443   6.584  1.00  0.00    -0.359 N 
HETATM   13  H   UNL     1      42.723 -16.810   5.833  1.00  0.00     0.162 HD
HETATM   14  O   UNL     1      44.414 -14.601   7.339  1.00  0.00    -0.273 OA
BRANCH  12  15
HETATM   15  C   UNL     1      43.415 -17.339   7.745  1.00  0.00     0.150 C 
BRANCH  15  16
HETATM   16  C   UNL     1      44.177 -18.678   7.621  1.00  0.00     0.254 C 
BRANCH  16  17
HETATM   17  N   UNL     1      43.844 -19.433   6.361  1.00  0.00    -0.070 N 
HETATM   18  H   UNL     1      42.879 -19.131   6.124  1.00  0.00     0.279 HD
HETATM   19  C   UNL     1      43.770 -20.942   6.537  1.00  0.00     0.235 C 
HETATM   20  C   UNL     1      44.693 -21.505   5.472  1.00  0.00     0.029 C 
HETATM   21  C   UNL     1      44.670 -20.455   4.381  1.00  0.00     0.029 C 
HETATM   22  C   UNL     1      44.727 -19.163   5.166  1.00  0.00     0.235 C 
ENDBRANCH  16  17
ENDBRANCH  15  16
ENDBRANCH  12  15
ENDBRANCH  10  11
ENDBRANCH   4  10
BRANCH   2  23
HETATM   23  C   UNL     1      42.456 -15.561   2.096  1.00  0.00    -0.030 A 
HETATM   24  C   UNL     1      43.780 -16.037   2.063  1.00  0.00     0.009 A 
HETATM   25  C   UNL     1      44.045 -17.394   1.876  1.00  0.00     0.001 A 
HETATM   26  C   UNL     1      42.996 -18.295   1.714  1.00  0.00     0.000 A 
HETATM   27  C   UNL     1      41.681 -17.840   1.723  1.00  0.00     0.001 A 
HETATM   28  C   UNL     1      41.408 -16.484   1.906  1.00  0.00     0.009 A 
ENDBRANCH   2  23
BRANCH   1  29
HETATM   29  C   UNL     1      42.137 -13.160   0.012  1.00  0.00     0.294 C 
HETATM   30  O   UNL     1      42.737 -12.100  -0.102  1.00  0.00    -0.259 OA
BRANCH  29  31
HETATM   31  O   UNL     1      41.996 -14.087  -0.951  1.00  0.00    -0.318 OA
BRANCH  31  32
HETATM   32  C   UNL     1      41.772 -13.609  -2.289  1.00  0.00     0.174 C 
HETATM   33  C   UNL     1      41.064 -14.669  -3.112  1.00  0.00     0.034 C 
ENDBRANCH  31  32
ENDBRANCH  29  31
ENDBRANCH   1  29
BRANCH   9  34
HETATM   34  C   UNL     1      39.092 -12.787   0.351  1.00  0.00    -0.006 A 
HETATM   35  C   UNL     1      38.862 -11.424   0.109  1.00  0.00     0.014 A 
HETATM   36  C   UNL     1      38.034 -11.024  -0.943  1.00  0.00     0.001 A 
HETATM   37  C   UNL     1      37.446 -11.980  -1.769  1.00  0.00     0.000 A 
HETATM   38  C   UNL     1      37.683 -13.334  -1.548  1.00  0.00     0.001 A 
HETATM   39  C   UNL     1      38.505 -13.738  -0.495  1.00  0.00     0.014 A 
ENDBRANCH   9  34
TORSDOF 10
ENDMDL
MODEL 2
REMARK VINA RESULT:      -7.6      1.843      3.036
REMARK  10 active torsions:
REMARK  status: ('A' for Active; 'I' for Inactive)
REMARK    1  A    between atoms: C_2  and  O_3 
REMARK    2  A    between atoms: O_3  and  C_4 
REMARK    3  A    between atoms: C_4  and  C_5 
REMARK    4  A    between atoms: C_6  and  C_7 
REMARK    5  A    between atoms: C_14  and  C_15 
REMARK    6  A    between atoms: C_15  and  C_16 
REMARK       I    between atoms: C_16  and  N_17 
REMARK    7  A    between atoms: N_17  and  C_18 
REMARK    8  A    between atoms: C_18  and  C_19 
REMARK    9  A    between atoms: C_19  and  N_20 
REMARK   10  A    between atoms: C_31  and  C_32 
ROOT
HETATM    1  C   UNL     1      40.489 -13.927  -1.105  1.00  0.00     0.074 C 
HETATM    2  C   UNL     1      41.305 -13.988   0.167  1.00  0.00     0.166 C 
HETATM    3  N   UNL     1      40.777 -13.103   1.233  1.00  0.00    -0.318 N 
HETATM    4  C   UNL     1      41.243 -12.694   2.370  1.00  0.00     0.011 C 
HETATM    5  C   UNL     1      39.291 -12.734   1.055  1.00  0.00     0.170 C 
HETATM    6  S   UNL     1      38.633 -11.976   2.463  1.00  0.00    -0.086 SA
HETATM    7  C   UNL     1      40.275 -11.896   3.218  1.00  0.00     0.135 C 
HETATM    8  N   UNL     1      38.591 -12.964   0.008  1.00  0.00    -0.223 NA
HETATM    9  C   UNL     1      39.205 -13.502  -1.101  1.00  0.00     0.084 C 
ENDROOT
BRANCH   4  10
HETATM   10  C   UNL     1      42.619 -13.101   2.839  1.00  0.00     0.156 C 
BRANCH  10  11
HETATM   11  C   UNL     1      42.683 -13.988   4.072  1.00  0.00     0.223 C 
HETATM   12  N   UNL     1      41.561 -14.748   4.282  1.00  0.00    -0.359 N 
HETATM   13  H   UNL     1      40.767 -14.602   3.663  1.00  0.00     0.162 HD
HETATM   14  O   UNL     1      43.652 -14.014   4.823  1.00  0.00    -0.273 OA
BRANCH  12  15
HETATM   15  C   UNL     1      41.303 -15.701   5.371  1.00  0.00     0.150 C 
BRANCH  15  16
HETATM   16  C   UNL     1      41.869 -17.138   5.297  1.00  0.00     0.254 C 
BRANCH  16  17
HETATM   17  N   UNL     1      43.374 -17.183   5.355  1.00  0.00    -0.070 N 
HETATM   18  H   UNL     1      43.680 -16.311   4.881  1.00  0.00     0.279 HD
HETATM   19  C   UNL     1      43.997 -18.321   4.561  1.00  0.00     0.235 C 
HETATM   20  C   UNL     1      44.907 -19.031   5.546  1.00  0.00     0.029 C 
HETATM   21  C   UNL     1      45.294 -17.947   6.529  1.00  0.00     0.029 C 
HETATM   22  C   UNL     1      43.990 -17.208   6.734  1.00  0.00     0.235 C 
ENDBRANCH  16  17
ENDBRANCH  15  16
ENDBRANCH  12  15
ENDBRANCH  10  11
ENDBRANCH   4  10
BRANCH   2  23
HETATM   23  C   UNL     1      41.423 -15.407   0.726  1.00  0.00    -0.030 A 
HETATM   24  C   UNL     1      40.303 -16.019   1.317  1.00  0.00     0.009 A 
HETATM   25  C   UNL     1      40.383 -17.319   1.818  1.00  0.00     0.001 A 
HETATM   26  C   UNL     1      41.581 -18.025   1.741  1.00  0.00     0.000 A 
HETATM   27  C   UNL     1      42.705 -17.428   1.179  1.00  0.00     0.001 A 
HETATM   28  C   UNL     1      42.634 -16.127   0.680  1.00  0.00     0.009 A 
ENDBRANCH   2  23
BRANCH   1  29
HETATM   29  C   UNL     1      41.292 -14.357  -2.289  1.00  0.00     0.294 C 
HETATM   30  O   UNL     1      41.237 -15.506  -2.703  1.00  0.00    -0.259 OA
BRANCH  29  31
HETATM   31  O   UNL     1      42.145 -13.410  -2.718  1.00  0.00    -0.318 OA
BRANCH  31  32
HETATM   32  C   UNL     1      41.655 -12.493  -3.712  1.00  0.00     0.174 C 
HETATM   33  C   UNL     1      42.361 -11.156  -3.584  1.00  0.00     0.034 C 
ENDBRANCH  31  32
ENDBRANCH  29  31
ENDBRANCH   1  29
BRANCH   9  34
HETATM   34  C   UNL     1      38.304 -13.583  -2.275  1.00  0.00    -0.006 A 
HETATM   35  C   UNL     1      37.879 -14.827  -2.766  1.00  0.00     0.014 A 
HETATM   36  C   UNL     1      36.983 -14.894  -3.837  1.00  0.00     0.001 A 
HETATM   37  C   UNL     1      36.494 -13.723  -4.411  1.00  0.00     0.000 A 
HETATM   38  C   UNL     1      36.896 -12.484  -3.919  1.00  0.00     0.001 A 
HETATM   39  C   UNL     1      37.795 -12.412  -2.854  1.00  0.00     0.014 A 
ENDBRANCH   9  34
TORSDOF 10
ENDMDL
MODEL 3
REMARK VINA RESULT:      -7.5      1.610      2.128
REMARK  10 active torsions:
REMARK  status: ('A' for Active; 'I' for Inactive)
REMARK    1  A    between atoms: C_2  and  O_3 
REMARK    2  A    between atoms: O_3  and  C_4 
REMARK    3  A    between atoms: C_4  and  C_5 
REMARK    4  A    between atoms: C_6  and  C_7 
REMARK    5  A    between atoms: C_14  and  C_15 
REMARK    6  A    between atoms: C_15  and  C_16 
REMARK       I    between atoms: C_16  and  N_17 
REMARK    7  A    between atoms: N_17  and  C_18 
REMARK    8  A    between atoms: C_18  and  C_19 
REMARK    9  A    between atoms: C_19  and  N_20 
REMARK   10  A    between atoms: C_31  and  C_32 
ROOT
HETATM    1  C   UNL     1      40.599 -12.680   1.358  1.00  0.00     0.074 C 
HETATM    2  C   UNL     1      41.530 -13.558   2.165  1.00  0.00     0.166 C 
HETATM    3  N   UNL     1      41.346 -13.403   3.627  1.00  0.00    -0.318 N 
HETATM    4  C   UNL     1      42.026 -13.785   4.661  1.00  0.00     0.011 C 
HETATM    5  C   UNL     1      39.968 -12.838   4.023  1.00  0.00     0.170 C 
HETATM    6  S   UNL     1      39.671 -12.969   5.722  1.00  0.00    -0.086 SA
HETATM    7  C   UNL     1      41.369 -13.525   6.001  1.00  0.00     0.135 C 
HETATM    8  N   UNL     1      39.112 -12.337   3.213  1.00  0.00    -0.223 NA
HETATM    9  C   UNL     1      39.451 -12.196   1.886  1.00  0.00     0.084 C 
ENDROOT
BRANCH   4  10
HETATM   10  C   UNL     1      43.325 -14.538   4.504  1.00  0.00     0.156 C 
BRANCH  10  11
HETATM   11  C   UNL     1      43.393 -15.917   5.141  1.00  0.00     0.223 C 
HETATM   12  N   UNL     1      43.069 -16.948   4.299  1.00  0.00    -0.359 N 
HETATM   13  H   UNL     1      42.738 -16.712   3.366  1.00  0.00     0.162 HD
HETATM   14  O   UNL     1      43.701 -16.092   6.316  1.00  0.00    -0.273 OA
BRANCH  12  15
HETATM   15  C   UNL     1      43.037 -18.387   4.598  1.00  0.00     0.150 C 
BRANCH  15  16
HETATM   16  C   UNL     1      44.349 -19.149   4.892  1.00  0.00     0.254 C 
BRANCH  16  17
HETATM   17  N   UNL     1      44.800 -20.013   3.743  1.00  0.00    -0.070 N 
HETATM   18  H   UNL     1      45.807 -19.784   3.625  1.00  0.00     0.279 HD
HETATM   19  C   UNL     1      44.145 -19.675   2.413  1.00  0.00     0.235 C 
HETATM   20  C   UNL     1      43.582 -20.992   1.910  1.00  0.00     0.029 C 
HETATM   21  C   UNL     1      44.485 -22.035   2.534  1.00  0.00     0.029 C 
HETATM   22  C   UNL     1      44.678 -21.504   3.939  1.00  0.00     0.235 C 
ENDBRANCH  16  17
ENDBRANCH  15  16
ENDBRANCH  12  15
ENDBRANCH  10  11
ENDBRANCH   4  10
BRANCH   2  23
HETATM   23  C   UNL     1      41.399 -15.040   1.811  1.00  0.00    -0.030 A 
HETATM   24  C   UNL     1      42.423 -15.679   1.088  1.00  0.00     0.009 A 
HETATM   25  C   UNL     1      42.332 -17.034   0.769  1.00  0.00     0.001 A 
HETATM   26  C   UNL     1      41.218 -17.771   1.162  1.00  0.00     0.000 A 
HETATM   27  C   UNL     1      40.185 -17.152   1.859  1.00  0.00     0.001 A 
HETATM   28  C   UNL     1      40.267 -15.795   2.178  1.00  0.00     0.009 A 
ENDBRANCH   2  23
BRANCH   1  29
HETATM   29  C   UNL     1      41.136 -12.429  -0.013  1.00  0.00     0.294 C 
HETATM   30  O   UNL     1      41.978 -11.565  -0.210  1.00  0.00    -0.259 OA
BRANCH  29  31
HETATM   31  O   UNL     1      40.496 -13.131  -0.965  1.00  0.00    -0.318 OA
BRANCH  31  32
HETATM   32  C   UNL     1      41.314 -13.861  -1.896  1.00  0.00     0.174 C 
HETATM   33  C   UNL     1      40.738 -15.247  -2.123  1.00  0.00     0.034 C 
ENDBRANCH  31  32
ENDBRANCH  29  31
ENDBRANCH   1  29
BRANCH   9  34
HETATM   34  C   UNL     1      38.418 -11.481   1.101  1.00  0.00    -0.006 A 
HETATM   35  C   UNL     1      37.352 -12.181   0.514  1.00  0.00     0.014 A 
HETATM   36  C   UNL     1      36.350 -11.493  -0.175  1.00  0.00     0.001 A 
HETATM   37  C   UNL     1      36.396 -10.104  -0.269  1.00  0.00     0.000 A 
HETATM   38  C   UNL     1      37.441  -9.398   0.324  1.00  0.00     0.001 A 
HETATM   39  C   UNL     1      38.446 -10.082   1.010  1.00  0.00     0.014 A 
ENDBRANCH   9  34
TORSDOF 10
ENDMDL
MODEL 4
REMARK VINA RESULT:      -7.4      3.860      9.108
REMARK  10 active torsions:
REMARK  status: ('A' for Active; 'I' for Inactive)
REMARK    1  A    between atoms: C_2  and  O_3 
REMARK    2  A    between atoms: O_3  and  C_4 
REMARK    3  A    between atoms: C_4  and  C_5 
REMARK    4  A    between atoms: C_6  and  C_7 
REMARK    5  A    between atoms: C_14  and  C_15 
REMARK    6  A    between atoms: C_15  and  C_16 
REMARK       I    between atoms: C_16  and  N_17 
REMARK    7  A    between atoms: N_17  and  C_18 
REMARK    8  A    between atoms: C_18  and  C_19 
REMARK    9  A    between atoms: C_19  and  N_20 
REMARK   10  A    between atoms: C_31  and  C_32 
ROOT
HETATM    1  C   UNL     1      42.043 -14.036   3.764  1.00  0.00     0.074 C 
HETATM    2  C   UNL     1      41.185 -12.791   3.706  1.00  0.00     0.166 C 
HETATM    3  N   UNL     1      40.095 -12.889   2.706  1.00  0.00    -0.318 N 
HETATM    4  C   UNL     1      39.274 -12.030   2.189  1.00  0.00     0.011 C 
HETATM    5  C   UNL     1      39.722 -14.337   2.333  1.00  0.00     0.170 C 
HETATM    6  S   UNL     1      38.255 -14.419   1.421  1.00  0.00    -0.086 SA
HETATM    7  C   UNL     1      38.205 -12.616   1.291  1.00  0.00     0.135 C 
HETATM    8  N   UNL     1      40.388 -15.381   2.657  1.00  0.00    -0.223 NA
HETATM    9  C   UNL     1      41.587 -15.229   3.318  1.00  0.00     0.084 C 
ENDROOT
BRANCH   4  10
HETATM   10  C   UNL     1      39.335 -10.570   2.569  1.00  0.00     0.156 C 
BRANCH  10  11
HETATM   11  C   UNL     1      38.125 -10.007   3.298  1.00  0.00     0.223 C 
HETATM   12  N   UNL     1      37.329  -9.195   2.533  1.00  0.00    -0.359 N 
HETATM   13  H   UNL     1      37.645  -8.972   1.592  1.00  0.00     0.162 HD
HETATM   14  O   UNL     1      37.887 -10.250   4.477  1.00  0.00    -0.273 OA
BRANCH  12  15
HETATM   15  C   UNL     1      36.097  -8.498   2.931  1.00  0.00     0.150 C 
BRANCH  15  16
HETATM   16  C   UNL     1      34.717  -9.070   2.529  1.00  0.00     0.254 C 
BRANCH  16  17
HETATM   17  N   UNL     1      33.965  -9.667   3.690  1.00  0.00    -0.070 N 
HETATM   18  H   UNL     1      34.425 -10.584   3.854  1.00  0.00     0.279 HD
HETATM   19  C   UNL     1      32.509  -9.988   3.393  1.00  0.00     0.235 C 
HETATM   20  C   UNL     1      31.725  -9.301   4.496  1.00  0.00     0.029 C 
HETATM   21  C   UNL     1      32.696  -9.257   5.657  1.00  0.00     0.029 C 
HETATM   22  C   UNL     1      33.999  -8.887   4.982  1.00  0.00     0.235 C 
ENDBRANCH  16  17
ENDBRANCH  15  16
ENDBRANCH  12  15
ENDBRANCH  10  11
ENDBRANCH   4  10
BRANCH   2  23
HETATM   23  C   UNL     1      40.573 -12.432   5.061  1.00  0.00    -0.030 A 
HETATM   24  C   UNL     1      40.957 -11.243   5.708  1.00  0.00     0.009 A 
HETATM   25  C   UNL     1      40.398 -10.888   6.936  1.00  0.00     0.001 A 
HETATM   26  C   UNL     1      39.453 -11.714   7.539  1.00  0.00     0.000 A 
HETATM   27  C   UNL     1      39.077 -12.904   6.925  1.00  0.00     0.001 A 
HETATM   28  C   UNL     1      39.634 -13.269   5.698  1.00  0.00     0.009 A 
ENDBRANCH   2  23
BRANCH   1  29
HETATM   29  C   UNL     1      43.394 -13.742   4.328  1.00  0.00     0.294 C 
HETATM   30  O   UNL     1      44.367 -13.618   3.598  1.00  0.00    -0.259 OA
BRANCH  29  31
HETATM   31  O   UNL     1      43.424 -13.783   5.672  1.00  0.00    -0.318 OA
BRANCH  31  32
HETATM   32  C   UNL     1      44.625 -14.284   6.283  1.00  0.00     0.174 C 
HETATM   33  C   UNL     1      44.378 -15.663   6.868  1.00  0.00     0.034 C 
ENDBRANCH  31  32
ENDBRANCH  29  31
ENDBRANCH   1  29
BRANCH   9  34
HETATM   34  C   UNL     1      42.307 -16.511   3.506  1.00  0.00    -0.006 A 
HETATM   35  C   UNL     1      43.316 -16.904   2.614  1.00  0.00     0.014 A 
HETATM   36  C   UNL     1      44.029 -18.085   2.830  1.00  0.00     0.001 A 
HETATM   37  C   UNL     1      43.752 -18.873   3.946  1.00  0.00     0.000 A 
HETATM   38  C   UNL     1      42.765 -18.482   4.848  1.00  0.00     0.001 A 
HETATM   39  C   UNL     1      42.046 -17.305   4.633  1.00  0.00     0.014 A 
ENDBRANCH   9  34
TORSDOF 10
ENDMDL
MODEL 5
REMARK VINA RESULT:      -7.4      4.234      8.213
REMARK  10 active torsions:
REMARK  status: ('A' for Active; 'I' for Inactive)
REMARK    1  A    between atoms: C_2  and  O_3 
REMARK    2  A    between atoms: O_3  and  C_4 
REMARK    3  A    between atoms: C_4  and  C_5 
REMARK    4  A    between atoms: C_6  and  C_7 
REMARK    5  A    between atoms: C_14  and  C_15 
REMARK    6  A    between atoms: C_15  and  C_16 
REMARK       I    between atoms: C_16  and  N_17 
REMARK    7  A    between atoms: N_17  and  C_18 
REMARK    8  A    between atoms: C_18  and  C_19 
REMARK    9  A    between atoms: C_19  and  N_20 
REMARK   10  A    between atoms: C_31  and  C_32 
ROOT
HETATM    1  C   UNL     1      42.210 -16.089   5.888  1.00  0.00     0.074 C 
HETATM    2  C   UNL     1      41.921 -14.605   5.892  1.00  0.00     0.166 C 
HETATM    3  N   UNL     1      42.921 -13.824   6.660  1.00  0.00    -0.318 N 
HETATM    4  C   UNL     1      42.968 -12.602   7.086  1.00  0.00     0.011 C 
HETATM    5  C   UNL     1      44.272 -14.546   6.832  1.00  0.00     0.170 C 
HETATM    6  S   UNL     1      45.500 -13.494   7.445  1.00  0.00    -0.086 SA
HETATM    7  C   UNL     1      44.281 -12.186   7.717  1.00  0.00     0.135 C 
HETATM    8  N   UNL     1      44.498 -15.773   6.549  1.00  0.00    -0.223 NA
HETATM    9  C   UNL     1      43.450 -16.568   6.138  1.00  0.00     0.084 C 
ENDROOT
BRANCH   4  10
HETATM   10  C   UNL     1      41.820 -11.651   6.851  1.00  0.00     0.156 C 
BRANCH  10  11
HETATM   11  C   UNL     1      41.480 -10.701   7.989  1.00  0.00     0.223 C 
HETATM   12  N   UNL     1      40.576 -11.199   8.891  1.00  0.00    -0.359 N 
HETATM   13  H   UNL     1      40.154 -12.102   8.690  1.00  0.00     0.162 HD
HETATM   14  O   UNL     1      41.966  -9.579   8.086  1.00  0.00    -0.273 OA
BRANCH  12  15
HETATM   15  C   UNL     1      40.041 -10.542  10.094  1.00  0.00     0.150 C 
BRANCH  15  16
HETATM   16  C   UNL     1      40.456 -11.037  11.499  1.00  0.00     0.254 C 
BRANCH  16  17
HETATM   17  N   UNL     1      41.277 -10.030  12.260  1.00  0.00    -0.070 N 
HETATM   18  H   UNL     1      40.714  -9.157  12.229  1.00  0.00     0.279 HD
HETATM   19  C   UNL     1      42.605  -9.682  11.606  1.00  0.00     0.235 C 
HETATM   20  C   UNL     1      43.643  -9.900  12.692  1.00  0.00     0.029 C 
HETATM   21  C   UNL     1      42.879  -9.663  13.977  1.00  0.00     0.029 C 
HETATM   22  C   UNL     1      41.560 -10.354  13.707  1.00  0.00     0.235 C 
ENDBRANCH  16  17
ENDBRANCH  15  16
ENDBRANCH  12  15
ENDBRANCH  10  11
ENDBRANCH   4  10
BRANCH   2  23
HETATM   23  C   UNL     1      41.823 -14.018   4.482  1.00  0.00    -0.030 A 
HETATM   24  C   UNL     1      40.594 -13.513   4.020  1.00  0.00     0.009 A 
HETATM   25  C   UNL     1      40.487 -12.958   2.744  1.00  0.00     0.001 A 
HETATM   26  C   UNL     1      41.600 -12.903   1.910  1.00  0.00     0.000 A 
HETATM   27  C   UNL     1      42.819 -13.417   2.342  1.00  0.00     0.001 A 
HETATM   28  C   UNL     1      42.934 -13.978   3.615  1.00  0.00     0.009 A 
ENDBRANCH   2  23
BRANCH   1  29
HETATM   29  C   UNL     1      40.977 -16.885   5.613  1.00  0.00     0.294 C 
HETATM   30  O   UNL     1      40.046 -16.898   6.406  1.00  0.00    -0.259 OA
BRANCH  29  31
HETATM   31  O   UNL     1      41.083 -17.658   4.518  1.00  0.00    -0.318 OA
BRANCH  31  32
HETATM   32  C   UNL     1      40.850 -17.025   3.248  1.00  0.00     0.174 C 
HETATM   33  C   UNL     1      41.946 -17.400   2.268  1.00  0.00     0.034 C 
ENDBRANCH  31  32
ENDBRANCH  29  31
ENDBRANCH   1  29
BRANCH   9  34
HETATM   34  C   UNL     1      43.835 -17.990   5.978  1.00  0.00    -0.006 A 
HETATM   35  C   UNL     1      43.555 -18.925   6.987  1.00  0.00     0.014 A 
HETATM   36  C   UNL     1      43.869 -20.274   6.804  1.00  0.00     0.001 A 
HETATM   37  C   UNL     1      44.446 -20.701   5.610  1.00  0.00     0.000 A 
HETATM   38  C   UNL     1      44.712 -19.784   4.596  1.00  0.00     0.001 A 
HETATM   39  C   UNL     1      44.405 -18.434   4.776  1.00  0.00     0.014 A 
ENDBRANCH   9  34
TORSDOF 10
ENDMDL
MODEL 6
REMARK VINA RESULT:      -7.3      2.337      4.095
REMARK  10 active torsions:
REMARK  status: ('A' for Active; 'I' for Inactive)
REMARK    1  A    between atoms: C_2  and  O_3 
REMARK    2  A    between atoms: O_3  and  C_4 
REMARK    3  A    between atoms: C_4  and  C_5 
REMARK    4  A    between atoms: C_6  and  C_7 
REMARK    5  A    between atoms: C_14  and  C_15 
REMARK    6  A    between atoms: C_15  and  C_16 
REMARK       I    between atoms: C_16  and  N_17 
REMARK    7  A    between atoms: N_17  and  C_18 
REMARK    8  A    between atoms: C_18  and  C_19 
REMARK    9  A    between atoms: C_19  and  N_20 
REMARK   10  A    between atoms: C_31  and  C_32 
ROOT
HETATM    1  C   UNL     1      40.058 -14.588   1.110  1.00  0.00     0.074 C 
HETATM    2  C   UNL     1      40.175 -15.245   2.467  1.00  0.00     0.166 C 
HETATM    3  N   UNL     1      41.107 -16.397   2.472  1.00  0.00    -0.318 N 
HETATM    4  C   UNL     1      41.358 -17.343   3.320  1.00  0.00     0.011 C 
HETATM    5  C   UNL     1      42.130 -16.373   1.319  1.00  0.00     0.170 C 
HETATM    6  S   UNL     1      43.386 -17.542   1.535  1.00  0.00    -0.086 SA
HETATM    7  C   UNL     1      42.522 -18.244   2.961  1.00  0.00     0.135 C 
HETATM    8  N   UNL     1      42.094 -15.583   0.313  1.00  0.00    -0.223 NA
HETATM    9  C   UNL     1      41.020 -14.731   0.170  1.00  0.00     0.084 C 
ENDROOT
BRANCH   4  10
HETATM   10  C   UNL     1      40.600 -17.442   4.622  1.00  0.00     0.156 C 
BRANCH  10  11
HETATM   11  C   UNL     1      41.353 -17.036   5.879  1.00  0.00     0.223 C 
HETATM   12  N   UNL     1      42.538 -16.388   5.646  1.00  0.00    -0.359 N 
HETATM   13  H   UNL     1      42.852 -16.306   4.682  1.00  0.00     0.162 HD
HETATM   14  O   UNL     1      40.940 -17.277   7.008  1.00  0.00    -0.273 OA
BRANCH  12  15
HETATM   15  C   UNL     1      43.496 -15.868   6.633  1.00  0.00     0.150 C 
BRANCH  15  16
HETATM   16  C   UNL     1      44.946 -16.403   6.665  1.00  0.00     0.254 C 
BRANCH  16  17
HETATM   17  N   UNL     1      45.024 -17.875   6.975  1.00  0.00    -0.070 N 
HETATM   18  H   UNL     1      45.980 -18.010   7.360  1.00  0.00     0.279 HD
HETATM   19  C   UNL     1      44.946 -18.777   5.752  1.00  0.00     0.235 C 
HETATM   20  C   UNL     1      43.835 -19.762   6.065  1.00  0.00     0.029 C 
HETATM   21  C   UNL     1      43.838 -19.845   7.576  1.00  0.00     0.029 C 
HETATM   22  C   UNL     1      44.032 -18.401   7.984  1.00  0.00     0.235 C 
ENDBRANCH  16  17
ENDBRANCH  15  16
ENDBRANCH  12  15
ENDBRANCH  10  11
ENDBRANCH   4  10
BRANCH   2  23
HETATM   23  C   UNL     1      40.605 -14.266   3.561  1.00  0.00    -0.030 A 
HETATM   24  C   UNL     1      41.828 -13.581   3.443  1.00  0.00     0.009 A 
HETATM   25  C   UNL     1      42.232 -12.671   4.421  1.00  0.00     0.001 A 
HETATM   26  C   UNL     1      41.426 -12.434   5.531  1.00  0.00     0.000 A 
HETATM   27  C   UNL     1      40.222 -13.117   5.675  1.00  0.00     0.001 A 
HETATM   28  C   UNL     1      39.813 -14.032   4.704  1.00  0.00     0.009 A 
ENDBRANCH   2  23
BRANCH   1  29
HETATM   29  C   UNL     1      38.776 -13.833   0.977  1.00  0.00     0.294 C 
HETATM   30  O   UNL     1      37.731 -14.409   0.710  1.00  0.00    -0.259 OA
BRANCH  29  31
HETATM   31  O   UNL     1      38.942 -12.500   1.035  1.00  0.00    -0.318 OA
BRANCH  31  32
HETATM   32  C   UNL     1      37.907 -11.742   1.685  1.00  0.00     0.174 C 
HETATM   33  C   UNL     1      38.426 -11.157   2.985  1.00  0.00     0.034 C 
ENDBRANCH  31  32
ENDBRANCH  29  31
ENDBRANCH   1  29
BRANCH   9  34
HETATM   34  C   UNL     1      41.049 -13.978  -1.106  1.00  0.00    -0.006 A 
HETATM   35  C   UNL     1      41.772 -12.780  -1.214  1.00  0.00     0.014 A 
HETATM   36  C   UNL     1      41.842 -12.106  -2.436  1.00  0.00     0.001 A 
HETATM   37  C   UNL     1      41.205 -12.631  -3.559  1.00  0.00     0.000 A 
HETATM   38  C   UNL     1      40.500 -13.828  -3.466  1.00  0.00     0.001 A 
HETATM   39  C   UNL     1      40.423 -14.502  -2.246  1.00  0.00     0.014 A 
ENDBRANCH   9  34
TORSDOF 10
ENDMDL
MODEL 7
REMARK VINA RESULT:      -7.3      3.695      6.401
REMARK  10 active torsions:
REMARK  status: ('A' for Active; 'I' for Inactive)
REMARK    1  A    between atoms: C_2  and  O_3 
REMARK    2  A    between atoms: O_3  and  C_4 
REMARK    3  A    between atoms: C_4  and  C_5 
REMARK    4  A    between atoms: C_6  and  C_7 
REMARK    5  A    between atoms: C_14  and  C_15 
REMARK    6  A    between atoms: C_15  and  C_16 
REMARK       I    between atoms: C_16  and  N_17 
REMARK    7  A    between atoms: N_17  and  C_18 
REMARK    8  A    between atoms: C_18  and  C_19 
REMARK    9  A    between atoms: C_19  and  N_20 
REMARK   10  A    between atoms: C_31  and  C_32 
ROOT
HETATM    1  C   UNL     1      39.831 -13.398   1.598  1.00  0.00     0.074 C 
HETATM    2  C   UNL     1      39.701 -12.980   3.045  1.00  0.00     0.166 C 
HETATM    3  N   UNL     1      40.831 -13.447   3.884  1.00  0.00    -0.318 N 
HETATM    4  C   UNL     1      41.038 -13.496   5.161  1.00  0.00     0.011 C 
HETATM    5  C   UNL     1      42.107 -13.767   3.082  1.00  0.00     0.170 C 
HETATM    6  S   UNL     1      43.482 -13.997   4.107  1.00  0.00    -0.086 SA
HETATM    7  C   UNL     1      42.429 -13.925   5.577  1.00  0.00     0.135 C 
HETATM    8  N   UNL     1      42.182 -13.846   1.807  1.00  0.00    -0.223 NA
HETATM    9  C   UNL     1      41.029 -13.727   1.062  1.00  0.00     0.084 C 
ENDROOT
BRANCH   4  10
HETATM   10  C   UNL     1      39.981 -13.040   6.139  1.00  0.00     0.156 C 
BRANCH  10  11
HETATM   11  C   UNL     1      40.275 -11.762   6.910  1.00  0.00     0.223 C 
HETATM   12  N   UNL     1      39.881 -11.788   8.222  1.00  0.00    -0.359 N 
HETATM   13  H   UNL     1      39.364 -12.603   8.545  1.00  0.00     0.162 HD
HETATM   14  O   UNL     1      40.810 -10.785   6.397  1.00  0.00    -0.273 OA
BRANCH  12  15
HETATM   15  C   UNL     1      40.017 -10.727   9.231  1.00  0.00     0.150 C 
BRANCH  15  16
HETATM   16  C   UNL     1      40.548 -11.062  10.644  1.00  0.00     0.254 C 
BRANCH  16  17
HETATM   17  N   UNL     1      42.021 -11.374  10.662  1.00  0.00    -0.070 N 
HETATM   18  H   UNL     1      42.079 -12.375  10.389  1.00  0.00     0.279 HD
HETATM   19  C   UNL     1      42.662 -11.289  12.039  1.00  0.00     0.235 C 
HETATM   20  C   UNL     1      43.851 -10.363  11.859  1.00  0.00     0.029 C 
HETATM   21  C   UNL     1      44.232 -10.540  10.404  1.00  0.00     0.029 C 
HETATM   22  C   UNL     1      42.886 -10.578   9.714  1.00  0.00     0.235 C 
ENDBRANCH  16  17
ENDBRANCH  15  16
ENDBRANCH  12  15
ENDBRANCH  10  11
ENDBRANCH   4  10
BRANCH   2  23
HETATM   23  C   UNL     1      39.562 -11.466   3.213  1.00  0.00    -0.030 A 
HETATM   24  C   UNL     1      38.370 -10.928   3.732  1.00  0.00     0.009 A 
HETATM   25  C   UNL     1      38.229  -9.551   3.909  1.00  0.00     0.001 A 
HETATM   26  C   UNL     1      39.270  -8.691   3.568  1.00  0.00     0.000 A 
HETATM   27  C   UNL     1      40.448  -9.204   3.033  1.00  0.00     0.001 A 
HETATM   28  C   UNL     1      40.596 -10.580   2.849  1.00  0.00     0.009 A 
ENDBRANCH   2  23
BRANCH   1  29
HETATM   29  C   UNL     1      38.504 -13.416   0.912  1.00  0.00     0.294 C 
HETATM   30  O   UNL     1      37.787 -14.405   0.955  1.00  0.00    -0.259 OA
BRANCH  29  31
HETATM   31  O   UNL     1      38.285 -12.323   0.161  1.00  0.00    -0.318 OA
BRANCH  31  32
HETATM   32  C   UNL     1      37.377 -12.463  -0.946  1.00  0.00     0.174 C 
HETATM   33  C   UNL     1      38.117 -12.975  -2.167  1.00  0.00     0.034 C 
ENDBRANCH  31  32
ENDBRANCH  29  31
ENDBRANCH   1  29
BRANCH   9  34
HETATM   34  C   UNL     1      41.249 -13.973  -0.382  1.00  0.00    -0.006 A 
HETATM   35  C   UNL     1      40.901 -15.204  -0.960  1.00  0.00     0.014 A 
HETATM   36  C   UNL     1      41.058 -15.408  -2.333  1.00  0.00     0.001 A 
HETATM   37  C   UNL     1      41.546 -14.382  -3.140  1.00  0.00     0.000 A 
HETATM   38  C   UNL     1      41.878 -13.151  -2.579  1.00  0.00     0.001 A 
HETATM   39  C   UNL     1      41.728 -12.944  -1.207  1.00  0.00     0.014 A 
ENDBRANCH   9  34
TORSDOF 10
ENDMDL
MODEL 8
REMARK VINA RESULT:      -7.2      2.612      8.151
REMARK  10 active torsions:
REMARK  status: ('A' for Active; 'I' for Inactive)
REMARK    1  A    between atoms: C_2  and  O_3 
REMARK    2  A    between atoms: O_3  and  C_4 
REMARK    3  A    between atoms: C_4  and  C_5 
REMARK    4  A    between atoms: C_6  and  C_7 
REMARK    5  A    between atoms: C_14  and  C_15 
REMARK    6  A    between atoms: C_15  and  C_16 
REMARK       I    between atoms: C_16  and  N_17 
REMARK    7  A    between atoms: N_17  and  C_18 
REMARK    8  A    between atoms: C_18  and  C_19 
REMARK    9  A    between atoms: C_19  and  N_20 
REMARK   10  A    between atoms: C_31  and  C_32 
ROOT
HETATM    1  C   UNL     1      42.184 -13.992   3.827  1.00  0.00     0.074 C 
HETATM    2  C   UNL     1      41.441 -12.694   3.601  1.00  0.00     0.166 C 
HETATM    3  N   UNL     1      40.387 -12.806   2.565  1.00  0.00    -0.318 N 
HETATM    4  C   UNL     1      39.665 -11.942   1.924  1.00  0.00     0.011 C 
HETATM    5  C   UNL     1      39.904 -14.250   2.323  1.00  0.00     0.170 C 
HETATM    6  S   UNL     1      38.473 -14.307   1.355  1.00  0.00    -0.086 SA
HETATM    7  C   UNL     1      38.585 -12.529   1.039  1.00  0.00     0.135 C 
HETATM    8  N   UNL     1      40.463 -15.305   2.784  1.00  0.00    -0.223 NA
HETATM    9  C   UNL     1      41.644 -15.184   3.484  1.00  0.00     0.084 C 
ENDROOT
BRANCH   4  10
HETATM   10  C   UNL     1      39.837 -10.461   2.155  1.00  0.00     0.156 C 
BRANCH  10  11
HETATM   11  C   UNL     1      40.604  -9.692   1.091  1.00  0.00     0.223 C 
HETATM   12  N   UNL     1      41.845 -10.200   0.808  1.00  0.00    -0.359 N 
HETATM   13  H   UNL     1      42.179 -10.977   1.373  1.00  0.00     0.162 HD
HETATM   14  O   UNL     1      40.155  -8.693   0.539  1.00  0.00    -0.273 OA
BRANCH  12  15
HETATM   15  C   UNL     1      42.831  -9.698  -0.160  1.00  0.00     0.150 C 
BRANCH  15  16
HETATM   16  C   UNL     1      43.065 -10.450  -1.491  1.00  0.00     0.254 C 
BRANCH  16  17
HETATM   17  N   UNL     1      42.119 -11.604  -1.691  1.00  0.00    -0.070 N 
HETATM   18  H   UNL     1      41.913 -11.942  -0.730  1.00  0.00     0.279 HD
HETATM   19  C   UNL     1      42.727 -12.793  -2.420  1.00  0.00     0.235 C 
HETATM   20  C   UNL     1      41.774 -13.077  -3.566  1.00  0.00     0.029 C 
HETATM   21  C   UNL     1      40.437 -12.581  -3.058  1.00  0.00     0.029 C 
HETATM   22  C   UNL     1      40.808 -11.286  -2.368  1.00  0.00     0.235 C 
ENDBRANCH  16  17
ENDBRANCH  15  16
ENDBRANCH  12  15
ENDBRANCH  10  11
ENDBRANCH   4  10
BRANCH   2  23
HETATM   23  C   UNL     1      40.809 -12.145   4.882  1.00  0.00    -0.030 A 
HETATM   24  C   UNL     1      41.182 -10.874   5.354  1.00  0.00     0.009 A 
HETATM   25  C   UNL     1      40.606 -10.346   6.510  1.00  0.00     0.001 A 
HETATM   26  C   UNL     1      39.653 -11.079   7.214  1.00  0.00     0.000 A 
HETATM   27  C   UNL     1      39.287 -12.347   6.773  1.00  0.00     0.001 A 
HETATM   28  C   UNL     1      39.862 -12.884   5.620  1.00  0.00     0.009 A 
ENDBRANCH   2  23
BRANCH   1  29
HETATM   29  C   UNL     1      43.532 -13.753   4.423  1.00  0.00     0.294 C 
HETATM   30  O   UNL     1      44.529 -13.687   3.718  1.00  0.00    -0.259 OA
BRANCH  29  31
HETATM   31  O   UNL     1      43.524 -13.772   5.768  1.00  0.00    -0.318 OA
BRANCH  31  32
HETATM   32  C   UNL     1      44.693 -14.300   6.419  1.00  0.00     0.174 C 
HETATM   33  C   UNL     1      44.421 -15.705   6.924  1.00  0.00     0.034 C 
ENDBRANCH  31  32
ENDBRANCH  29  31
ENDBRANCH   1  29
BRANCH   9  34
HETATM   34  C   UNL     1      42.241 -16.494   3.836  1.00  0.00    -0.006 A 
HETATM   35  C   UNL     1      43.338 -16.997   3.120  1.00  0.00     0.014 A 
HETATM   36  C   UNL     1      43.932 -18.205   3.494  1.00  0.00     0.001 A 
HETATM   37  C   UNL     1      43.446 -18.909   4.594  1.00  0.00     0.000 A 
HETATM   38  C   UNL     1      42.369 -18.410   5.322  1.00  0.00     0.001 A 
HETATM   39  C   UNL     1      41.769 -17.206   4.949  1.00  0.00     0.014 A 
ENDBRANCH   9  34
TORSDOF 10
ENDMDL
MODEL 9
REMARK VINA RESULT:      -6.8      4.167      6.330
REMARK  10 active torsions:
REMARK  status: ('A' for Active; 'I' for Inactive)
REMARK    1  A    between atoms: C_2  and  O_3 
REMARK    2  A    between atoms: O_3  and  C_4 
REMARK    3  A    between atoms: C_4  and  C_5 
REMARK    4  A    between atoms: C_6  and  C_7 
REMARK    5  A    between atoms: C_14  and  C_15 
REMARK    6  A    between atoms: C_15  and  C_16 
REMARK       I    between atoms: C_16  and  N_17 
REMARK    7  A    between atoms: N_17  and  C_18 
REMARK    8  A    between atoms: C_18  and  C_19 
REMARK    9  A    between atoms: C_19  and  N_20 
REMARK   10  A    between atoms: C_31  and  C_32 
ROOT
HETATM    1  C   UNL     1      42.149 -14.042   3.808  1.00  0.00     0.074 C 
HETATM    2  C   UNL     1      42.872 -13.990   5.135  1.00  0.00     0.166 C 
HETATM    3  N   UNL     1      42.444 -12.850   5.981  1.00  0.00    -0.318 N 
HETATM    4  C   UNL     1      42.910 -12.313   7.064  1.00  0.00     0.011 C 
HETATM    5  C   UNL     1      41.054 -12.295   5.617  1.00  0.00     0.170 C 
HETATM    6  S   UNL     1      40.457 -11.193   6.809  1.00  0.00    -0.086 SA
HETATM    7  C   UNL     1      42.046 -11.229   7.674  1.00  0.00     0.135 C 
HETATM    8  N   UNL     1      40.383 -12.604   4.571  1.00  0.00    -0.223 NA
HETATM    9  C   UNL     1      40.957 -13.429   3.629  1.00  0.00     0.084 C 
ENDROOT
BRANCH   4  10
HETATM   10  C   UNL     1      44.171 -12.834   7.710  1.00  0.00     0.156 C 
BRANCH  10  11
HETATM   11  C   UNL     1      44.640 -12.112   8.964  1.00  0.00     0.223 C 
HETATM   12  N   UNL     1      43.949 -12.443  10.101  1.00  0.00    -0.359 N 
HETATM   13  H   UNL     1      43.148 -13.063  10.005  1.00  0.00     0.162 HD
HETATM   14  O   UNL     1      45.553 -11.294   8.957  1.00  0.00    -0.273 OA
BRANCH  12  15
HETATM   15  C   UNL     1      44.150 -11.931  11.464  1.00  0.00     0.150 C 
BRANCH  15  16
HETATM   16  C   UNL     1      44.105 -10.411  11.738  1.00  0.00     0.254 C 
BRANCH  16  17
HETATM   17  N   UNL     1      42.868  -9.981  12.483  1.00  0.00    -0.070 N 
HETATM   18  H   UNL     1      42.403  -9.304  11.847  1.00  0.00     0.279 HD
HETATM   19  C   UNL     1      43.145  -9.214  13.767  1.00  0.00     0.235 C 
HETATM   20  C   UNL     1      42.355  -9.945  14.836  1.00  0.00     0.029 C 
HETATM   21  C   UNL     1      41.204 -10.568  14.076  1.00  0.00     0.029 C 
HETATM   22  C   UNL     1      41.876 -11.069  12.816  1.00  0.00     0.235 C 
ENDBRANCH  16  17
ENDBRANCH  15  16
ENDBRANCH  12  15
ENDBRANCH  10  11
ENDBRANCH   4  10
BRANCH   2  23
HETATM   23  C   UNL     1      42.719 -15.280   5.943  1.00  0.00    -0.030 A 
HETATM   24  C   UNL     1      43.864 -15.948   6.415  1.00  0.00     0.009 A 
HETATM   25  C   UNL     1      43.746 -17.117   7.168  1.00  0.00     0.001 A 
HETATM   26  C   UNL     1      42.488 -17.639   7.457  1.00  0.00     0.000 A 
HETATM   27  C   UNL     1      41.346 -17.004   6.981  1.00  0.00     0.001 A 
HETATM   28  C   UNL     1      41.455 -15.837   6.223  1.00  0.00     0.009 A 
ENDBRANCH   2  23
BRANCH   1  29
HETATM   29  C   UNL     1      42.930 -14.805   2.790  1.00  0.00     0.294 C 
HETATM   30  O   UNL     1      44.061 -14.461   2.477  1.00  0.00    -0.259 OA
BRANCH  29  31
HETATM   31  O   UNL     1      42.211 -15.769   2.189  1.00  0.00    -0.318 OA
BRANCH  31  32
HETATM   32  C   UNL     1      42.059 -17.009   2.902  1.00  0.00     0.174 C 
HETATM   33  C   UNL     1      43.383 -17.748   2.955  1.00  0.00     0.034 C 
ENDBRANCH  31  32
ENDBRANCH  29  31
ENDBRANCH   1  29
BRANCH   9  34
HETATM   34  C   UNL     1      40.119 -13.587   2.417  1.00  0.00    -0.006 A 
HETATM   35  C   UNL     1      39.148 -14.598   2.344  1.00  0.00     0.014 A 
HETATM   36  C   UNL     1      38.324 -14.705   1.221  1.00  0.00     0.001 A 
HETATM   37  C   UNL     1      38.450 -13.794   0.173  1.00  0.00     0.000 A 
HETATM   38  C   UNL     1      39.399 -12.776   0.244  1.00  0.00     0.001 A 
HETATM   39  C   UNL     1      40.228 -12.669   1.362  1.00  0.00     0.014 A 
ENDBRANCH   9  34
TORSDOF 10
ENDMDL
MODEL 10
REMARK VINA RESULT:      -6.8      2.293      8.659
REMARK  10 active torsions:
REMARK  status: ('A' for Active; 'I' for Inactive)
REMARK    1  A    between atoms: C_2  and  O_3 
REMARK    2  A    between atoms: O_3  and  C_4 
REMARK    3  A    between atoms: C_4  and  C_5 
REMARK    4  A    between atoms: C_6  and  C_7 
REMARK    5  A    between atoms: C_14  and  C_15 
REMARK    6  A    between atoms: C_15  and  C_16 
REMARK       I    between atoms: C_16  and  N_17 
REMARK    7  A    between atoms: N_17  and  C_18 
REMARK    8  A    between atoms: C_18  and  C_19 
REMARK    9  A    between atoms: C_19  and  N_20 
REMARK   10  A    between atoms: C_31  and  C_32 
ROOT
HETATM    1  C   UNL     1      42.965 -14.582   4.938  1.00  0.00     0.074 C 
HETATM    2  C   UNL     1      42.210 -13.553   4.128  1.00  0.00     0.166 C 
HETATM    3  N   UNL     1      41.436 -14.151   3.013  1.00  0.00    -0.318 N 
HETATM    4  C   UNL     1      40.827 -13.660   1.981  1.00  0.00     0.011 C 
HETATM    5  C   UNL     1      41.122 -15.647   3.208  1.00  0.00     0.170 C 
HETATM    6  S   UNL     1      39.963 -16.225   2.062  1.00  0.00    -0.086 SA
HETATM    7  C   UNL     1      40.025 -14.655   1.168  1.00  0.00     0.135 C 
HETATM    8  N   UNL     1      41.628 -16.399   4.112  1.00  0.00    -0.223 NA
HETATM    9  C   UNL     1      42.602 -15.886   4.939  1.00  0.00     0.084 C 
ENDROOT
BRANCH   4  10
HETATM   10  C   UNL     1      40.840 -12.176   1.702  1.00  0.00     0.156 C 
BRANCH  10  11
HETATM   11  C   UNL     1      41.540 -11.730   0.428  1.00  0.00     0.223 C 
HETATM   12  N   UNL     1      40.694 -11.428  -0.607  1.00  0.00    -0.359 N 
HETATM   13  H   UNL     1      39.700 -11.599  -0.473  1.00  0.00     0.162 HD
HETATM   14  O   UNL     1      42.760 -11.659   0.329  1.00  0.00    -0.273 OA
BRANCH  12  15
HETATM   15  C   UNL     1      41.044 -10.971  -1.960  1.00  0.00     0.150 C 
BRANCH  15  16
HETATM   16  C   UNL     1      40.131 -11.318  -3.158  1.00  0.00     0.254 C 
BRANCH  16  17
HETATM   17  N   UNL     1      40.329 -12.724  -3.662  1.00  0.00    -0.070 N 
HETATM   18  H   UNL     1      40.257 -12.644  -4.695  1.00  0.00     0.279 HD
HETATM   19  C   UNL     1      39.233 -13.696  -3.251  1.00  0.00     0.235 C 
HETATM   20  C   UNL     1      39.964 -14.861  -2.610  1.00  0.00     0.029 C 
HETATM   21  C   UNL     1      41.322 -14.850  -3.281  1.00  0.00     0.029 C 
HETATM   22  C   UNL     1      41.651 -13.374  -3.332  1.00  0.00     0.235 C 
ENDBRANCH  16  17
ENDBRANCH  15  16
ENDBRANCH  12  15
ENDBRANCH  10  11
ENDBRANCH   4  10
BRANCH   2  23
HETATM   23  C   UNL     1      41.261 -12.709   4.982  1.00  0.00    -0.030 A 
HETATM   24  C   UNL     1      41.460 -11.320   5.081  1.00  0.00     0.009 A 
HETATM   25  C   UNL     1      40.597 -10.529   5.840  1.00  0.00     0.001 A 
HETATM   26  C   UNL     1      39.527 -11.112   6.514  1.00  0.00     0.000 A 
HETATM   27  C   UNL     1      39.326 -12.487   6.445  1.00  0.00     0.001 A 
HETATM   28  C   UNL     1      40.188 -13.285   5.691  1.00  0.00     0.009 A 
ENDBRANCH   2  23
BRANCH   1  29
HETATM   29  C   UNL     1      44.118 -13.969   5.662  1.00  0.00     0.294 C 
HETATM   30  O   UNL     1      45.129 -13.632   5.063  1.00  0.00    -0.259 OA
BRANCH  29  31
HETATM   31  O   UNL     1      43.965 -13.977   6.998  1.00  0.00    -0.318 OA
BRANCH  31  32
HETATM   32  C   UNL     1      44.134 -12.723   7.681  1.00  0.00     0.174 C 
HETATM   33  C   UNL     1      45.479 -12.686   8.383  1.00  0.00     0.034 C 
ENDBRANCH  31  32
ENDBRANCH  29  31
ENDBRANCH   1  29
BRANCH   9  34
HETATM   34  C   UNL     1      43.187 -16.906   5.841  1.00  0.00    -0.006 A 
HETATM   35  C   UNL     1      44.246 -17.720   5.409  1.00  0.00     0.014 A 
HETATM   36  C   UNL     1      44.831 -18.639   6.284  1.00  0.00     0.001 A 
HETATM   37  C   UNL     1      44.375 -18.740   7.597  1.00  0.00     0.000 A 
HETATM   38  C   UNL     1      43.337 -17.924   8.040  1.00  0.00     0.001 A 
HETATM   39  C   UNL     1      42.747 -17.007   7.168  1.00  0.00     0.014 A 
ENDBRANCH   9  34
TORSDOF 10
ENDMDL
