MODEL 1
REMARK VINA RESULT:      -9.6      0.000      0.000
REMARK  6 active torsions:
REMARK  status: ('A' for Active; 'I' for Inactive)
REMARK    1  A    between atoms: O_2  and  C_3 
REMARK    2  A    between atoms: C_5  and  N_6 
REMARK    3  A    between atoms: C_7  and  O_8 
REMARK    4  A    between atoms: C_7  and  C_9 
REMARK       I    between atoms: C_9  and  N_10 
REMARK    5  A    between atoms: N_10  and  C_11 
REMARK    6  A    between atoms: C_11  and  C_12 
ROOT
HETATM    1  N   UNL     1      41.706 -15.085   2.909  1.00  0.00    -0.254 N 
HETATM    2  C   UNL     1      41.613 -16.410   3.546  1.00  0.00     0.256 C 
HETATM    3  C   UNL     1      42.235 -16.449   4.930  1.00  0.00     0.034 A 
HETATM    4  C   UNL     1      43.243 -15.542   5.220  1.00  0.00     0.048 A 
HETATM    5  N   UNL     1      43.557 -14.576   4.275  1.00  0.00    -0.308 N 
HETATM    6  C   UNL     1      42.812 -14.285   3.167  1.00  0.00     0.330 C 
HETATM    7  O   UNL     1      43.202 -13.346   2.474  1.00  0.00    -0.246 OA
HETATM    8  C   UNL     1      41.923 -17.434   5.882  1.00  0.00     0.015 A 
HETATM    9  C   UNL     1      42.610 -17.488   7.097  1.00  0.00     0.001 A 
HETATM   10  C   UNL     1      43.625 -16.572   7.364  1.00  0.00     0.002 A 
HETATM   11  C   UNL     1      43.948 -15.596   6.422  1.00  0.00     0.030 A 
HETATM   12  H   UNL     1      44.298 -13.911   4.459  1.00  0.00     0.170 HD
ENDROOT
BRANCH   2  13
HETATM   13  O   UNL     1      40.234 -16.742   3.744  1.00  0.00    -0.359 OA
HETATM   14  H   UNL     1      40.242 -17.652   4.096  1.00  0.00     0.213 HD
ENDBRANCH   2  13
BRANCH   2  15
HETATM   15  C   UNL     1      42.326 -17.507   2.652  1.00  0.00     0.279 C 
HETATM   16  N   UNL     1      43.593 -17.896   3.024  1.00  0.00    -0.352 N 
HETATM   17  H   UNL     1      44.061 -17.415   3.783  1.00  0.00     0.162 HD
HETATM   18  O   UNL     1      41.723 -18.027   1.706  1.00  0.00    -0.268 OA
BRANCH  16  19
HETATM   19  C   UNL     1      44.277 -18.992   2.383  1.00  0.00     0.163 C 
BRANCH  19  20
HETATM   20  C   UNL     1      44.428 -20.157   3.326  1.00  0.00    -0.019 A 
HETATM   21  C   UNL     1      44.439 -21.489   2.879  1.00  0.00     0.042 A 
HETATM   22 CL   UNL     1      44.283 -21.893   1.206  1.00  0.00    -0.084 Cl
HETATM   23  C   UNL     1      44.568 -22.544   3.788  1.00  0.00     0.024 A 
HETATM   24  C   UNL     1      44.684 -22.285   5.153  1.00  0.00     0.002 A 
HETATM   25  C   UNL     1      44.666 -20.970   5.611  1.00  0.00     0.001 A 
HETATM   26  C   UNL     1      44.536 -19.915   4.706  1.00  0.00     0.010 A 
ENDBRANCH  19  20
ENDBRANCH  16  19
ENDBRANCH   2  15
BRANCH   1  27
HETATM   27  C   UNL     1      40.761 -14.687   1.888  1.00  0.00     0.045 A 
HETATM   28  C   UNL     1      41.050 -14.922   0.531  1.00  0.00     0.066 A 
HETATM   29  C   UNL     1      40.187 -14.516  -0.497  1.00  0.00     0.070 A 
HETATM   30  C   UNL     1      39.003 -13.863  -0.176  1.00  0.00     0.037 A 
HETATM   31  C   UNL     1      38.692 -13.620   1.160  1.00  0.00     0.005 A 
HETATM   32  C   UNL     1      39.562 -14.024   2.179  1.00  0.00     0.030 A 
BRANCH  29  33
HETATM   33  O   UNL     1      40.628 -14.806  -1.761  1.00  0.00    -0.356 OA
HETATM   34  C   UNL     1      39.703 -14.627  -2.824  1.00  0.00     0.210 C 
ENDBRANCH  29  33
ENDBRANCH   1  27
TORSDOF 6
ENDMDL
MODEL 2
REMARK VINA RESULT:      -8.8      1.566      5.505
REMARK  6 active torsions:
REMARK  status: ('A' for Active; 'I' for Inactive)
REMARK    1  A    between atoms: O_2  and  C_3 
REMARK    2  A    between atoms: C_5  and  N_6 
REMARK    3  A    between atoms: C_7  and  O_8 
REMARK    4  A    between atoms: C_7  and  C_9 
REMARK       I    between atoms: C_9  and  N_10 
REMARK    5  A    between atoms: N_10  and  C_11 
REMARK    6  A    between atoms: C_11  and  C_12 
ROOT
HETATM    1  N   UNL     1      41.570 -14.802   3.949  1.00  0.00    -0.254 N 
HETATM    2  C   UNL     1      42.020 -15.107   2.580  1.00  0.00     0.256 C 
HETATM    3  C   UNL     1      41.288 -14.304   1.521  1.00  0.00     0.034 A 
HETATM    4  C   UNL     1      40.009 -13.851   1.812  1.00  0.00     0.048 A 
HETATM    5  N   UNL     1      39.508 -14.056   3.089  1.00  0.00    -0.308 N 
HETATM    6  C   UNL     1      40.240 -14.467   4.167  1.00  0.00     0.330 C 
HETATM    7  O   UNL     1      39.647 -14.527   5.243  1.00  0.00    -0.246 OA
HETATM    8  C   UNL     1      41.793 -14.105   0.225  1.00  0.00     0.015 A 
HETATM    9  C   UNL     1      41.023 -13.455  -0.743  1.00  0.00     0.001 A 
HETATM   10  C   UNL     1      39.739 -13.014  -0.431  1.00  0.00     0.002 A 
HETATM   11  C   UNL     1      39.226 -13.215   0.849  1.00  0.00     0.030 A 
HETATM   12  H   UNL     1      38.573 -13.746   3.321  1.00  0.00     0.170 HD
ENDROOT
BRANCH   2  13
HETATM   13  O   UNL     1      43.398 -14.740   2.444  1.00  0.00    -0.359 OA
HETATM   14  H   UNL     1      43.847 -15.160   3.202  1.00  0.00     0.213 HD
ENDBRANCH   2  13
BRANCH   2  15
HETATM   15  C   UNL     1      41.820 -16.646   2.261  1.00  0.00     0.279 C 
HETATM   16  N   UNL     1      42.940 -17.366   1.907  1.00  0.00    -0.352 N 
HETATM   17  H   UNL     1      43.821 -16.885   1.773  1.00  0.00     0.162 HD
HETATM   18  O   UNL     1      40.710 -17.171   2.396  1.00  0.00    -0.268 OA
BRANCH  16  19
HETATM   19  C   UNL     1      42.909 -18.799   1.745  1.00  0.00     0.163 C 
BRANCH  19  20
HETATM   20  C   UNL     1      43.684 -19.481   2.843  1.00  0.00    -0.019 A 
HETATM   21  C   UNL     1      44.083 -20.825   2.758  1.00  0.00     0.042 A 
HETATM   22 CL   UNL     1      43.715 -21.802   1.380  1.00  0.00    -0.084 Cl
HETATM   23  C   UNL     1      44.790 -21.426   3.804  1.00  0.00     0.024 A 
HETATM   24  C   UNL     1      45.105 -20.695   4.949  1.00  0.00     0.002 A 
HETATM   25  C   UNL     1      44.709 -19.364   5.051  1.00  0.00     0.001 A 
HETATM   26  C   UNL     1      44.002 -18.762   4.009  1.00  0.00     0.010 A 
ENDBRANCH  19  20
ENDBRANCH  16  19
ENDBRANCH   2  15
BRANCH   1  27
HETATM   27  C   UNL     1      42.445 -15.023   5.081  1.00  0.00     0.045 A 
HETATM   28  C   UNL     1      42.322 -16.195   5.849  1.00  0.00     0.066 A 
HETATM   29  C   UNL     1      43.114 -16.435   6.980  1.00  0.00     0.070 A 
HETATM   30  C   UNL     1      44.060 -15.490   7.363  1.00  0.00     0.037 A 
HETATM   31  C   UNL     1      44.205 -14.321   6.618  1.00  0.00     0.005 A 
HETATM   32  C   UNL     1      43.405 -14.089   5.494  1.00  0.00     0.030 A 
BRANCH  29  33
HETATM   33  O   UNL     1      42.853 -17.616   7.622  1.00  0.00    -0.356 OA
HETATM   34  C   UNL     1      43.924 -18.210   8.341  1.00  0.00     0.210 C 
ENDBRANCH  29  33
ENDBRANCH   1  27
TORSDOF 6
ENDMDL
MODEL 3
REMARK VINA RESULT:      -8.7      1.950      2.642
REMARK  6 active torsions:
REMARK  status: ('A' for Active; 'I' for Inactive)
REMARK    1  A    between atoms: O_2  and  C_3 
REMARK    2  A    between atoms: C_5  and  N_6 
REMARK    3  A    between atoms: C_7  and  O_8 
REMARK    4  A    between atoms: C_7  and  C_9 
REMARK       I    between atoms: C_9  and  N_10 
REMARK    5  A    between atoms: N_10  and  C_11 
REMARK    6  A    between atoms: C_11  and  C_12 
ROOT
HETATM    1  N   UNL     1      41.189 -14.426   0.740  1.00  0.00    -0.254 N 
HETATM    2  C   UNL     1      41.109 -15.483   1.762  1.00  0.00     0.256 C 
HETATM    3  C   UNL     1      41.152 -14.944   3.180  1.00  0.00     0.034 A 
HETATM    4  C   UNL     1      41.786 -13.730   3.398  1.00  0.00     0.048 A 
HETATM    5  N   UNL     1      42.250 -13.018   2.302  1.00  0.00    -0.308 N 
HETATM    6  C   UNL     1      41.943 -13.288   0.998  1.00  0.00     0.330 C 
HETATM    7  O   UNL     1      42.385 -12.507   0.157  1.00  0.00    -0.246 OA
HETATM    8  C   UNL     1      40.691 -15.671   4.290  1.00  0.00     0.015 A 
HETATM    9  C   UNL     1      40.861 -15.172   5.584  1.00  0.00     0.001 A 
HETATM   10  C   UNL     1      41.508 -13.954   5.781  1.00  0.00     0.002 A 
HETATM   11  C   UNL     1      41.977 -13.229   4.686  1.00  0.00     0.030 A 
HETATM   12  H   UNL     1      42.727 -12.135   2.438  1.00  0.00     0.170 HD
ENDROOT
BRANCH   2  13
HETATM   13  O   UNL     1      39.846 -16.151   1.652  1.00  0.00    -0.359 OA
HETATM   14  H   UNL     1      39.980 -16.831   0.965  1.00  0.00     0.213 HD
ENDBRANCH   2  13
BRANCH   2  15
HETATM   15  C   UNL     1      42.299 -16.514   1.588  1.00  0.00     0.279 C 
HETATM   16  N   UNL     1      42.011 -17.847   1.782  1.00  0.00    -0.352 N 
HETATM   17  H   UNL     1      41.094 -18.116   2.115  1.00  0.00     0.162 HD
HETATM   18  O   UNL     1      43.414 -16.123   1.225  1.00  0.00    -0.268 OA
BRANCH  16  19
HETATM   19  C   UNL     1      42.971 -18.887   1.501  1.00  0.00     0.163 C 
BRANCH  19  20
HETATM   20  C   UNL     1      43.628 -19.370   2.768  1.00  0.00    -0.019 A 
HETATM   21  C   UNL     1      44.185 -20.654   2.883  1.00  0.00     0.042 A 
HETATM   22 CL   UNL     1      44.161 -21.781   1.574  1.00  0.00    -0.084 Cl
HETATM   23  C   UNL     1      44.775 -21.070   4.081  1.00  0.00     0.024 A 
HETATM   24  C   UNL     1      44.813 -20.211   5.180  1.00  0.00     0.002 A 
HETATM   25  C   UNL     1      44.257 -18.939   5.083  1.00  0.00     0.001 A 
HETATM   26  C   UNL     1      43.666 -18.521   3.889  1.00  0.00     0.010 A 
ENDBRANCH  19  20
ENDBRANCH  16  19
ENDBRANCH   2  15
BRANCH   1  27
HETATM   27  C   UNL     1      40.647 -14.636  -0.586  1.00  0.00     0.045 A 
HETATM   28  C   UNL     1      39.463 -13.984  -0.975  1.00  0.00     0.066 A 
HETATM   29  C   UNL     1      38.875 -14.189  -2.231  1.00  0.00     0.070 A 
HETATM   30  C   UNL     1      39.477 -15.060  -3.132  1.00  0.00     0.037 A 
HETATM   31  C   UNL     1      40.653 -15.717  -2.773  1.00  0.00     0.005 A 
HETATM   32  C   UNL     1      41.229 -15.510  -1.514  1.00  0.00     0.030 A 
BRANCH  29  33
HETATM   33  O   UNL     1      37.716 -13.491  -2.441  1.00  0.00    -0.356 OA
HETATM   34  C   UNL     1      37.660 -12.666  -3.597  1.00  0.00     0.210 C 
ENDBRANCH  29  33
ENDBRANCH   1  27
TORSDOF 6
ENDMDL
MODEL 4
REMARK VINA RESULT:      -8.6      2.443      5.824
REMARK  6 active torsions:
REMARK  status: ('A' for Active; 'I' for Inactive)
REMARK    1  A    between atoms: O_2  and  C_3 
REMARK    2  A    between atoms: C_5  and  N_6 
REMARK    3  A    between atoms: C_7  and  O_8 
REMARK    4  A    between atoms: C_7  and  C_9 
REMARK       I    between atoms: C_9  and  N_10 
REMARK    5  A    between atoms: N_10  and  C_11 
REMARK    6  A    between atoms: C_11  and  C_12 
ROOT
HETATM    1  N   UNL     1      40.022 -14.221   1.300  1.00  0.00    -0.254 N 
HETATM    2  C   UNL     1      41.259 -14.312   0.505  1.00  0.00     0.256 C 
HETATM    3  C   UNL     1      41.108 -13.750  -0.897  1.00  0.00     0.034 A 
HETATM    4  C   UNL     1      39.843 -13.748  -1.467  1.00  0.00     0.048 A 
HETATM    5  N   UNL     1      38.766 -14.153  -0.691  1.00  0.00    -0.308 N 
HETATM    6  C   UNL     1      38.795 -14.344   0.661  1.00  0.00     0.330 C 
HETATM    7  O   UNL     1      37.727 -14.635   1.197  1.00  0.00    -0.246 OA
HETATM    8  C   UNL     1      42.200 -13.349  -1.684  1.00  0.00     0.015 A 
HETATM    9  C   UNL     1      42.010 -12.948  -3.008  1.00  0.00     0.001 A 
HETATM   10  C   UNL     1      40.732 -12.960  -3.563  1.00  0.00     0.002 A 
HETATM   11  C   UNL     1      39.643 -13.365  -2.793  1.00  0.00     0.030 A 
HETATM   12  H   UNL     1      37.835 -14.172  -1.090  1.00  0.00     0.170 HD
ENDROOT
BRANCH   2  13
HETATM   13  O   UNL     1      42.276 -13.513   1.122  1.00  0.00    -0.359 OA
HETATM   14  H   UNL     1      41.862 -13.160   1.932  1.00  0.00     0.213 HD
ENDBRANCH   2  13
BRANCH   2  15
HETATM   15  C   UNL     1      41.733 -15.819   0.386  1.00  0.00     0.279 C 
HETATM   16  N   UNL     1      42.929 -16.152   0.981  1.00  0.00    -0.352 N 
HETATM   17  H   UNL     1      43.505 -15.424   1.387  1.00  0.00     0.162 HD
HETATM   18  O   UNL     1      41.010 -16.657  -0.164  1.00  0.00    -0.268 OA
BRANCH  16  19
HETATM   19  C   UNL     1      43.386 -17.517   1.073  1.00  0.00     0.163 C 
BRANCH  19  20
HETATM   20  C   UNL     1      43.583 -17.923   2.510  1.00  0.00    -0.019 A 
HETATM   21  C   UNL     1      43.752 -19.264   2.895  1.00  0.00     0.042 A 
HETATM   22 CL   UNL     1      43.750 -20.553   1.744  1.00  0.00    -0.084 Cl
HETATM   23  C   UNL     1      43.919 -19.602   4.242  1.00  0.00     0.024 A 
HETATM   24  C   UNL     1      43.916 -18.608   5.221  1.00  0.00     0.002 A 
HETATM   25  C   UNL     1      43.741 -17.277   4.855  1.00  0.00     0.001 A 
HETATM   26  C   UNL     1      43.572 -16.936   3.511  1.00  0.00     0.010 A 
ENDBRANCH  19  20
ENDBRANCH  16  19
ENDBRANCH   2  15
BRANCH   1  27
HETATM   27  C   UNL     1      40.073 -14.189   2.746  1.00  0.00     0.045 A 
HETATM   28  C   UNL     1      39.776 -13.000   3.435  1.00  0.00     0.066 A 
HETATM   29  C   UNL     1      39.854 -12.906   4.832  1.00  0.00     0.070 A 
HETATM   30  C   UNL     1      40.233 -14.021   5.570  1.00  0.00     0.037 A 
HETATM   31  C   UNL     1      40.530 -15.213   4.912  1.00  0.00     0.005 A 
HETATM   32  C   UNL     1      40.454 -15.295   3.518  1.00  0.00     0.030 A 
BRANCH  29  33
HETATM   33  O   UNL     1      39.549 -11.671   5.339  1.00  0.00    -0.356 OA
HETATM   34  C   UNL     1      39.697 -11.496   6.742  1.00  0.00     0.210 C 
ENDBRANCH  29  33
ENDBRANCH   1  27
TORSDOF 6
ENDMDL
MODEL 5
REMARK VINA RESULT:      -8.6      2.613      6.867
REMARK  6 active torsions:
REMARK  status: ('A' for Active; 'I' for Inactive)
REMARK    1  A    between atoms: O_2  and  C_3 
REMARK    2  A    between atoms: C_5  and  N_6 
REMARK    3  A    between atoms: C_7  and  O_8 
REMARK    4  A    between atoms: C_7  and  C_9 
REMARK       I    between atoms: C_9  and  N_10 
REMARK    5  A    between atoms: N_10  and  C_11 
REMARK    6  A    between atoms: C_11  and  C_12 
ROOT
HETATM    1  N   UNL     1      41.968 -16.492   4.429  1.00  0.00    -0.254 N 
HETATM    2  C   UNL     1      42.018 -15.310   3.552  1.00  0.00     0.256 C 
HETATM    3  C   UNL     1      41.466 -14.058   4.207  1.00  0.00     0.034 A 
HETATM    4  C   UNL     1      40.527 -14.209   5.217  1.00  0.00     0.048 A 
HETATM    5  N   UNL     1      40.221 -15.491   5.651  1.00  0.00    -0.308 N 
HETATM    6  C   UNL     1      40.924 -16.619   5.336  1.00  0.00     0.330 C 
HETATM    7  O   UNL     1      40.553 -17.664   5.870  1.00  0.00    -0.246 OA
HETATM    8  C   UNL     1      41.770 -12.761   3.760  1.00  0.00     0.015 A 
HETATM    9  C   UNL     1      41.143 -11.651   4.329  1.00  0.00     0.001 A 
HETATM   10  C   UNL     1      40.196 -11.825   5.337  1.00  0.00     0.002 A 
HETATM   11  C   UNL     1      39.882 -13.109   5.782  1.00  0.00     0.030 A 
HETATM   12  H   UNL     1      39.529 -15.626   6.378  1.00  0.00     0.170 HD
ENDROOT
BRANCH   2  13
HETATM   13  O   UNL     1      43.385 -15.005   3.249  1.00  0.00    -0.359 OA
HETATM   14  H   UNL     1      43.360 -14.121   2.837  1.00  0.00     0.213 HD
ENDBRANCH   2  13
BRANCH   2  15
HETATM   15  C   UNL     1      41.200 -15.573   2.220  1.00  0.00     0.279 C 
HETATM   16  N   UNL     1      41.837 -15.312   1.028  1.00  0.00    -0.352 N 
HETATM   17  H   UNL     1      42.754 -14.881   1.035  1.00  0.00     0.162 HD
HETATM   18  O   UNL     1      40.064 -16.057   2.272  1.00  0.00    -0.268 OA
BRANCH  16  19
HETATM   19  C   UNL     1      41.253 -15.657  -0.245  1.00  0.00     0.163 C 
BRANCH  19  20
HETATM   20  C   UNL     1      41.460 -14.553  -1.249  1.00  0.00    -0.019 A 
HETATM   21  C   UNL     1      41.080 -14.682  -2.596  1.00  0.00     0.042 A 
HETATM   22 CL   UNL     1      40.342 -16.121  -3.204  1.00  0.00    -0.084 Cl
HETATM   23  C   UNL     1      41.301 -13.639  -3.501  1.00  0.00     0.024 A 
HETATM   24  C   UNL     1      41.906 -12.456  -3.075  1.00  0.00     0.002 A 
HETATM   25  C   UNL     1      42.294 -12.318  -1.746  1.00  0.00     0.001 A 
HETATM   26  C   UNL     1      42.077 -13.358  -0.840  1.00  0.00     0.010 A 
ENDBRANCH  19  20
ENDBRANCH  16  19
ENDBRANCH   2  15
BRANCH   1  27
HETATM   27  C   UNL     1      42.881 -17.598   4.234  1.00  0.00     0.045 A 
HETATM   28  C   UNL     1      42.724 -18.455   3.130  1.00  0.00     0.066 A 
HETATM   29  C   UNL     1      43.555 -19.565   2.921  1.00  0.00     0.070 A 
HETATM   30  C   UNL     1      44.574 -19.834   3.828  1.00  0.00     0.037 A 
HETATM   31  C   UNL     1      44.754 -18.999   4.929  1.00  0.00     0.005 A 
HETATM   32  C   UNL     1      43.916 -17.897   5.131  1.00  0.00     0.030 A 
BRANCH  29  33
HETATM   33  O   UNL     1      43.253 -20.304   1.809  1.00  0.00    -0.356 OA
HETATM   34  C   UNL     1      43.733 -21.641   1.773  1.00  0.00     0.210 C 
ENDBRANCH  29  33
ENDBRANCH   1  27
TORSDOF 6
ENDMDL
MODEL 6
REMARK VINA RESULT:      -8.3      2.699      7.120
REMARK  6 active torsions:
REMARK  status: ('A' for Active; 'I' for Inactive)
REMARK    1  A    between atoms: O_2  and  C_3 
REMARK    2  A    between atoms: C_5  and  N_6 
REMARK    3  A    between atoms: C_7  and  O_8 
REMARK    4  A    between atoms: C_7  and  C_9 
REMARK       I    between atoms: C_9  and  N_10 
REMARK    5  A    between atoms: N_10  and  C_11 
REMARK    6  A    between atoms: C_11  and  C_12 
ROOT
HETATM    1  N   UNL     1      42.086 -15.864   5.403  1.00  0.00    -0.254 N 
HETATM    2  C   UNL     1      42.128 -14.771   4.416  1.00  0.00     0.256 C 
HETATM    3  C   UNL     1      41.376 -13.533   4.867  1.00  0.00     0.034 A 
HETATM    4  C   UNL     1      40.337 -13.692   5.772  1.00  0.00     0.048 A 
HETATM    5  N   UNL     1      40.109 -14.953   6.304  1.00  0.00    -0.308 N 
HETATM    6  C   UNL     1      40.954 -16.021   6.194  1.00  0.00     0.330 C 
HETATM    7  O   UNL     1      40.626 -17.045   6.790  1.00  0.00    -0.246 OA
HETATM    8  C   UNL     1      41.602 -12.258   4.321  1.00  0.00     0.015 A 
HETATM    9  C   UNL     1      40.801 -11.176   4.693  1.00  0.00     0.001 A 
HETATM   10  C   UNL     1      39.758 -11.360   5.599  1.00  0.00     0.002 A 
HETATM   11  C   UNL     1      39.520 -12.623   6.139  1.00  0.00     0.030 A 
HETATM   12  H   UNL     1      39.348 -15.096   6.956  1.00  0.00     0.170 HD
ENDROOT
BRANCH   2  13
HETATM   13  O   UNL     1      43.484 -14.345   4.241  1.00  0.00    -0.359 OA
HETATM   14  H   UNL     1      43.741 -13.963   5.101  1.00  0.00     0.213 HD
ENDBRANCH   2  13
BRANCH   2  15
HETATM   15  C   UNL     1      41.513 -15.248   3.035  1.00  0.00     0.279 C 
HETATM   16  N   UNL     1      40.141 -15.345   2.957  1.00  0.00    -0.352 N 
HETATM   17  H   UNL     1      39.582 -15.204   3.789  1.00  0.00     0.162 HD
HETATM   18  O   UNL     1      42.248 -15.453   2.064  1.00  0.00    -0.268 OA
BRANCH  16  19
HETATM   19  C   UNL     1      39.462 -15.617   1.714  1.00  0.00     0.163 C 
BRANCH  19  20
HETATM   20  C   UNL     1      39.170 -14.339   0.970  1.00  0.00    -0.019 A 
HETATM   21  C   UNL     1      39.731 -14.056  -0.286  1.00  0.00     0.042 A 
HETATM   22 CL   UNL     1      40.802 -15.156  -1.078  1.00  0.00    -0.084 Cl
HETATM   23  C   UNL     1      39.445 -12.852  -0.939  1.00  0.00     0.024 A 
HETATM   24  C   UNL     1      38.598 -11.916  -0.345  1.00  0.00     0.002 A 
HETATM   25  C   UNL     1      38.041 -12.180   0.903  1.00  0.00     0.001 A 
HETATM   26  C   UNL     1      38.327 -13.380   1.557  1.00  0.00     0.010 A 
ENDBRANCH  19  20
ENDBRANCH  16  19
ENDBRANCH   2  15
BRANCH   1  27
HETATM   27  C   UNL     1      43.122 -16.873   5.433  1.00  0.00     0.045 A 
HETATM   28  C   UNL     1      43.151 -17.882   4.453  1.00  0.00     0.066 A 
HETATM   29  C   UNL     1      44.108 -18.907   4.464  1.00  0.00     0.070 A 
HETATM   30  C   UNL     1      45.066 -18.935   5.471  1.00  0.00     0.037 A 
HETATM   31  C   UNL     1      45.062 -17.946   6.452  1.00  0.00     0.005 A 
HETATM   32  C   UNL     1      44.100 -16.930   6.436  1.00  0.00     0.030 A 
BRANCH  29  33
HETATM   33  O   UNL     1      43.982 -19.817   3.449  1.00  0.00    -0.356 OA
HETATM   34  C   UNL     1      43.265 -19.401   2.295  1.00  0.00     0.210 C 
ENDBRANCH  29  33
ENDBRANCH   1  27
TORSDOF 6
ENDMDL
MODEL 7
REMARK VINA RESULT:      -8.3      3.446      5.659
REMARK  6 active torsions:
REMARK  status: ('A' for Active; 'I' for Inactive)
REMARK    1  A    between atoms: O_2  and  C_3 
REMARK    2  A    between atoms: C_5  and  N_6 
REMARK    3  A    between atoms: C_7  and  O_8 
REMARK    4  A    between atoms: C_7  and  C_9 
REMARK       I    between atoms: C_9  and  N_10 
REMARK    5  A    between atoms: N_10  and  C_11 
REMARK    6  A    between atoms: C_11  and  C_12 
ROOT
HETATM    1  N   UNL     1      41.199 -13.188   4.594  1.00  0.00    -0.254 N 
HETATM    2  C   UNL     1      42.349 -13.869   3.974  1.00  0.00     0.256 C 
HETATM    3  C   UNL     1      41.943 -14.873   2.910  1.00  0.00     0.034 A 
HETATM    4  C   UNL     1      40.684 -15.449   3.002  1.00  0.00     0.048 A 
HETATM    5  N   UNL     1      39.821 -15.000   3.991  1.00  0.00    -0.308 N 
HETATM    6  C   UNL     1      40.005 -13.881   4.751  1.00  0.00     0.330 C 
HETATM    7  O   UNL     1      39.100 -13.593   5.533  1.00  0.00    -0.246 OA
HETATM    8  C   UNL     1      42.822 -15.332   1.915  1.00  0.00     0.015 A 
HETATM    9  C   UNL     1      42.428 -16.341   1.034  1.00  0.00     0.001 A 
HETATM   10  C   UNL     1      41.162 -16.912   1.148  1.00  0.00     0.002 A 
HETATM   11  C   UNL     1      40.286 -16.468   2.137  1.00  0.00     0.030 A 
HETATM   12  H   UNL     1      38.902 -15.416   4.085  1.00  0.00     0.170 HD
ENDROOT
BRANCH   2  13
HETATM   13  O   UNL     1      43.156 -12.903   3.290  1.00  0.00    -0.359 OA
HETATM   14  H   UNL     1      43.886 -12.704   3.907  1.00  0.00     0.213 HD
ENDBRANCH   2  13
BRANCH   2  15
HETATM   15  C   UNL     1      43.202 -14.629   5.072  1.00  0.00     0.279 C 
HETATM   16  N   UNL     1      42.883 -15.946   5.316  1.00  0.00    -0.352 N 
HETATM   17  H   UNL     1      42.072 -16.355   4.869  1.00  0.00     0.162 HD
HETATM   18  O   UNL     1      44.153 -14.064   5.622  1.00  0.00    -0.268 OA
BRANCH  16  19
HETATM   19  C   UNL     1      43.685 -16.782   6.176  1.00  0.00     0.163 C 
BRANCH  19  20
HETATM   20  C   UNL     1      43.962 -18.113   5.527  1.00  0.00    -0.019 A 
HETATM   21  C   UNL     1      44.164 -19.286   6.273  1.00  0.00     0.042 A 
HETATM   22 CL   UNL     1      44.105 -19.291   8.000  1.00  0.00    -0.084 Cl
HETATM   23  C   UNL     1      44.432 -20.500   5.633  1.00  0.00     0.024 A 
HETATM   24  C   UNL     1      44.507 -20.558   4.242  1.00  0.00     0.002 A 
HETATM   25  C   UNL     1      44.318 -19.403   3.490  1.00  0.00     0.001 A 
HETATM   26  C   UNL     1      44.051 -18.188   4.126  1.00  0.00     0.010 A 
ENDBRANCH  19  20
ENDBRANCH  16  19
ENDBRANCH   2  15
BRANCH   1  27
HETATM   27  C   UNL     1      41.352 -11.883   5.200  1.00  0.00     0.045 A 
HETATM   28  C   UNL     1      41.650 -11.773   6.571  1.00  0.00     0.066 A 
HETATM   29  C   UNL     1      41.764 -10.532   7.213  1.00  0.00     0.070 A 
HETATM   30  C   UNL     1      41.582  -9.365   6.481  1.00  0.00     0.037 A 
HETATM   31  C   UNL     1      41.288  -9.446   5.120  1.00  0.00     0.005 A 
HETATM   32  C   UNL     1      41.171 -10.689   4.489  1.00  0.00     0.030 A 
BRANCH  29  33
HETATM   33  O   UNL     1      42.040 -10.605   8.553  1.00  0.00    -0.356 OA
HETATM   34  C   UNL     1      40.931 -10.606   9.441  1.00  0.00     0.210 C 
ENDBRANCH  29  33
ENDBRANCH   1  27
TORSDOF 6
ENDMDL
MODEL 8
REMARK VINA RESULT:      -8.3      2.859      7.317
REMARK  6 active torsions:
REMARK  status: ('A' for Active; 'I' for Inactive)
REMARK    1  A    between atoms: O_2  and  C_3 
REMARK    2  A    between atoms: C_5  and  N_6 
REMARK    3  A    between atoms: C_7  and  O_8 
REMARK    4  A    between atoms: C_7  and  C_9 
REMARK       I    between atoms: C_9  and  N_10 
REMARK    5  A    between atoms: N_10  and  C_11 
REMARK    6  A    between atoms: C_11  and  C_12 
ROOT
HETATM    1  N   UNL     1      42.041 -16.941   3.820  1.00  0.00    -0.254 N 
HETATM    2  C   UNL     1      42.211 -15.649   3.134  1.00  0.00     0.256 C 
HETATM    3  C   UNL     1      41.888 -14.458   4.018  1.00  0.00     0.034 A 
HETATM    4  C   UNL     1      40.999 -14.644   5.066  1.00  0.00     0.048 A 
HETATM    5  N   UNL     1      40.536 -15.927   5.322  1.00  0.00    -0.308 N 
HETATM    6  C   UNL     1      41.045 -17.073   4.780  1.00  0.00     0.330 C 
HETATM    7  O   UNL     1      40.558 -18.131   5.176  1.00  0.00    -0.246 OA
HETATM    8  C   UNL     1      42.351 -13.158   3.751  1.00  0.00     0.015 A 
HETATM    9  C   UNL     1      41.929 -12.082   4.535  1.00  0.00     0.001 A 
HETATM   10  C   UNL     1      41.029 -12.290   5.578  1.00  0.00     0.002 A 
HETATM   11  C   UNL     1      40.558 -13.575   5.845  1.00  0.00     0.030 A 
HETATM   12  H   UNL     1      39.876 -16.085   6.074  1.00  0.00     0.170 HD
ENDROOT
BRANCH   2  13
HETATM   13  O   UNL     1      43.587 -15.486   2.770  1.00  0.00    -0.359 OA
HETATM   14  H   UNL     1      43.662 -15.889   1.884  1.00  0.00     0.213 HD
ENDBRANCH   2  13
BRANCH   2  15
HETATM   15  C   UNL     1      41.284 -15.577   1.850  1.00  0.00     0.279 C 
HETATM   16  N   UNL     1      41.890 -15.263   0.654  1.00  0.00    -0.352 N 
HETATM   17  H   UNL     1      42.868 -15.001   0.642  1.00  0.00     0.162 HD
HETATM   18  O   UNL     1      40.085 -15.862   1.931  1.00  0.00    -0.268 OA
BRANCH  16  19
HETATM   19  C   UNL     1      41.182 -15.320  -0.602  1.00  0.00     0.163 C 
BRANCH  19  20
HETATM   20  C   UNL     1      41.024 -13.944  -1.193  1.00  0.00    -0.019 A 
HETATM   21  C   UNL     1      39.799 -13.256  -1.180  1.00  0.00     0.042 A 
HETATM   22 CL   UNL     1      38.375 -13.939  -0.477  1.00  0.00    -0.084 Cl
HETATM   23  C   UNL     1      39.690 -11.984  -1.751  1.00  0.00     0.024 A 
HETATM   24  C   UNL     1      40.799 -11.385  -2.346  1.00  0.00     0.002 A 
HETATM   25  C   UNL     1      42.017 -12.058  -2.375  1.00  0.00     0.001 A 
HETATM   26  C   UNL     1      42.129 -13.328  -1.807  1.00  0.00     0.010 A 
ENDBRANCH  19  20
ENDBRANCH  16  19
ENDBRANCH   2  15
BRANCH   1  27
HETATM   27  C   UNL     1      42.769 -18.112   3.383  1.00  0.00     0.045 A 
HETATM   28  C   UNL     1      43.613 -18.793   4.278  1.00  0.00     0.066 A 
HETATM   29  C   UNL     1      44.373 -19.906   3.891  1.00  0.00     0.070 A 
HETATM   30  C   UNL     1      44.293 -20.363   2.580  1.00  0.00     0.037 A 
HETATM   31  C   UNL     1      43.462 -19.708   1.673  1.00  0.00     0.005 A 
HETATM   32  C   UNL     1      42.712 -18.595   2.068  1.00  0.00     0.030 A 
BRANCH  29  33
HETATM   33  O   UNL     1      45.155 -20.437   4.881  1.00  0.00    -0.356 OA
HETATM   34  C   UNL     1      45.048 -21.837   5.106  1.00  0.00     0.210 C 
ENDBRANCH  29  33
ENDBRANCH   1  27
TORSDOF 6
ENDMDL
MODEL 9
REMARK VINA RESULT:      -8.1      3.015      6.306
REMARK  6 active torsions:
REMARK  status: ('A' for Active; 'I' for Inactive)
REMARK    1  A    between atoms: O_2  and  C_3 
REMARK    2  A    between atoms: C_5  and  N_6 
REMARK    3  A    between atoms: C_7  and  O_8 
REMARK    4  A    between atoms: C_7  and  C_9 
REMARK       I    between atoms: C_9  and  N_10 
REMARK    5  A    between atoms: N_10  and  C_11 
REMARK    6  A    between atoms: C_11  and  C_12 
ROOT
HETATM    1  N   UNL     1      39.708 -13.537   1.407  1.00  0.00    -0.254 N 
HETATM    2  C   UNL     1      41.056 -13.492   0.816  1.00  0.00     0.256 C 
HETATM    3  C   UNL     1      41.039 -13.357  -0.696  1.00  0.00     0.034 A 
HETATM    4  C   UNL     1      39.929 -13.830  -1.381  1.00  0.00     0.048 A 
HETATM    5  N   UNL     1      38.849 -14.300  -0.649  1.00  0.00    -0.308 N 
HETATM    6  C   UNL     1      38.675 -14.135   0.696  1.00  0.00     0.330 C 
HETATM    7  O   UNL     1      37.620 -14.555   1.169  1.00  0.00    -0.246 OA
HETATM    8  C   UNL     1      42.138 -12.889  -1.436  1.00  0.00     0.015 A 
HETATM    9  C   UNL     1      42.104 -12.894  -2.833  1.00  0.00     0.001 A 
HETATM   10  C   UNL     1      40.983 -13.381  -3.501  1.00  0.00     0.002 A 
HETATM   11  C   UNL     1      39.891 -13.855  -2.775  1.00  0.00     0.030 A 
HETATM   12  H   UNL     1      38.034 -14.663  -1.128  1.00  0.00     0.170 HD
ENDROOT
BRANCH   2  13
HETATM   13  O   UNL     1      41.740 -12.326   1.289  1.00  0.00    -0.359 OA
HETATM   14  H   UNL     1      42.146 -12.598   2.134  1.00  0.00     0.213 HD
ENDBRANCH   2  13
BRANCH   2  15
HETATM   15  C   UNL     1      41.869 -14.801   1.186  1.00  0.00     0.279 C 
HETATM   16  N   UNL     1      42.839 -14.686   2.157  1.00  0.00    -0.352 N 
HETATM   17  H   UNL     1      43.065 -13.773   2.531  1.00  0.00     0.162 HD
HETATM   18  O   UNL     1      41.581 -15.882   0.661  1.00  0.00    -0.268 OA
BRANCH  16  19
HETATM   19  C   UNL     1      43.533 -15.835   2.686  1.00  0.00     0.163 C 
BRANCH  19  20
HETATM   20  C   UNL     1      42.900 -16.302   3.971  1.00  0.00    -0.019 A 
HETATM   21  C   UNL     1      43.013 -15.579   5.170  1.00  0.00     0.042 A 
HETATM   22 CL   UNL     1      43.889 -14.092   5.262  1.00  0.00    -0.084 Cl
HETATM   23  C   UNL     1      42.421 -16.053   6.345  1.00  0.00     0.024 A 
HETATM   24  C   UNL     1      41.713 -17.254   6.340  1.00  0.00     0.002 A 
HETATM   25  C   UNL     1      41.599 -17.985   5.160  1.00  0.00     0.001 A 
HETATM   26  C   UNL     1      42.190 -17.516   3.986  1.00  0.00     0.010 A 
ENDBRANCH  19  20
ENDBRANCH  16  19
ENDBRANCH   2  15
BRANCH   1  27
HETATM   27  C   UNL     1      39.489 -13.135   2.780  1.00  0.00     0.045 A 
HETATM   28  C   UNL     1      38.877 -11.901   3.063  1.00  0.00     0.066 A 
HETATM   29  C   UNL     1      38.683 -11.446   4.375  1.00  0.00     0.070 A 
HETATM   30  C   UNL     1      39.101 -12.237   5.440  1.00  0.00     0.037 A 
HETATM   31  C   UNL     1      39.708 -13.466   5.187  1.00  0.00     0.005 A 
HETATM   32  C   UNL     1      39.902 -13.908   3.874  1.00  0.00     0.030 A 
BRANCH  29  33
HETATM   33  O   UNL     1      38.089 -10.216   4.472  1.00  0.00    -0.356 OA
HETATM   34  C   UNL     1      37.444  -9.717   3.308  1.00  0.00     0.210 C 
ENDBRANCH  29  33
ENDBRANCH   1  27
TORSDOF 6
ENDMDL
MODEL 10
REMARK VINA RESULT:      -8.0      3.179      7.259
REMARK  6 active torsions:
REMARK  status: ('A' for Active; 'I' for Inactive)
REMARK    1  A    between atoms: O_2  and  C_3 
REMARK    2  A    between atoms: C_5  and  N_6 
REMARK    3  A    between atoms: C_7  and  O_8 
REMARK    4  A    between atoms: C_7  and  C_9 
REMARK       I    between atoms: C_9  and  N_10 
REMARK    5  A    between atoms: N_10  and  C_11 
REMARK    6  A    between atoms: C_11  and  C_12 
ROOT
HETATM    1  N   UNL     1      41.575 -15.641   4.699  1.00  0.00    -0.254 N 
HETATM    2  C   UNL     1      41.601 -14.409   3.891  1.00  0.00     0.256 C 
HETATM    3  C   UNL     1      41.309 -13.160   4.701  1.00  0.00     0.034 A 
HETATM    4  C   UNL     1      40.547 -13.292   5.853  1.00  0.00     0.048 A 
HETATM    5  N   UNL     1      40.184 -14.566   6.266  1.00  0.00    -0.308 N 
HETATM    6  C   UNL     1      40.696 -15.731   5.770  1.00  0.00     0.330 C 
HETATM    7  O   UNL     1      40.312 -16.771   6.304  1.00  0.00    -0.246 OA
HETATM    8  C   UNL     1      41.669 -11.870   4.277  1.00  0.00     0.015 A 
HETATM    9  C   UNL     1      41.273 -10.748   5.009  1.00  0.00     0.001 A 
HETATM   10  C   UNL     1      40.501 -10.902   6.158  1.00  0.00     0.002 A 
HETATM   11  C   UNL     1      40.132 -12.177   6.583  1.00  0.00     0.030 A 
HETATM   12  H   UNL     1      39.616 -14.685   7.096  1.00  0.00     0.170 HD
ENDROOT
BRANCH   2  13
HETATM   13  O   UNL     1      42.920 -14.217   3.366  1.00  0.00    -0.359 OA
HETATM   14  H   UNL     1      42.851 -14.452   2.421  1.00  0.00     0.213 HD
ENDBRANCH   2  13
BRANCH   2  15
HETATM   15  C   UNL     1      40.542 -14.495   2.715  1.00  0.00     0.279 C 
HETATM   16  N   UNL     1      41.029 -14.474   1.427  1.00  0.00    -0.352 N 
HETATM   17  H   UNL     1      42.016 -14.314   1.269  1.00  0.00     0.162 HD
HETATM   18  O   UNL     1      39.342 -14.643   2.968  1.00  0.00    -0.268 OA
BRANCH  16  19
HETATM   19  C   UNL     1      40.179 -14.701   0.284  1.00  0.00     0.163 C 
BRANCH  19  20
HETATM   20  C   UNL     1      40.668 -13.927  -0.912  1.00  0.00    -0.019 A 
HETATM   21  C   UNL     1      39.839 -13.632  -2.007  1.00  0.00     0.042 A 
HETATM   22 CL   UNL     1      38.186 -14.134  -2.063  1.00  0.00    -0.084 Cl
HETATM   23  C   UNL     1      40.334 -12.921  -3.105  1.00  0.00     0.024 A 
HETATM   24  C   UNL     1      41.663 -12.499  -3.126  1.00  0.00     0.002 A 
HETATM   25  C   UNL     1      42.499 -12.792  -2.052  1.00  0.00     0.001 A 
HETATM   26  C   UNL     1      42.008 -13.503  -0.956  1.00  0.00     0.010 A 
ENDBRANCH  19  20
ENDBRANCH  16  19
ENDBRANCH   2  15
BRANCH   1  27
HETATM   27  C   UNL     1      42.316 -16.813   4.284  1.00  0.00     0.045 A 
HETATM   28  C   UNL     1      43.419 -17.253   5.039  1.00  0.00     0.066 A 
HETATM   29  C   UNL     1      44.195 -18.355   4.655  1.00  0.00     0.070 A 
HETATM   30  C   UNL     1      43.871 -19.047   3.493  1.00  0.00     0.037 A 
HETATM   31  C   UNL     1      42.781 -18.634   2.729  1.00  0.00     0.005 A 
HETATM   32  C   UNL     1      42.016 -17.529   3.117  1.00  0.00     0.030 A 
BRANCH  29  33
HETATM   33  O   UNL     1      45.242 -18.637   5.492  1.00  0.00    -0.356 OA
HETATM   34  C   UNL     1      45.268 -17.960   6.742  1.00  0.00     0.210 C 
ENDBRANCH  29  33
ENDBRANCH   1  27
TORSDOF 6
ENDMDL
