MODEL 1
REMARK VINA RESULT:      -9.7      0.000      0.000
REMARK  4 active torsions:
REMARK  status: ('A' for Active; 'I' for Inactive)
REMARK    1  A    between atoms: C_2  and  C_3 
REMARK    2  A    between atoms: C_6  and  C_7 
REMARK    3  A    between atoms: C_11  and  C_12 
REMARK       I    between atoms: C_12  and  N_13 
REMARK    4  A    between atoms: N_13  and  N_14 
ROOT
HETATM    1  C   UNL     1      43.916 -14.356   5.456  1.00  0.00     0.289 C 
HETATM    2  N   UNL     1      43.609 -15.694   5.644  1.00  0.00    -0.241 N 
HETATM    3  O   UNL     1      44.005 -13.817   4.356  1.00  0.00    -0.264 OA
HETATM    4  H   UNL     1      43.575 -16.093   6.581  1.00  0.00     0.192 HD
ENDROOT
BRANCH   1   5
HETATM    5  C   UNL     1      44.142 -13.610   6.668  1.00  0.00     0.121 A 
HETATM    6  N   UNL     1      45.337 -13.684   7.327  1.00  0.00    -0.272 N 
HETATM    7  N   UNL     1      45.397 -12.949   8.445  1.00  0.00    -0.174 NA
HETATM    8  H   UNL     1      46.145 -14.234   7.052  1.00  0.00     0.189 HD
HETATM    9  C   UNL     1      44.202 -12.342   8.519  1.00  0.00     0.089 A 
HETATM   10  C   UNL     1      43.382 -12.737   7.422  1.00  0.00     0.071 A 
BRANCH   9  11
HETATM   11  C   UNL     1      43.877 -11.422   9.616  1.00  0.00    -0.006 A 
HETATM   12  C   UNL     1      44.653 -11.375  10.782  1.00  0.00     0.014 A 
HETATM   13  C   UNL     1      44.327 -10.496  11.823  1.00  0.00     0.008 A 
HETATM   14  C   UNL     1      43.217  -9.650  11.719  1.00  0.00    -0.059 A 
HETATM   15  C   UNL     1      42.444  -9.687  10.554  1.00  0.00     0.008 A 
HETATM   16  C   UNL     1      42.769 -10.568   9.517  1.00  0.00     0.014 A 
BRANCH  14  17
HETATM   17  C   UNL     1      42.872  -8.696  12.833  1.00  0.00     0.034 C 
HETATM   18  C   UNL     1      42.906  -9.377  14.192  1.00  0.00     0.010 C 
ENDBRANCH  14  17
ENDBRANCH   9  11
ENDBRANCH   1   5
BRANCH   2  19
HETATM   19  N   UNL     1      43.380 -16.509   4.569  1.00  0.00    -0.165 NA
HETATM   20  C   UNL     1      43.887 -17.698   4.623  1.00  0.00     0.157 A 
HETATM   21  C   UNL     1      44.725 -18.327   5.741  1.00  0.00     0.277 A 
HETATM   22  C   UNL     1      43.768 -18.720   3.592  1.00  0.00     0.027 A 
HETATM   23  O   UNL     1      45.028 -17.767   6.774  1.00  0.00    -0.266 OA
HETATM   24  N   UNL     1      45.026 -19.599   5.307  1.00  0.00    -0.321 N 
HETATM   25  C   UNL     1      44.468 -19.834   4.053  1.00  0.00     0.048 A 
HETATM   26  H   UNL     1      45.576 -20.256   5.842  1.00  0.00     0.169 HD
HETATM   27  C   UNL     1      44.549 -20.988   3.301  1.00  0.00     0.030 A 
HETATM   28  C   UNL     1      43.900 -20.993   2.060  1.00  0.00     0.002 A 
HETATM   29  C   UNL     1      43.192 -19.861   1.602  1.00  0.00     0.001 A 
HETATM   30  C   UNL     1      43.119 -18.700   2.374  1.00  0.00     0.016 A 
ENDBRANCH   2  19
TORSDOF 4
ENDMDL
MODEL 2
REMARK VINA RESULT:      -9.4      2.218     10.153
REMARK  4 active torsions:
REMARK  status: ('A' for Active; 'I' for Inactive)
REMARK    1  A    between atoms: C_2  and  C_3 
REMARK    2  A    between atoms: C_6  and  C_7 
REMARK    3  A    between atoms: C_11  and  C_12 
REMARK       I    between atoms: C_12  and  N_13 
REMARK    4  A    between atoms: N_13  and  N_14 
ROOT
HETATM    1  C   UNL     1      42.004 -12.558   6.247  1.00  0.00     0.289 C 
HETATM    2  N   UNL     1      42.859 -12.174   7.267  1.00  0.00    -0.241 N 
HETATM    3  O   UNL     1      40.890 -12.075   6.063  1.00  0.00    -0.264 OA
HETATM    4  H   UNL     1      43.763 -12.629   7.387  1.00  0.00     0.192 HD
ENDROOT
BRANCH   1   5
HETATM    5  C   UNL     1      42.512 -13.599   5.390  1.00  0.00     0.121 A 
HETATM    6  N   UNL     1      43.062 -13.304   4.175  1.00  0.00    -0.272 N 
HETATM    7  N   UNL     1      43.477 -14.373   3.482  1.00  0.00    -0.174 NA
HETATM    8  H   UNL     1      43.170 -12.379   3.769  1.00  0.00     0.189 HD
HETATM    9  C   UNL     1      43.215 -15.420   4.281  1.00  0.00     0.089 A 
HETATM   10  C   UNL     1      42.602 -14.974   5.488  1.00  0.00     0.071 A 
BRANCH   9  11
HETATM   11  C   UNL     1      43.545 -16.792   3.877  1.00  0.00    -0.006 A 
HETATM   12  C   UNL     1      43.650 -17.149   2.526  1.00  0.00     0.014 A 
HETATM   13  C   UNL     1      43.959 -18.464   2.157  1.00  0.00     0.008 A 
HETATM   14  C   UNL     1      44.166 -19.448   3.131  1.00  0.00    -0.059 A 
HETATM   15  C   UNL     1      44.070 -19.094   4.480  1.00  0.00     0.008 A 
HETATM   16  C   UNL     1      43.758 -17.781   4.847  1.00  0.00     0.014 A 
BRANCH  14  17
HETATM   17  C   UNL     1      44.511 -20.860   2.734  1.00  0.00     0.034 C 
HETATM   18  C   UNL     1      43.541 -21.410   1.699  1.00  0.00     0.010 C 
ENDBRANCH  14  17
ENDBRANCH   9  11
ENDBRANCH   1   5
BRANCH   2  19
HETATM   19  N   UNL     1      42.486 -11.199   8.152  1.00  0.00    -0.165 NA
HETATM   20  C   UNL     1      43.094 -11.187   9.294  1.00  0.00     0.157 A 
HETATM   21  C   UNL     1      44.188 -12.133   9.801  1.00  0.00     0.277 A 
HETATM   22  C   UNL     1      42.851 -10.243  10.376  1.00  0.00     0.027 A 
HETATM   23  O   UNL     1      44.654 -13.053   9.162  1.00  0.00    -0.266 OA
HETATM   24  N   UNL     1      44.487 -11.704  11.075  1.00  0.00    -0.321 N 
HETATM   25  C   UNL     1      43.709 -10.599  11.416  1.00  0.00     0.048 A 
HETATM   26  H   UNL     1      45.179 -12.143  11.664  1.00  0.00     0.169 HD
HETATM   27  C   UNL     1      43.727  -9.893  12.600  1.00  0.00     0.030 A 
HETATM   28  C   UNL     1      42.849  -8.807  12.715  1.00  0.00     0.002 A 
HETATM   29  C   UNL     1      41.985  -8.453  11.657  1.00  0.00     0.001 A 
HETATM   30  C   UNL     1      41.978  -9.177  10.463  1.00  0.00     0.016 A 
ENDBRANCH   2  19
TORSDOF 4
ENDMDL
MODEL 3
REMARK VINA RESULT:      -9.1      7.326     10.748
REMARK  4 active torsions:
REMARK  status: ('A' for Active; 'I' for Inactive)
REMARK    1  A    between atoms: C_2  and  C_3 
REMARK    2  A    between atoms: C_6  and  C_7 
REMARK    3  A    between atoms: C_11  and  C_12 
REMARK       I    between atoms: C_12  and  N_13 
REMARK    4  A    between atoms: N_13  and  N_14 
ROOT
HETATM    1  C   UNL     1      41.019 -14.827  -0.972  1.00  0.00     0.289 C 
HETATM    2  N   UNL     1      42.167 -14.294  -1.535  1.00  0.00    -0.241 N 
HETATM    3  O   UNL     1      39.879 -14.542  -1.330  1.00  0.00    -0.264 OA
HETATM    4  H   UNL     1      43.088 -14.548  -1.179  1.00  0.00     0.192 HD
ENDROOT
BRANCH   1   5
HETATM    5  C   UNL     1      41.248 -15.761   0.102  1.00  0.00     0.121 A 
HETATM    6  N   UNL     1      40.231 -16.142   0.930  1.00  0.00    -0.272 N 
HETATM    7  N   UNL     1      40.594 -17.002   1.891  1.00  0.00    -0.174 NA
HETATM    8  H   UNL     1      39.265 -15.833   0.883  1.00  0.00     0.189 HD
HETATM    9  C   UNL     1      41.902 -17.220   1.676  1.00  0.00     0.089 A 
HETATM   10  C   UNL     1      42.352 -16.453   0.563  1.00  0.00     0.071 A 
BRANCH   9  11
HETATM   11  C   UNL     1      42.675 -18.135   2.526  1.00  0.00    -0.006 A 
HETATM   12  C   UNL     1      42.676 -18.007   3.922  1.00  0.00     0.014 A 
HETATM   13  C   UNL     1      43.423 -18.883   4.719  1.00  0.00     0.008 A 
HETATM   14  C   UNL     1      44.186 -19.901   4.136  1.00  0.00    -0.059 A 
HETATM   15  C   UNL     1      44.182 -20.037   2.744  1.00  0.00     0.008 A 
HETATM   16  C   UNL     1      43.438 -19.159   1.949  1.00  0.00     0.014 A 
BRANCH  14  17
HETATM   17  C   UNL     1      44.982 -20.852   4.993  1.00  0.00     0.034 C 
HETATM   18  C   UNL     1      44.731 -22.302   4.613  1.00  0.00     0.010 C 
ENDBRANCH  14  17
ENDBRANCH   9  11
ENDBRANCH   1   5
BRANCH   2  19
HETATM   19  N   UNL     1      42.080 -13.390  -2.558  1.00  0.00    -0.165 NA
HETATM   20  C   UNL     1      42.287 -12.148  -2.256  1.00  0.00     0.157 A 
HETATM   21  C   UNL     1      42.616 -11.543  -0.888  1.00  0.00     0.277 A 
HETATM   22  C   UNL     1      42.241 -11.029  -3.187  1.00  0.00     0.027 A 
HETATM   23  O   UNL     1      42.742 -12.181   0.136  1.00  0.00    -0.266 OA
HETATM   24  N   UNL     1      42.727 -10.186  -1.100  1.00  0.00    -0.321 N 
HETATM   25  C   UNL     1      42.509  -9.881  -2.442  1.00  0.00     0.048 A 
HETATM   26  H   UNL     1      42.940  -9.523  -0.370  1.00  0.00     0.169 HD
HETATM   27  C   UNL     1      42.540  -8.636  -3.035  1.00  0.00     0.030 A 
HETATM   28  C   UNL     1      42.291  -8.574  -4.412  1.00  0.00     0.002 A 
HETATM   29  C   UNL     1      42.021  -9.741  -5.158  1.00  0.00     0.001 A 
HETATM   30  C   UNL     1      41.992 -10.994  -4.544  1.00  0.00     0.016 A 
ENDBRANCH   2  19
TORSDOF 4
ENDMDL
MODEL 4
REMARK VINA RESULT:      -8.4      2.280     10.546
REMARK  4 active torsions:
REMARK  status: ('A' for Active; 'I' for Inactive)
REMARK    1  A    between atoms: C_2  and  C_3 
REMARK    2  A    between atoms: C_6  and  C_7 
REMARK    3  A    between atoms: C_11  and  C_12 
REMARK       I    between atoms: C_12  and  N_13 
REMARK    4  A    between atoms: N_13  and  N_14 
ROOT
HETATM    1  C   UNL     1      44.346 -13.094   8.236  1.00  0.00     0.289 C 
HETATM    2  N   UNL     1      43.361 -12.230   8.685  1.00  0.00    -0.241 N 
HETATM    3  O   UNL     1      45.441 -13.230   8.775  1.00  0.00    -0.264 OA
HETATM    4  H   UNL     1      42.480 -12.139   8.181  1.00  0.00     0.192 HD
ENDROOT
BRANCH   1   5
HETATM    5  C   UNL     1      44.003 -13.842   7.053  1.00  0.00     0.121 A 
HETATM    6  N   UNL     1      43.264 -13.277   6.053  1.00  0.00    -0.272 N 
HETATM    7  N   UNL     1      43.010 -14.096   5.024  1.00  0.00    -0.174 NA
HETATM    8  H   UNL     1      42.900 -12.329   6.032  1.00  0.00     0.189 HD
HETATM    9  C   UNL     1      43.628 -15.245   5.341  1.00  0.00     0.089 A 
HETATM   10  C   UNL     1      44.259 -15.127   6.614  1.00  0.00     0.071 A 
BRANCH   9  11
HETATM   11  C   UNL     1      43.596 -16.405   4.443  1.00  0.00    -0.006 A 
HETATM   12  C   UNL     1      43.609 -17.714   4.942  1.00  0.00     0.014 A 
HETATM   13  C   UNL     1      43.584 -18.811   4.071  1.00  0.00     0.008 A 
HETATM   14  C   UNL     1      43.551 -18.620   2.685  1.00  0.00    -0.059 A 
HETATM   15  C   UNL     1      43.530 -17.315   2.183  1.00  0.00     0.008 A 
HETATM   16  C   UNL     1      43.558 -16.221   3.053  1.00  0.00     0.014 A 
BRANCH  14  17
HETATM   17  C   UNL     1      43.513 -19.800   1.749  1.00  0.00     0.034 C 
HETATM   18  C   UNL     1      44.279 -20.990   2.305  1.00  0.00     0.010 C 
ENDBRANCH  14  17
ENDBRANCH   9  11
ENDBRANCH   1   5
BRANCH   2  19
HETATM   19  N   UNL     1      43.571 -11.459   9.796  1.00  0.00    -0.165 NA
HETATM   20  C   UNL     1      42.617 -10.651  10.131  1.00  0.00     0.157 A 
HETATM   21  C   UNL     1      41.266 -10.434   9.441  1.00  0.00     0.277 A 
HETATM   22  C   UNL     1      42.633  -9.744  11.271  1.00  0.00     0.027 A 
HETATM   23  O   UNL     1      40.895 -11.026   8.450  1.00  0.00    -0.266 OA
HETATM   24  N   UNL     1      40.625  -9.464  10.181  1.00  0.00    -0.321 N 
HETATM   25  C   UNL     1      41.420  -9.058  11.251  1.00  0.00     0.048 A 
HETATM   26  H   UNL     1      39.705  -9.111   9.960  1.00  0.00     0.169 HD
HETATM   27  C   UNL     1      41.117  -8.113  12.209  1.00  0.00     0.030 A 
HETATM   28  C   UNL     1      42.079  -7.872  13.199  1.00  0.00     0.002 A 
HETATM   29  C   UNL     1      43.304  -8.572  13.213  1.00  0.00     0.001 A 
HETATM   30  C   UNL     1      43.596  -9.526  12.235  1.00  0.00     0.016 A 
ENDBRANCH   2  19
TORSDOF 4
ENDMDL
MODEL 5
REMARK VINA RESULT:      -8.4      6.691      9.467
REMARK  4 active torsions:
REMARK  status: ('A' for Active; 'I' for Inactive)
REMARK    1  A    between atoms: C_2  and  C_3 
REMARK    2  A    between atoms: C_6  and  C_7 
REMARK    3  A    between atoms: C_11  and  C_12 
REMARK       I    between atoms: C_12  and  N_13 
REMARK    4  A    between atoms: N_13  and  N_14 
ROOT
HETATM    1  C   UNL     1      41.337 -16.164   1.674  1.00  0.00     0.289 C 
HETATM    2  N   UNL     1      42.576 -16.275   2.283  1.00  0.00    -0.241 N 
HETATM    3  O   UNL     1      40.308 -16.676   2.108  1.00  0.00    -0.264 OA
HETATM    4  H   UNL     1      43.402 -15.850   1.862  1.00  0.00     0.192 HD
ENDROOT
BRANCH   1   5
HETATM    5  C   UNL     1      41.326 -15.395   0.455  1.00  0.00     0.121 A 
HETATM    6  N   UNL     1      40.763 -15.893  -0.686  1.00  0.00    -0.272 N 
HETATM    7  N   UNL     1      40.840 -15.074  -1.742  1.00  0.00    -0.174 NA
HETATM    8  H   UNL     1      40.317 -16.799  -0.794  1.00  0.00     0.189 HD
HETATM    9  C   UNL     1      41.458 -13.976  -1.278  1.00  0.00     0.089 A 
HETATM   10  C   UNL     1      41.784 -14.141   0.099  1.00  0.00     0.071 A 
BRANCH   9  11
HETATM   11  C   UNL     1      41.719 -12.820  -2.145  1.00  0.00    -0.006 A 
HETATM   12  C   UNL     1      41.256 -12.782  -3.468  1.00  0.00     0.014 A 
HETATM   13  C   UNL     1      41.519 -11.675  -4.285  1.00  0.00     0.008 A 
HETATM   14  C   UNL     1      42.252 -10.588  -3.797  1.00  0.00    -0.059 A 
HETATM   15  C   UNL     1      42.709 -10.618  -2.476  1.00  0.00     0.008 A 
HETATM   16  C   UNL     1      42.449 -11.725  -1.662  1.00  0.00     0.014 A 
BRANCH  14  17
HETATM   17  C   UNL     1      42.525  -9.392  -4.672  1.00  0.00     0.034 C 
HETATM   18  C   UNL     1      42.456  -8.089  -3.890  1.00  0.00     0.010 C 
ENDBRANCH  14  17
ENDBRANCH   9  11
ENDBRANCH   1   5
BRANCH   2  19
HETATM   19  N   UNL     1      42.716 -16.987   3.442  1.00  0.00    -0.165 NA
HETATM   20  C   UNL     1      43.357 -18.109   3.362  1.00  0.00     0.157 A 
HETATM   21  C   UNL     1      43.986 -18.760   2.125  1.00  0.00     0.277 A 
HETATM   22  C   UNL     1      43.617 -19.020   4.468  1.00  0.00     0.027 A 
HETATM   23  O   UNL     1      43.972 -18.281   1.011  1.00  0.00    -0.266 OA
HETATM   24  N   UNL     1      44.533 -19.944   2.569  1.00  0.00    -0.321 N 
HETATM   25  C   UNL     1      44.321 -20.100   3.937  1.00  0.00     0.048 A 
HETATM   26  H   UNL     1      45.018 -20.594   1.968  1.00  0.00     0.169 HD
HETATM   27  C   UNL     1      44.723 -21.151   4.734  1.00  0.00     0.030 A 
HETATM   28  C   UNL     1      44.396 -21.088   6.094  1.00  0.00     0.002 A 
HETATM   29  C   UNL     1      43.684 -19.990   6.624  1.00  0.00     0.001 A 
HETATM   30  C   UNL     1      43.283 -18.933   5.804  1.00  0.00     0.016 A 
ENDBRANCH   2  19
TORSDOF 4
ENDMDL
MODEL 6
REMARK VINA RESULT:      -8.2      7.313     10.911
REMARK  4 active torsions:
REMARK  status: ('A' for Active; 'I' for Inactive)
REMARK    1  A    between atoms: C_2  and  C_3 
REMARK    2  A    between atoms: C_6  and  C_7 
REMARK    3  A    between atoms: C_11  and  C_12 
REMARK       I    between atoms: C_12  and  N_13 
REMARK    4  A    between atoms: N_13  and  N_14 
ROOT
HETATM    1  C   UNL     1      40.476 -14.456   0.920  1.00  0.00     0.289 C 
HETATM    2  N   UNL     1      39.440 -14.708   0.036  1.00  0.00    -0.241 N 
HETATM    3  O   UNL     1      40.668 -13.371   1.465  1.00  0.00    -0.264 OA
HETATM    4  H   UNL     1      39.345 -15.622  -0.406  1.00  0.00     0.192 HD
ENDROOT
BRANCH   1   5
HETATM    5  C   UNL     1      41.351 -15.575   1.166  1.00  0.00     0.121 A 
HETATM    6  N   UNL     1      42.138 -16.083   0.172  1.00  0.00    -0.272 N 
HETATM    7  N   UNL     1      42.886 -17.130   0.542  1.00  0.00    -0.174 NA
HETATM    8  H   UNL     1      42.193 -15.749  -0.785  1.00  0.00     0.189 HD
HETATM    9  C   UNL     1      42.603 -17.310   1.842  1.00  0.00     0.089 A 
HETATM   10  C   UNL     1      41.636 -16.354   2.271  1.00  0.00     0.071 A 
BRANCH   9  11
HETATM   11  C   UNL     1      43.245 -18.371   2.627  1.00  0.00    -0.006 A 
HETATM   12  C   UNL     1      43.707 -19.548   2.020  1.00  0.00     0.014 A 
HETATM   13  C   UNL     1      44.313 -20.554   2.783  1.00  0.00     0.008 A 
HETATM   14  C   UNL     1      44.465 -20.406   4.166  1.00  0.00    -0.059 A 
HETATM   15  C   UNL     1      44.013 -19.231   4.774  1.00  0.00     0.008 A 
HETATM   16  C   UNL     1      43.405 -18.228   4.012  1.00  0.00     0.014 A 
BRANCH  14  17
HETATM   17  C   UNL     1      45.127 -21.484   4.985  1.00  0.00     0.034 C 
HETATM   18  C   UNL     1      44.722 -22.875   4.524  1.00  0.00     0.010 C 
ENDBRANCH  14  17
ENDBRANCH   9  11
ENDBRANCH   1   5
BRANCH   2  19
HETATM   19  N   UNL     1      38.547 -13.722  -0.283  1.00  0.00    -0.165 NA
HETATM   20  C   UNL     1      38.378 -13.477  -1.543  1.00  0.00     0.157 A 
HETATM   21  C   UNL     1      39.054 -14.148  -2.743  1.00  0.00     0.277 A 
HETATM   22  C   UNL     1      37.482 -12.473  -2.100  1.00  0.00     0.027 A 
HETATM   23  O   UNL     1      39.867 -15.045  -2.664  1.00  0.00    -0.266 OA
HETATM   24  N   UNL     1      38.540 -13.519  -3.856  1.00  0.00    -0.321 N 
HETATM   25  C   UNL     1      37.620 -12.541  -3.486  1.00  0.00     0.048 A 
HETATM   26  H   UNL     1      38.806 -13.753  -4.802  1.00  0.00     0.169 HD
HETATM   27  C   UNL     1      36.899 -11.710  -4.317  1.00  0.00     0.030 A 
HETATM   28  C   UNL     1      36.025 -10.797  -3.712  1.00  0.00     0.002 A 
HETATM   29  C   UNL     1      35.889 -10.736  -2.309  1.00  0.00     0.001 A 
HETATM   30  C   UNL     1      36.627 -11.585  -1.480  1.00  0.00     0.016 A 
ENDBRANCH   2  19
TORSDOF 4
ENDMDL
MODEL 7
REMARK VINA RESULT:      -8.2      2.748      3.141
REMARK  4 active torsions:
REMARK  status: ('A' for Active; 'I' for Inactive)
REMARK    1  A    between atoms: C_2  and  C_3 
REMARK    2  A    between atoms: C_6  and  C_7 
REMARK    3  A    between atoms: C_11  and  C_12 
REMARK       I    between atoms: C_12  and  N_13 
REMARK    4  A    between atoms: N_13  and  N_14 
ROOT
HETATM    1  C   UNL     1      42.561 -14.110   3.794  1.00  0.00     0.289 C 
HETATM    2  N   UNL     1      41.960 -15.339   4.013  1.00  0.00    -0.241 N 
HETATM    3  O   UNL     1      43.439 -13.912   2.958  1.00  0.00    -0.264 OA
HETATM    4  H   UNL     1      41.254 -15.450   4.740  1.00  0.00     0.192 HD
ENDROOT
BRANCH   1   5
HETATM    5  C   UNL     1      42.085 -13.043   4.638  1.00  0.00     0.121 A 
HETATM    6  N   UNL     1      41.912 -11.781   4.144  1.00  0.00    -0.272 N 
HETATM    7  N   UNL     1      41.480 -10.890   5.046  1.00  0.00    -0.174 NA
HETATM    8  H   UNL     1      42.084 -11.476   3.191  1.00  0.00     0.189 HD
HETATM    9  C   UNL     1      41.337 -11.595   6.180  1.00  0.00     0.089 A 
HETATM   10  C   UNL     1      41.714 -12.953   5.965  1.00  0.00     0.071 A 
BRANCH   9  11
HETATM   11  C   UNL     1      40.858 -10.966   7.417  1.00  0.00    -0.006 A 
HETATM   12  C   UNL     1      39.574 -11.224   7.916  1.00  0.00     0.014 A 
HETATM   13  C   UNL     1      39.129 -10.612   9.095  1.00  0.00     0.008 A 
HETATM   14  C   UNL     1      39.957  -9.727   9.794  1.00  0.00    -0.059 A 
HETATM   15  C   UNL     1      41.242  -9.473   9.305  1.00  0.00     0.008 A 
HETATM   16  C   UNL     1      41.684 -10.082   8.126  1.00  0.00     0.014 A 
BRANCH  14  17
HETATM   17  C   UNL     1      39.483  -9.077  11.069  1.00  0.00     0.034 C 
HETATM   18  C   UNL     1      37.971  -9.151  11.214  1.00  0.00     0.010 C 
ENDBRANCH  14  17
ENDBRANCH   9  11
ENDBRANCH   1   5
BRANCH   2  19
HETATM   19  N   UNL     1      42.333 -16.432   3.280  1.00  0.00    -0.165 NA
HETATM   20  C   UNL     1      42.996 -17.352   3.903  1.00  0.00     0.157 A 
HETATM   21  C   UNL     1      43.431 -17.383   5.372  1.00  0.00     0.277 A 
HETATM   22  C   UNL     1      43.489 -18.590   3.315  1.00  0.00     0.027 A 
HETATM   23  O   UNL     1      43.191 -16.512   6.181  1.00  0.00    -0.266 OA
HETATM   24  N   UNL     1      44.116 -18.568   5.529  1.00  0.00    -0.321 N 
HETATM   25  C   UNL     1      44.152 -19.277   4.330  1.00  0.00     0.048 A 
HETATM   26  H   UNL     1      44.527 -18.864   6.403  1.00  0.00     0.169 HD
HETATM   27  C   UNL     1      44.741 -20.502   4.098  1.00  0.00     0.030 A 
HETATM   28  C   UNL     1      44.645 -21.025   2.801  1.00  0.00     0.002 A 
HETATM   29  C   UNL     1      43.971 -20.324   1.779  1.00  0.00     0.001 A 
HETATM   30  C   UNL     1      43.380 -19.083   2.030  1.00  0.00     0.016 A 
ENDBRANCH   2  19
TORSDOF 4
ENDMDL
MODEL 8
REMARK VINA RESULT:      -8.2      7.367     11.038
REMARK  4 active torsions:
REMARK  status: ('A' for Active; 'I' for Inactive)
REMARK    1  A    between atoms: C_2  and  C_3 
REMARK    2  A    between atoms: C_6  and  C_7 
REMARK    3  A    between atoms: C_11  and  C_12 
REMARK       I    between atoms: C_12  and  N_13 
REMARK    4  A    between atoms: N_13  and  N_14 
ROOT
HETATM    1  C   UNL     1      40.977 -14.821  -0.546  1.00  0.00     0.289 C 
HETATM    2  N   UNL     1      39.665 -14.798  -0.991  1.00  0.00    -0.241 N 
HETATM    3  O   UNL     1      41.854 -14.060  -0.947  1.00  0.00    -0.264 OA
HETATM    4  H   UNL     1      38.985 -15.471  -0.641  1.00  0.00     0.192 HD
ENDROOT
BRANCH   1   5
HETATM    5  C   UNL     1      41.264 -15.829   0.443  1.00  0.00     0.121 A 
HETATM    6  N   UNL     1      40.291 -16.285   1.286  1.00  0.00    -0.272 N 
HETATM    7  N   UNL     1      40.707 -17.209   2.161  1.00  0.00    -0.174 NA
HETATM    8  H   UNL     1      39.320 -15.986   1.306  1.00  0.00     0.189 HD
HETATM    9  C   UNL     1      42.005 -17.394   1.871  1.00  0.00     0.089 A 
HETATM   10  C   UNL     1      42.395 -16.539   0.799  1.00  0.00     0.071 A 
BRANCH   9  11
HETATM   11  C   UNL     1      42.825 -18.359   2.613  1.00  0.00    -0.006 A 
HETATM   12  C   UNL     1      43.061 -18.211   3.987  1.00  0.00     0.014 A 
HETATM   13  C   UNL     1      43.851 -19.137   4.680  1.00  0.00     0.008 A 
HETATM   14  C   UNL     1      44.424 -20.226   4.012  1.00  0.00    -0.059 A 
HETATM   15  C   UNL     1      44.185 -20.381   2.643  1.00  0.00     0.008 A 
HETATM   16  C   UNL     1      43.398 -19.454   1.952  1.00  0.00     0.014 A 
BRANCH  14  17
HETATM   17  C   UNL     1      45.265 -21.229   4.760  1.00  0.00     0.034 C 
HETATM   18  C   UNL     1      44.700 -22.636   4.649  1.00  0.00     0.010 C 
ENDBRANCH  14  17
ENDBRANCH   9  11
ENDBRANCH   1   5
BRANCH   2  19
HETATM   19  N   UNL     1      39.271 -13.890  -1.935  1.00  0.00    -0.165 NA
HETATM   20  C   UNL     1      38.358 -13.043  -1.582  1.00  0.00     0.157 A 
HETATM   21  C   UNL     1      37.644 -12.920  -0.232  1.00  0.00     0.277 A 
HETATM   22  C   UNL     1      37.795 -11.999  -2.428  1.00  0.00     0.027 A 
HETATM   23  O   UNL     1      37.860 -13.628   0.729  1.00  0.00    -0.266 OA
HETATM   24  N   UNL     1      36.758 -11.875  -0.377  1.00  0.00    -0.321 N 
HETATM   25  C   UNL     1      36.843 -11.333  -1.658  1.00  0.00     0.048 A 
HETATM   26  H   UNL     1      36.142 -11.560   0.358  1.00  0.00     0.169 HD
HETATM   27  C   UNL     1      36.119 -10.278  -2.171  1.00  0.00     0.030 A 
HETATM   28  C   UNL     1      36.380  -9.905  -3.496  1.00  0.00     0.002 A 
HETATM   29  C   UNL     1      37.347 -10.583  -4.269  1.00  0.00     0.001 A 
HETATM   30  C   UNL     1      38.071 -11.651  -3.734  1.00  0.00     0.016 A 
ENDBRANCH   2  19
TORSDOF 4
ENDMDL
MODEL 9
REMARK VINA RESULT:      -8.1      6.683      9.910
REMARK  4 active torsions:
REMARK  status: ('A' for Active; 'I' for Inactive)
REMARK    1  A    between atoms: C_2  and  C_3 
REMARK    2  A    between atoms: C_6  and  C_7 
REMARK    3  A    between atoms: C_11  and  C_12 
REMARK       I    between atoms: C_12  and  N_13 
REMARK    4  A    between atoms: N_13  and  N_14 
ROOT
HETATM    1  C   UNL     1      41.122 -14.805  -1.050  1.00  0.00     0.289 C 
HETATM    2  N   UNL     1      42.244 -14.063  -1.381  1.00  0.00    -0.241 N 
HETATM    3  O   UNL     1      40.073 -14.790  -1.689  1.00  0.00    -0.264 OA
HETATM    4  H   UNL     1      43.079 -14.096  -0.798  1.00  0.00     0.192 HD
ENDROOT
BRANCH   1   5
HETATM    5  C   UNL     1      41.258 -15.617   0.133  1.00  0.00     0.121 A 
HETATM    6  N   UNL     1      40.833 -16.915   0.148  1.00  0.00    -0.272 N 
HETATM    7  N   UNL     1      41.010 -17.541   1.319  1.00  0.00    -0.174 NA
HETATM    8  H   UNL     1      40.405 -17.420  -0.623  1.00  0.00     0.189 HD
HETATM    9  C   UNL     1      41.600 -16.628   2.107  1.00  0.00     0.089 A 
HETATM   10  C   UNL     1      41.767 -15.402   1.399  1.00  0.00     0.071 A 
BRANCH   9  11
HETATM   11  C   UNL     1      41.976 -16.941   3.491  1.00  0.00    -0.006 A 
HETATM   12  C   UNL     1      41.641 -16.084   4.549  1.00  0.00     0.014 A 
HETATM   13  C   UNL     1      42.013 -16.393   5.864  1.00  0.00     0.008 A 
HETATM   14  C   UNL     1      42.729 -17.562   6.145  1.00  0.00    -0.059 A 
HETATM   15  C   UNL     1      43.059 -18.423   5.094  1.00  0.00     0.008 A 
HETATM   16  C   UNL     1      42.690 -18.112   3.782  1.00  0.00     0.014 A 
BRANCH  14  17
HETATM   17  C   UNL     1      43.119 -17.901   7.561  1.00  0.00     0.034 C 
HETATM   18  C   UNL     1      43.847 -19.234   7.645  1.00  0.00     0.010 C 
ENDBRANCH  14  17
ENDBRANCH   9  11
ENDBRANCH   1   5
BRANCH   2  19
HETATM   19  N   UNL     1      42.235 -13.248  -2.479  1.00  0.00    -0.165 NA
HETATM   20  C   UNL     1      42.385 -11.980  -2.263  1.00  0.00     0.157 A 
HETATM   21  C   UNL     1      42.571 -11.257  -0.925  1.00  0.00     0.277 A 
HETATM   22  C   UNL     1      42.404 -10.941  -3.283  1.00  0.00     0.027 A 
HETATM   23  O   UNL     1      42.612 -11.807   0.156  1.00  0.00    -0.266 OA
HETATM   24  N   UNL     1      42.672  -9.920  -1.238  1.00  0.00    -0.321 N 
HETATM   25  C   UNL     1      42.576  -9.730  -2.615  1.00  0.00     0.048 A 
HETATM   26  H   UNL     1      42.800  -9.193  -0.549  1.00  0.00     0.169 HD
HETATM   27  C   UNL     1      42.637  -8.536  -3.303  1.00  0.00     0.030 A 
HETATM   28  C   UNL     1      42.517  -8.592  -4.698  1.00  0.00     0.002 A 
HETATM   29  C   UNL     1      42.345  -9.823  -5.367  1.00  0.00     0.001 A 
HETATM   30  C   UNL     1      42.285 -11.023  -4.656  1.00  0.00     0.016 A 
ENDBRANCH   2  19
TORSDOF 4
ENDMDL
MODEL 10
REMARK VINA RESULT:      -8.1      6.765      8.627
REMARK  4 active torsions:
REMARK  status: ('A' for Active; 'I' for Inactive)
REMARK    1  A    between atoms: C_2  and  C_3 
REMARK    2  A    between atoms: C_6  and  C_7 
REMARK    3  A    between atoms: C_11  and  C_12 
REMARK       I    between atoms: C_12  and  N_13 
REMARK    4  A    between atoms: N_13  and  N_14 
ROOT
HETATM    1  C   UNL     1      41.526 -16.753   0.502  1.00  0.00     0.289 C 
HETATM    2  N   UNL     1      42.858 -17.084   0.690  1.00  0.00    -0.241 N 
HETATM    3  O   UNL     1      40.596 -17.547   0.619  1.00  0.00    -0.264 OA
HETATM    4  H   UNL     1      43.591 -16.389   0.554  1.00  0.00     0.192 HD
ENDROOT
BRANCH   1   5
HETATM    5  C   UNL     1      41.288 -15.379   0.141  1.00  0.00     0.121 A 
HETATM    6  N   UNL     1      40.063 -14.805   0.328  1.00  0.00    -0.272 N 
HETATM    7  N   UNL     1      39.985 -13.528  -0.068  1.00  0.00    -0.174 NA
HETATM    8  H   UNL     1      39.239 -15.252   0.720  1.00  0.00     0.189 HD
HETATM    9  C   UNL     1      41.217 -13.233  -0.515  1.00  0.00     0.089 A 
HETATM   10  C   UNL     1      42.064 -14.374  -0.406  1.00  0.00     0.071 A 
BRANCH   9  11
HETATM   11  C   UNL     1      41.546 -11.899  -1.029  1.00  0.00    -0.006 A 
HETATM   12  C   UNL     1      40.543 -10.992  -1.398  1.00  0.00     0.014 A 
HETATM   13  C   UNL     1      40.873  -9.724  -1.892  1.00  0.00     0.008 A 
HETATM   14  C   UNL     1      42.211  -9.340  -2.032  1.00  0.00    -0.059 A 
HETATM   15  C   UNL     1      43.215 -10.238  -1.658  1.00  0.00     0.008 A 
HETATM   16  C   UNL     1      42.884 -11.505  -1.167  1.00  0.00     0.014 A 
BRANCH  14  17
HETATM   17  C   UNL     1      42.567  -7.971  -2.553  1.00  0.00     0.034 C 
HETATM   18  C   UNL     1      43.736  -7.362  -1.796  1.00  0.00     0.010 C 
ENDBRANCH  14  17
ENDBRANCH   9  11
ENDBRANCH   1   5
BRANCH   2  19
HETATM   19  N   UNL     1      43.212 -18.361   1.029  1.00  0.00    -0.165 NA
HETATM   20  C   UNL     1      43.580 -18.557   2.255  1.00  0.00     0.157 A 
HETATM   21  C   UNL     1      43.680 -17.537   3.394  1.00  0.00     0.277 A 
HETATM   22  C   UNL     1      43.998 -19.831   2.823  1.00  0.00     0.027 A 
HETATM   23  O   UNL     1      43.403 -16.360   3.291  1.00  0.00    -0.266 OA
HETATM   24  N   UNL     1      44.130 -18.245   4.486  1.00  0.00    -0.321 N 
HETATM   25  C   UNL     1      44.317 -19.586   4.158  1.00  0.00     0.048 A 
HETATM   26  H   UNL     1      44.294 -17.830   5.392  1.00  0.00     0.169 HD
HETATM   27  C   UNL     1      44.753 -20.599   4.986  1.00  0.00     0.030 A 
HETATM   28  C   UNL     1      44.862 -21.881   4.431  1.00  0.00     0.002 A 
HETATM   29  C   UNL     1      44.536 -22.120   3.079  1.00  0.00     0.001 A 
HETATM   30  C   UNL     1      44.097 -21.084   2.252  1.00  0.00     0.016 A 
ENDBRANCH   2  19
TORSDOF 4
ENDMDL
