MODEL 1
REMARK VINA RESULT:      -8.5      0.000      0.000
REMARK  2 active torsions:
REMARK  status: ('A' for Active; 'I' for Inactive)
REMARK    1  A    between atoms: N_3  and  C_4 
REMARK    2  A    between atoms: C_12  and  C_13 
REMARK       I    between atoms: C_13  and  N_14 
ROOT
HETATM    1  C   UNL     1      42.622 -15.614   4.632  1.00  0.00     0.262 C 
HETATM    2  N   UNL     1      43.457 -16.726   4.854  1.00  0.00    -0.311 N 
HETATM    3  C   UNL     1      43.752 -17.757   3.922  1.00  0.00     0.064 A 
HETATM    4  C   UNL     1      43.917 -19.106   4.299  1.00  0.00     0.061 A 
HETATM    5  C   UNL     1      44.213 -20.054   3.300  1.00  0.00     0.032 A 
HETATM    6  C   UNL     1      44.371 -19.687   1.964  1.00  0.00     0.002 A 
HETATM    7  C   UNL     1      44.244 -18.356   1.599  1.00  0.00     0.002 A 
HETATM    8  C   UNL     1      43.944 -17.401   2.570  1.00  0.00     0.032 A 
HETATM    9  N   UNL     1      43.788 -19.657   5.592  1.00  0.00    -0.325 N 
HETATM   10  C   UNL     1      43.559 -19.151   6.832  1.00  0.00     0.227 C 
HETATM   11  O   UNL     1      43.530 -19.966   7.760  1.00  0.00    -0.273 OA
HETATM   12  C   UNL     1      43.276 -17.686   7.071  1.00  0.00     0.092 C 
HETATM   13  C   UNL     1      43.559 -17.324   8.533  1.00  0.00     0.021 C 
HETATM   14  C   UNL     1      44.117 -16.827   6.151  1.00  0.00     0.146 C 
HETATM   15  O   UNL     1      42.687 -14.619   5.356  1.00  0.00    -0.267 OA
HETATM   16  H   UNL     1      43.923 -20.660   5.661  1.00  0.00     0.169 HD
ENDROOT
BRANCH   1  17
HETATM   17  C   UNL     1      41.587 -15.678   3.598  1.00  0.00     0.075 C 
HETATM   18  C   UNL     1      41.367 -14.731   2.597  1.00  0.00     0.050 C 
HETATM   19  C   UNL     1      42.199 -13.543   2.261  1.00  0.00     0.071 C 
HETATM   20  N   UNL     1      40.229 -15.136   1.905  1.00  0.00    -0.238 N 
HETATM   21  N   UNL     1      39.817 -16.361   2.329  1.00  0.00    -0.179 NA
HETATM   22  C   UNL     1      40.567 -16.625   3.394  1.00  0.00     0.158 C 
BRANCH  20  23
HETATM   23  C   UNL     1      39.477 -14.483   0.884  1.00  0.00     0.061 A 
HETATM   24  C   UNL     1      38.223 -13.948   1.206  1.00  0.00     0.051 A 
HETATM   25  C   UNL     1      37.497 -13.316   0.212  1.00  0.00     0.118 A 
HETATM   26  N   UNL     1      37.935 -13.167  -1.055  1.00  0.00    -0.273 NA
HETATM   27  C   UNL     1      39.158 -13.661  -1.335  1.00  0.00     0.118 A 
HETATM   28  C   UNL     1      39.960 -14.319  -0.414  1.00  0.00     0.051 A 
ENDBRANCH  20  23
ENDBRANCH   1  17
TORSDOF 2
ENDMDL
MODEL 2
REMARK VINA RESULT:      -8.2      2.793      7.706
REMARK  2 active torsions:
REMARK  status: ('A' for Active; 'I' for Inactive)
REMARK    1  A    between atoms: N_3  and  C_4 
REMARK    2  A    between atoms: C_12  and  C_13 
REMARK       I    between atoms: C_13  and  N_14 
ROOT
HETATM    1  C   UNL     1      41.377 -15.690   0.701  1.00  0.00     0.262 C 
HETATM    2  N   UNL     1      40.951 -14.372   0.955  1.00  0.00    -0.311 N 
HETATM    3  C   UNL     1      41.182 -13.626   2.142  1.00  0.00     0.064 A 
HETATM    4  C   UNL     1      40.235 -12.729   2.679  1.00  0.00     0.061 A 
HETATM    5  C   UNL     1      40.560 -12.032   3.859  1.00  0.00     0.032 A 
HETATM    6  C   UNL     1      41.795 -12.188   4.486  1.00  0.00     0.002 A 
HETATM    7  C   UNL     1      42.739 -13.042   3.938  1.00  0.00     0.002 A 
HETATM    8  C   UNL     1      42.437 -13.748   2.774  1.00  0.00     0.032 A 
HETATM    9  N   UNL     1      38.941 -12.453   2.188  1.00  0.00    -0.325 N 
HETATM   10  C   UNL     1      38.226 -12.838   1.099  1.00  0.00     0.227 C 
HETATM   11  O   UNL     1      37.093 -12.357   0.989  1.00  0.00    -0.273 OA
HETATM   12  C   UNL     1      38.741 -13.855   0.107  1.00  0.00     0.092 C 
HETATM   13  C   UNL     1      37.998 -13.719  -1.226  1.00  0.00     0.021 C 
HETATM   14  C   UNL     1      40.229 -13.680  -0.107  1.00  0.00     0.146 C 
HETATM   15  O   UNL     1      41.427 -16.129  -0.449  1.00  0.00    -0.267 OA
HETATM   16  H   UNL     1      38.394 -11.789   2.728  1.00  0.00     0.169 HD
ENDROOT
BRANCH   1  17
HETATM   17  C   UNL     1      41.662 -16.590   1.821  1.00  0.00     0.075 C 
HETATM   18  C   UNL     1      42.843 -17.306   2.019  1.00  0.00     0.050 C 
HETATM   19  C   UNL     1      44.109 -17.216   1.242  1.00  0.00     0.071 C 
HETATM   20  N   UNL     1      42.644 -18.105   3.142  1.00  0.00    -0.238 N 
HETATM   21  N   UNL     1      41.457 -17.812   3.738  1.00  0.00    -0.179 NA
HETATM   22  C   UNL     1      40.845 -16.988   2.894  1.00  0.00     0.158 C 
BRANCH  20  23
HETATM   23  C   UNL     1      43.456 -19.128   3.714  1.00  0.00     0.061 A 
HETATM   24  C   UNL     1      43.696 -19.107   5.094  1.00  0.00     0.051 A 
HETATM   25  C   UNL     1      44.485 -20.102   5.645  1.00  0.00     0.118 A 
HETATM   26  N   UNL     1      45.027 -21.108   4.930  1.00  0.00    -0.273 NA
HETATM   27  C   UNL     1      44.756 -21.128   3.609  1.00  0.00     0.118 A 
HETATM   28  C   UNL     1      43.987 -20.174   2.959  1.00  0.00     0.051 A 
ENDBRANCH  20  23
ENDBRANCH   1  17
TORSDOF 2
ENDMDL
MODEL 3
REMARK VINA RESULT:      -8.2      3.131      7.036
REMARK  2 active torsions:
REMARK  status: ('A' for Active; 'I' for Inactive)
REMARK    1  A    between atoms: N_3  and  C_4 
REMARK    2  A    between atoms: C_12  and  C_13 
REMARK       I    between atoms: C_13  and  N_14 
ROOT
HETATM    1  C   UNL     1      41.629 -15.034   2.197  1.00  0.00     0.262 C 
HETATM    2  N   UNL     1      41.594 -13.871   2.990  1.00  0.00    -0.311 N 
HETATM    3  C   UNL     1      42.253 -13.680   4.234  1.00  0.00     0.064 A 
HETATM    4  C   UNL     1      41.690 -12.939   5.293  1.00  0.00     0.061 A 
HETATM    5  C   UNL     1      42.426 -12.802   6.486  1.00  0.00     0.032 A 
HETATM    6  C   UNL     1      43.697 -13.356   6.632  1.00  0.00     0.002 A 
HETATM    7  C   UNL     1      44.265 -14.054   5.578  1.00  0.00     0.002 A 
HETATM    8  C   UNL     1      43.553 -14.208   4.389  1.00  0.00     0.032 A 
HETATM    9  N   UNL     1      40.422 -12.320   5.327  1.00  0.00    -0.325 N 
HETATM   10  C   UNL     1      39.412 -12.153   4.433  1.00  0.00     0.227 C 
HETATM   11  O   UNL     1      38.430 -11.516   4.829  1.00  0.00    -0.273 OA
HETATM   12  C   UNL     1      39.437 -12.769   3.054  1.00  0.00     0.092 C 
HETATM   13  C   UNL     1      38.470 -12.030   2.125  1.00  0.00     0.021 C 
HETATM   14  C   UNL     1      40.839 -12.732   2.483  1.00  0.00     0.146 C 
HETATM   15  O   UNL     1      41.315 -14.999   1.005  1.00  0.00    -0.267 OA
HETATM   16  H   UNL     1      40.183 -11.847   6.192  1.00  0.00     0.169 HD
ENDROOT
BRANCH   1  17
HETATM   17  C   UNL     1      41.935 -16.327   2.816  1.00  0.00     0.075 C 
HETATM   18  C   UNL     1      42.936 -17.213   2.414  1.00  0.00     0.050 C 
HETATM   19  C   UNL     1      43.992 -16.997   1.388  1.00  0.00     0.071 C 
HETATM   20  N   UNL     1      42.806 -18.350   3.207  1.00  0.00    -0.238 N 
HETATM   21  N   UNL     1      41.875 -18.157   4.178  1.00  0.00    -0.179 NA
HETATM   22  C   UNL     1      41.299 -16.998   3.875  1.00  0.00     0.158 C 
BRANCH  20  23
HETATM   23  C   UNL     1      43.468 -19.612   3.142  1.00  0.00     0.061 A 
HETATM   24  C   UNL     1      43.294 -20.407   2.002  1.00  0.00     0.051 A 
HETATM   25  C   UNL     1      43.937 -21.631   1.944  1.00  0.00     0.118 A 
HETATM   26  N   UNL     1      44.742 -22.100   2.918  1.00  0.00    -0.273 NA
HETATM   27  C   UNL     1      44.922 -21.304   3.992  1.00  0.00     0.118 A 
HETATM   28  C   UNL     1      44.316 -20.067   4.151  1.00  0.00     0.051 A 
ENDBRANCH  20  23
ENDBRANCH   1  17
TORSDOF 2
ENDMDL
MODEL 4
REMARK VINA RESULT:      -8.0      2.580      7.116
REMARK  2 active torsions:
REMARK  status: ('A' for Active; 'I' for Inactive)
REMARK    1  A    between atoms: N_3  and  C_4 
REMARK    2  A    between atoms: C_12  and  C_13 
REMARK       I    between atoms: C_13  and  N_14 
ROOT
HETATM    1  C   UNL     1      41.597 -14.283   4.987  1.00  0.00     0.262 C 
HETATM    2  N   UNL     1      40.681 -13.395   4.392  1.00  0.00    -0.311 N 
HETATM    3  C   UNL     1      39.994 -13.591   3.164  1.00  0.00     0.064 A 
HETATM    4  C   UNL     1      39.718 -12.541   2.264  1.00  0.00     0.061 A 
HETATM    5  C   UNL     1      39.025 -12.837   1.074  1.00  0.00     0.032 A 
HETATM    6  C   UNL     1      38.587 -14.128   0.783  1.00  0.00     0.002 A 
HETATM    7  C   UNL     1      38.827 -15.154   1.684  1.00  0.00     0.002 A 
HETATM    8  C   UNL     1      39.517 -14.885   2.865  1.00  0.00     0.032 A 
HETATM    9  N   UNL     1      40.089 -11.185   2.389  1.00  0.00    -0.325 N 
HETATM   10  C   UNL     1      40.710 -10.445   3.345  1.00  0.00     0.227 C 
HETATM   11  O   UNL     1      40.847  -9.241   3.102  1.00  0.00    -0.273 OA
HETATM   12  C   UNL     1      41.275 -11.056   4.606  1.00  0.00     0.092 C 
HETATM   13  C   UNL     1      41.444  -9.982   5.686  1.00  0.00     0.021 C 
HETATM   14  C   UNL     1      40.374 -12.163   5.109  1.00  0.00     0.146 C 
HETATM   15  O   UNL     1      41.883 -14.193   6.182  1.00  0.00    -0.267 OA
HETATM   16  H   UNL     1      39.817 -10.579   1.622  1.00  0.00     0.169 HD
ENDROOT
BRANCH   1  17
HETATM   17  C   UNL     1      42.305 -15.261   4.157  1.00  0.00     0.075 C 
HETATM   18  C   UNL     1      42.209 -16.650   4.261  1.00  0.00     0.050 C 
HETATM   19  C   UNL     1      41.282 -17.441   5.115  1.00  0.00     0.071 C 
HETATM   20  N   UNL     1      43.121 -17.184   3.355  1.00  0.00    -0.238 N 
HETATM   21  N   UNL     1      43.670 -16.204   2.589  1.00  0.00    -0.179 NA
HETATM   22  C   UNL     1      43.255 -15.067   3.138  1.00  0.00     0.158 C 
BRANCH  20  23
HETATM   23  C   UNL     1      43.539 -18.530   3.137  1.00  0.00     0.061 A 
HETATM   24  C   UNL     1      44.320 -19.161   4.113  1.00  0.00     0.051 A 
HETATM   25  C   UNL     1      44.723 -20.467   3.897  1.00  0.00     0.118 A 
HETATM   26  N   UNL     1      44.392 -21.181   2.803  1.00  0.00    -0.273 NA
HETATM   27  C   UNL     1      43.612 -20.565   1.891  1.00  0.00     0.118 A 
HETATM   28  C   UNL     1      43.164 -19.258   2.008  1.00  0.00     0.051 A 
ENDBRANCH  20  23
ENDBRANCH   1  17
TORSDOF 2
ENDMDL
MODEL 5
REMARK VINA RESULT:      -7.9      2.560      4.175
REMARK  2 active torsions:
REMARK  status: ('A' for Active; 'I' for Inactive)
REMARK    1  A    between atoms: N_3  and  C_4 
REMARK    2  A    between atoms: C_12  and  C_13 
REMARK       I    between atoms: C_13  and  N_14 
ROOT
HETATM    1  C   UNL     1      42.161 -17.145   2.146  1.00  0.00     0.262 C 
HETATM    2  N   UNL     1      42.381 -18.065   3.190  1.00  0.00    -0.311 N 
HETATM    3  C   UNL     1      42.335 -17.787   4.582  1.00  0.00     0.064 A 
HETATM    4  C   UNL     1      43.202 -18.394   5.514  1.00  0.00     0.061 A 
HETATM    5  C   UNL     1      43.073 -18.056   6.875  1.00  0.00     0.032 A 
HETATM    6  C   UNL     1      42.099 -17.163   7.319  1.00  0.00     0.002 A 
HETATM    7  C   UNL     1      41.224 -16.593   6.408  1.00  0.00     0.002 A 
HETATM    8  C   UNL     1      41.337 -16.908   5.054  1.00  0.00     0.032 A 
HETATM    9  N   UNL     1      44.244 -19.307   5.246  1.00  0.00    -0.325 N 
HETATM   10  C   UNL     1      44.706 -19.937   4.134  1.00  0.00     0.227 C 
HETATM   11  O   UNL     1      45.658 -20.708   4.296  1.00  0.00    -0.273 OA
HETATM   12  C   UNL     1      44.150 -19.663   2.756  1.00  0.00     0.092 C 
HETATM   13  C   UNL     1      44.476 -20.825   1.812  1.00  0.00     0.021 C 
HETATM   14  C   UNL     1      42.653 -19.450   2.821  1.00  0.00     0.146 C 
HETATM   15  O   UNL     1      41.894 -17.530   1.007  1.00  0.00    -0.267 OA
HETATM   16  H   UNL     1      44.777 -19.620   6.051  1.00  0.00     0.169 HD
ENDROOT
BRANCH   1  17
HETATM   17  C   UNL     1      42.357 -15.713   2.388  1.00  0.00     0.075 C 
HETATM   18  C   UNL     1      41.380 -14.722   2.288  1.00  0.00     0.050 C 
HETATM   19  C   UNL     1      39.919 -14.897   2.065  1.00  0.00     0.071 C 
HETATM   20  N   UNL     1      42.021 -13.504   2.498  1.00  0.00    -0.238 N 
HETATM   21  N   UNL     1      43.315 -13.698   2.870  1.00  0.00    -0.179 NA
HETATM   22  C   UNL     1      43.527 -14.999   2.705  1.00  0.00     0.158 C 
BRANCH  20  23
HETATM   23  C   UNL     1      41.542 -12.166   2.379  1.00  0.00     0.061 A 
HETATM   24  C   UNL     1      41.551 -11.556   1.118  1.00  0.00     0.051 A 
HETATM   25  C   UNL     1      41.086 -10.257   1.006  1.00  0.00     0.118 A 
HETATM   26  N   UNL     1      40.604  -9.544   2.044  1.00  0.00    -0.273 NA
HETATM   27  C   UNL     1      40.574 -10.162   3.243  1.00  0.00     0.118 A 
HETATM   28  C   UNL     1      41.025 -11.455   3.461  1.00  0.00     0.051 A 
ENDBRANCH  20  23
ENDBRANCH   1  17
TORSDOF 2
ENDMDL
MODEL 6
REMARK VINA RESULT:      -7.7      2.630      4.668
REMARK  2 active torsions:
REMARK  status: ('A' for Active; 'I' for Inactive)
REMARK    1  A    between atoms: N_3  and  C_4 
REMARK    2  A    between atoms: C_12  and  C_13 
REMARK       I    between atoms: C_13  and  N_14 
ROOT
HETATM    1  C   UNL     1      40.970 -16.416   4.013  1.00  0.00     0.262 C 
HETATM    2  N   UNL     1      41.328 -15.588   5.094  1.00  0.00    -0.311 N 
HETATM    3  C   UNL     1      40.992 -14.216   5.251  1.00  0.00     0.064 A 
HETATM    4  C   UNL     1      41.868 -13.275   5.832  1.00  0.00     0.061 A 
HETATM    5  C   UNL     1      41.440 -11.938   5.948  1.00  0.00     0.032 A 
HETATM    6  C   UNL     1      40.173 -11.535   5.528  1.00  0.00     0.002 A 
HETATM    7  C   UNL     1      39.300 -12.466   4.989  1.00  0.00     0.002 A 
HETATM    8  C   UNL     1      39.704 -13.795   4.859  1.00  0.00     0.032 A 
HETATM    9  N   UNL     1      43.179 -13.500   6.302  1.00  0.00    -0.325 N 
HETATM   10  C   UNL     1      43.978 -14.592   6.431  1.00  0.00     0.227 C 
HETATM   11  O   UNL     1      45.096 -14.399   6.920  1.00  0.00    -0.273 OA
HETATM   12  C   UNL     1      43.567 -15.961   5.941  1.00  0.00     0.092 C 
HETATM   13  C   UNL     1      44.390 -17.045   6.645  1.00  0.00     0.021 C 
HETATM   14  C   UNL     1      42.090 -16.190   6.182  1.00  0.00     0.146 C 
HETATM   15  O   UNL     1      41.012 -17.644   4.114  1.00  0.00    -0.267 OA
HETATM   16  H   UNL     1      43.663 -12.688   6.670  1.00  0.00     0.169 HD
ENDROOT
BRANCH   1  17
HETATM   17  C   UNL     1      40.647 -15.818   2.715  1.00  0.00     0.075 C 
HETATM   18  C   UNL     1      41.511 -15.705   1.626  1.00  0.00     0.050 C 
HETATM   19  C   UNL     1      42.877 -16.278   1.476  1.00  0.00     0.071 C 
HETATM   20  N   UNL     1      40.830 -14.987   0.646  1.00  0.00    -0.238 N 
HETATM   21  N   UNL     1      39.538 -14.778   1.013  1.00  0.00    -0.179 NA
HETATM   22  C   UNL     1      39.470 -15.186   2.276  1.00  0.00     0.158 C 
BRANCH  20  23
HETATM   23  C   UNL     1      41.273 -14.466  -0.606  1.00  0.00     0.061 A 
HETATM   24  C   UNL     1      40.933 -15.151  -1.780  1.00  0.00     0.051 A 
HETATM   25  C   UNL     1      41.364 -14.643  -2.992  1.00  0.00     0.118 A 
HETATM   26  N   UNL     1      42.084 -13.509  -3.114  1.00  0.00    -0.273 NA
HETATM   27  C   UNL     1      42.372 -12.848  -1.974  1.00  0.00     0.118 A 
HETATM   28  C   UNL     1      41.995 -13.278  -0.711  1.00  0.00     0.051 A 
ENDBRANCH  20  23
ENDBRANCH   1  17
TORSDOF 2
ENDMDL
MODEL 7
REMARK VINA RESULT:      -7.6      3.065      7.524
REMARK  2 active torsions:
REMARK  status: ('A' for Active; 'I' for Inactive)
REMARK    1  A    between atoms: N_3  and  C_4 
REMARK    2  A    between atoms: C_12  and  C_13 
REMARK       I    between atoms: C_13  and  N_14 
ROOT
HETATM    1  C   UNL     1      39.868 -12.812   1.257  1.00  0.00     0.262 C 
HETATM    2  N   UNL     1      40.407 -12.355   0.039  1.00  0.00    -0.311 N 
HETATM    3  C   UNL     1      40.778 -13.159  -1.072  1.00  0.00     0.064 A 
HETATM    4  C   UNL     1      41.896 -12.875  -1.884  1.00  0.00     0.061 A 
HETATM    5  C   UNL     1      42.179 -13.730  -2.966  1.00  0.00     0.032 A 
HETATM    6  C   UNL     1      41.370 -14.826  -3.265  1.00  0.00     0.002 A 
HETATM    7  C   UNL     1      40.251 -15.085  -2.489  1.00  0.00     0.002 A 
HETATM    8  C   UNL     1      39.956 -14.255  -1.408  1.00  0.00     0.032 A 
HETATM    9  N   UNL     1      42.824 -11.823  -1.728  1.00  0.00    -0.325 N 
HETATM   10  C   UNL     1      42.939 -10.763  -0.885  1.00  0.00     0.227 C 
HETATM   11  O   UNL     1      43.908 -10.018  -1.071  1.00  0.00    -0.273 OA
HETATM   12  C   UNL     1      41.989 -10.534   0.267  1.00  0.00     0.092 C 
HETATM   13  C   UNL     1      42.034  -9.067   0.708  1.00  0.00     0.021 C 
HETATM   14  C   UNL     1      40.578 -10.916  -0.126  1.00  0.00     0.146 C 
HETATM   15  O   UNL     1      39.276 -12.043   2.016  1.00  0.00    -0.267 OA
HETATM   16  H   UNL     1      43.580 -11.795  -2.404  1.00  0.00     0.169 HD
ENDROOT
BRANCH   1  17
HETATM   17  C   UNL     1      40.104 -14.194   1.683  1.00  0.00     0.075 C 
HETATM   18  C   UNL     1      41.328 -14.733   2.080  1.00  0.00     0.050 C 
HETATM   19  C   UNL     1      42.615 -14.018   2.300  1.00  0.00     0.071 C 
HETATM   20  N   UNL     1      41.116 -16.091   2.298  1.00  0.00    -0.238 N 
HETATM   21  N   UNL     1      39.794 -16.394   2.202  1.00  0.00    -0.179 NA
HETATM   22  C   UNL     1      39.221 -15.287   1.742  1.00  0.00     0.158 C 
BRANCH  20  23
HETATM   23  C   UNL     1      42.035 -17.144   2.584  1.00  0.00     0.061 A 
HETATM   24  C   UNL     1      42.169 -17.583   3.908  1.00  0.00     0.051 A 
HETATM   25  C   UNL     1      43.062 -18.604   4.180  1.00  0.00     0.118 A 
HETATM   26  N   UNL     1      43.804 -19.220   3.238  1.00  0.00    -0.273 NA
HETATM   27  C   UNL     1      43.635 -18.805   1.966  1.00  0.00     0.118 A 
HETATM   28  C   UNL     1      42.775 -17.784   1.590  1.00  0.00     0.051 A 
ENDBRANCH  20  23
ENDBRANCH   1  17
TORSDOF 2
ENDMDL
MODEL 8
REMARK VINA RESULT:      -7.5      3.534      7.198
REMARK  2 active torsions:
REMARK  status: ('A' for Active; 'I' for Inactive)
REMARK    1  A    between atoms: N_3  and  C_4 
REMARK    2  A    between atoms: C_12  and  C_13 
REMARK       I    between atoms: C_13  and  N_14 
ROOT
HETATM    1  C   UNL     1      39.464 -12.821   2.257  1.00  0.00     0.262 C 
HETATM    2  N   UNL     1      39.817 -13.554   1.108  1.00  0.00    -0.311 N 
HETATM    3  C   UNL     1      40.297 -14.891   1.076  1.00  0.00     0.064 A 
HETATM    4  C   UNL     1      41.274 -15.331   0.159  1.00  0.00     0.061 A 
HETATM    5  C   UNL     1      41.682 -16.679   0.204  1.00  0.00     0.032 A 
HETATM    6  C   UNL     1      41.127 -17.583   1.108  1.00  0.00     0.002 A 
HETATM    7  C   UNL     1      40.142 -17.158   1.985  1.00  0.00     0.002 A 
HETATM    8  C   UNL     1      39.727 -15.827   1.964  1.00  0.00     0.032 A 
HETATM    9  N   UNL     1      41.946 -14.561  -0.814  1.00  0.00    -0.325 N 
HETATM   10  C   UNL     1      41.866 -13.274  -1.242  1.00  0.00     0.227 C 
HETATM   11  O   UNL     1      42.628 -12.953  -2.160  1.00  0.00    -0.273 OA
HETATM   12  C   UNL     1      40.954 -12.258  -0.594  1.00  0.00     0.092 C 
HETATM   13  C   UNL     1      40.691 -11.094  -1.554  1.00  0.00     0.021 C 
HETATM   14  C   UNL     1      39.647 -12.903  -0.186  1.00  0.00     0.146 C 
HETATM   15  O   UNL     1      38.757 -11.815   2.175  1.00  0.00    -0.267 OA
HETATM   16  H   UNL     1      42.638 -15.055  -1.370  1.00  0.00     0.169 HD
ENDROOT
BRANCH   1  17
HETATM   17  C   UNL     1      40.031 -13.191   3.557  1.00  0.00     0.075 C 
HETATM   18  C   UNL     1      41.385 -13.372   3.840  1.00  0.00     0.050 C 
HETATM   19  C   UNL     1      42.550 -13.098   2.956  1.00  0.00     0.071 C 
HETATM   20  N   UNL     1      41.463 -13.814   5.158  1.00  0.00    -0.238 N 
HETATM   21  N   UNL     1      40.241 -13.774   5.753  1.00  0.00    -0.179 NA
HETATM   22  C   UNL     1      39.390 -13.499   4.770  1.00  0.00     0.158 C 
BRANCH  20  23
HETATM   23  C   UNL     1      42.574 -14.281   5.921  1.00  0.00     0.061 A 
HETATM   24  C   UNL     1      42.704 -15.656   6.152  1.00  0.00     0.051 A 
HETATM   25  C   UNL     1      43.784 -16.105   6.893  1.00  0.00     0.118 A 
HETATM   26  N   UNL     1      44.736 -15.292   7.395  1.00  0.00    -0.273 NA
HETATM   27  C   UNL     1      44.609 -13.975   7.132  1.00  0.00     0.118 A 
HETATM   28  C   UNL     1      43.560 -13.425   6.410  1.00  0.00     0.051 A 
ENDBRANCH  20  23
ENDBRANCH   1  17
TORSDOF 2
ENDMDL
MODEL 9
REMARK VINA RESULT:      -7.5      7.215      8.765
REMARK  2 active torsions:
REMARK  status: ('A' for Active; 'I' for Inactive)
REMARK    1  A    between atoms: N_3  and  C_4 
REMARK    2  A    between atoms: C_12  and  C_13 
REMARK       I    between atoms: C_13  and  N_14 
ROOT
HETATM    1  C   UNL     1      40.571  -9.098   9.577  1.00  0.00     0.262 C 
HETATM    2  N   UNL     1      41.551  -9.374  10.551  1.00  0.00    -0.311 N 
HETATM    3  C   UNL     1      42.524 -10.408  10.496  1.00  0.00     0.064 A 
HETATM    4  C   UNL     1      42.947 -11.122  11.636  1.00  0.00     0.061 A 
HETATM    5  C   UNL     1      43.922 -12.126  11.479  1.00  0.00     0.032 A 
HETATM    6  C   UNL     1      44.491 -12.409  10.239  1.00  0.00     0.002 A 
HETATM    7  C   UNL     1      44.101 -11.683   9.124  1.00  0.00     0.002 A 
HETATM    8  C   UNL     1      43.132 -10.688   9.254  1.00  0.00     0.032 A 
HETATM    9  N   UNL     1      42.480 -10.978  12.960  1.00  0.00    -0.325 N 
HETATM   10  C   UNL     1      41.606 -10.145  13.584  1.00  0.00     0.227 C 
HETATM   11  O   UNL     1      41.463 -10.312  14.800  1.00  0.00    -0.273 OA
HETATM   12  C   UNL     1      40.789  -9.117  12.836  1.00  0.00     0.092 C 
HETATM   13  C   UNL     1      40.305  -8.025  13.795  1.00  0.00     0.021 C 
HETATM   14  C   UNL     1      41.605  -8.503  11.719  1.00  0.00     0.146 C 
HETATM   15  O   UNL     1      40.001  -8.006   9.544  1.00  0.00    -0.267 OA
HETATM   16  H   UNL     1      42.893 -11.601  13.646  1.00  0.00     0.169 HD
ENDROOT
BRANCH   1  17
HETATM   17  C   UNL     1      40.142 -10.156   8.658  1.00  0.00     0.075 C 
HETATM   18  C   UNL     1      40.399 -10.207   7.288  1.00  0.00     0.050 C 
HETATM   19  C   UNL     1      41.269  -9.304   6.485  1.00  0.00     0.071 C 
HETATM   20  N   UNL     1      39.724 -11.320   6.795  1.00  0.00    -0.238 N 
HETATM   21  N   UNL     1      39.184 -12.046   7.810  1.00  0.00    -0.179 NA
HETATM   22  C   UNL     1      39.353 -11.296   8.894  1.00  0.00     0.158 C 
BRANCH  20  23
HETATM   23  C   UNL     1      39.526 -11.773   5.457  1.00  0.00     0.061 A 
HETATM   24  C   UNL     1      40.084 -12.998   5.069  1.00  0.00     0.051 A 
HETATM   25  C   UNL     1      39.890 -13.434   3.770  1.00  0.00     0.118 A 
HETATM   26  N   UNL     1      39.174 -12.753   2.853  1.00  0.00    -0.273 NA
HETATM   27  C   UNL     1      38.618 -11.593   3.256  1.00  0.00     0.118 A 
HETATM   28  C   UNL     1      38.761 -11.065   4.531  1.00  0.00     0.051 A 
ENDBRANCH  20  23
ENDBRANCH   1  17
TORSDOF 2
ENDMDL
MODEL 10
REMARK VINA RESULT:      -7.5      3.737      5.104
REMARK  2 active torsions:
REMARK  status: ('A' for Active; 'I' for Inactive)
REMARK    1  A    between atoms: N_3  and  C_4 
REMARK    2  A    between atoms: C_12  and  C_13 
REMARK       I    between atoms: C_13  and  N_14 
ROOT
HETATM    1  C   UNL     1      42.099 -12.608   0.831  1.00  0.00     0.262 C 
HETATM    2  N   UNL     1      41.907 -13.519   1.888  1.00  0.00    -0.311 N 
HETATM    3  C   UNL     1      41.634 -14.908   1.763  1.00  0.00     0.064 A 
HETATM    4  C   UNL     1      40.773 -15.600   2.639  1.00  0.00     0.061 A 
HETATM    5  C   UNL     1      40.571 -16.980   2.435  1.00  0.00     0.032 A 
HETATM    6  C   UNL     1      41.217 -17.672   1.413  1.00  0.00     0.002 A 
HETATM    7  C   UNL     1      42.091 -16.999   0.574  1.00  0.00     0.002 A 
HETATM    8  C   UNL     1      42.302 -15.632   0.753  1.00  0.00     0.032 A 
HETATM    9  N   UNL     1      40.033 -15.065   3.715  1.00  0.00    -0.325 N 
HETATM   10  C   UNL     1      39.937 -13.842   4.299  1.00  0.00     0.227 C 
HETATM   11  O   UNL     1      39.173 -13.755   5.266  1.00  0.00    -0.273 OA
HETATM   12  C   UNL     1      40.658 -12.627   3.762  1.00  0.00     0.092 C 
HETATM   13  C   UNL     1      40.784 -11.560   4.854  1.00  0.00     0.021 C 
HETATM   14  C   UNL     1      42.030 -13.010   3.249  1.00  0.00     0.146 C 
HETATM   15  O   UNL     1      42.651 -11.523   1.022  1.00  0.00    -0.267 OA
HETATM   16  H   UNL     1      39.447 -15.722   4.220  1.00  0.00     0.169 HD
ENDROOT
BRANCH   1  17
HETATM   17  C   UNL     1      41.542 -12.902  -0.492  1.00  0.00     0.075 C 
HETATM   18  C   UNL     1      40.193 -13.101  -0.788  1.00  0.00     0.050 C 
HETATM   19  C   UNL     1      39.021 -12.923   0.112  1.00  0.00     0.071 C 
HETATM   20  N   UNL     1      40.127 -13.452  -2.134  1.00  0.00    -0.238 N 
HETATM   21  N   UNL     1      41.346 -13.336  -2.724  1.00  0.00    -0.179 NA
HETATM   22  C   UNL     1      42.190 -13.106  -1.723  1.00  0.00     0.158 C 
BRANCH  20  23
HETATM   23  C   UNL     1      39.028 -13.896  -2.929  1.00  0.00     0.061 A 
HETATM   24  C   UNL     1      39.056 -15.194  -3.454  1.00  0.00     0.051 A 
HETATM   25  C   UNL     1      37.988 -15.620  -4.225  1.00  0.00     0.118 A 
HETATM   26  N   UNL     1      36.906 -14.861  -4.488  1.00  0.00    -0.273 NA
HETATM   27  C   UNL     1      36.885 -13.626  -3.945  1.00  0.00     0.118 A 
HETATM   28  C   UNL     1      37.907 -13.102  -3.168  1.00  0.00     0.051 A 
ENDBRANCH  20  23
ENDBRANCH   1  17
TORSDOF 2
ENDMDL
