MODEL 1
REMARK VINA RESULT:      -7.4      0.000      0.000
REMARK  5 active torsions:
REMARK  status: ('A' for Active; 'I' for Inactive)
REMARK    1  A    between atoms: C_8  and  C_9 
REMARK    2  A    between atoms: C_11  and  O_12 
REMARK    3  A    between atoms: C_14  and  O_15 
REMARK    4  A    between atoms: C_18  and  C_19 
REMARK    5  A    between atoms: C_22  and  O_23 
ROOT
HETATM    1  C   UNL     1      44.108 -17.730   1.006  1.00  0.00     0.070 C 
HETATM    2  C   UNL     1      44.007 -18.327   2.358  1.00  0.00     0.033 A 
HETATM    3  N   UNL     1      44.355 -19.630   2.595  1.00  0.00    -0.282 N 
HETATM    4  H   UNL     1      44.691 -20.319   1.930  1.00  0.00     0.189 HD
HETATM    5  N   UNL     1      44.239 -19.999   3.880  1.00  0.00    -0.179 NA
HETATM    6  C   UNL     1      43.828 -18.885   4.487  1.00  0.00     0.066 A 
HETATM    7  C   UNL     1      43.598 -17.822   3.580  1.00  0.00     0.001 A 
HETATM    8  C   UNL     1      43.112 -16.474   4.028  1.00  0.00     0.070 C 
HETATM    9  C   UNL     1      42.553 -16.526   5.477  1.00  0.00     0.102 C 
HETATM   10  C   UNL     1      43.478 -17.332   6.442  1.00  0.00     0.071 C 
HETATM   11  C   UNL     1      42.937 -17.346   7.879  1.00  0.00     0.047 C 
HETATM   12  C   UNL     1      43.621 -18.805   5.961  1.00  0.00     0.100 C 
ENDROOT
BRANCH   8  13
HETATM   13  C   UNL     1      42.063 -16.034   3.012  1.00  0.00    -0.046 A 
HETATM   14  C   UNL     1      42.309 -14.892   2.221  1.00  0.00     0.047 A 
HETATM   15  C   UNL     1      41.374 -14.465   1.277  1.00  0.00     0.101 A 
HETATM   16  C   UNL     1      40.164 -15.156   1.161  1.00  0.00     0.099 A 
HETATM   17  C   UNL     1      39.898 -16.281   1.925  1.00  0.00     0.040 A 
HETATM   18  C   UNL     1      40.850 -16.728   2.841  1.00  0.00     0.011 A 
BRANCH  15  19
HETATM   19  O   UNL     1      41.519 -13.391   0.436  1.00  0.00    -0.353 OA
HETATM   20  C   UNL     1      41.944 -12.180   1.054  1.00  0.00     0.210 C 
ENDBRANCH  15  19
BRANCH  16  21
HETATM   21  O   UNL     1      39.217 -14.740   0.266  1.00  0.00    -0.358 OA
HETATM   22  H   UNL     1      39.168 -13.772   0.381  1.00  0.00     0.218 HD
ENDBRANCH  16  21
ENDBRANCH   8  13
BRANCH   9  23
HETATM   23  C   UNL     1      42.372 -15.098   5.973  1.00  0.00     0.131 C 
HETATM   24  C   UNL     1      40.967 -14.561   6.067  1.00  0.00     0.091 C 
HETATM   25  O   UNL     1      43.343 -14.400   6.275  1.00  0.00    -0.298 OA
ENDBRANCH   9  23
BRANCH  10  26
HETATM   26  O   UNL     1      44.789 -16.748   6.489  1.00  0.00    -0.389 OA
HETATM   27  H   UNL     1      45.034 -16.481   5.577  1.00  0.00     0.210 HD
ENDBRANCH  10  26
TORSDOF 5
ENDMDL
MODEL 2
REMARK VINA RESULT:      -6.9      2.573      3.871
REMARK  5 active torsions:
REMARK  status: ('A' for Active; 'I' for Inactive)
REMARK    1  A    between atoms: C_8  and  C_9 
REMARK    2  A    between atoms: C_11  and  O_12 
REMARK    3  A    between atoms: C_14  and  O_15 
REMARK    4  A    between atoms: C_18  and  C_19 
REMARK    5  A    between atoms: C_22  and  O_23 
ROOT
HETATM    1  C   UNL     1      43.294 -15.589   2.081  1.00  0.00     0.070 C 
HETATM    2  C   UNL     1      43.445 -17.063   2.094  1.00  0.00     0.033 A 
HETATM    3  N   UNL     1      43.353 -17.805   0.946  1.00  0.00    -0.282 N 
HETATM    4  H   UNL     1      43.169 -17.478   0.004  1.00  0.00     0.189 HD
HETATM    5  N   UNL     1      43.553 -19.119   1.130  1.00  0.00    -0.179 NA
HETATM    6  C   UNL     1      43.808 -19.215   2.436  1.00  0.00     0.066 A 
HETATM    7  C   UNL     1      43.688 -17.973   3.108  1.00  0.00     0.001 A 
HETATM    8  C   UNL     1      43.909 -17.835   4.586  1.00  0.00     0.070 C 
HETATM    9  C   UNL     1      43.896 -19.219   5.293  1.00  0.00     0.102 C 
HETATM   10  C   UNL     1      44.731 -20.288   4.522  1.00  0.00     0.071 C 
HETATM   11  C   UNL     1      44.743 -21.642   5.247  1.00  0.00     0.047 C 
HETATM   12  C   UNL     1      44.156 -20.506   3.092  1.00  0.00     0.100 C 
ENDROOT
BRANCH   8  13
HETATM   13  C   UNL     1      42.816 -16.905   5.101  1.00  0.00    -0.046 A 
HETATM   14  C   UNL     1      43.114 -15.542   5.308  1.00  0.00     0.047 A 
HETATM   15  C   UNL     1      42.135 -14.661   5.772  1.00  0.00     0.101 A 
HETATM   16  C   UNL     1      40.866 -15.159   6.078  1.00  0.00     0.099 A 
HETATM   17  C   UNL     1      40.547 -16.494   5.884  1.00  0.00     0.040 A 
HETATM   18  C   UNL     1      41.515 -17.364   5.384  1.00  0.00     0.011 A 
BRANCH  15  19
HETATM   19  O   UNL     1      42.304 -13.316   5.981  1.00  0.00    -0.353 OA
HETATM   20  C   UNL     1      42.200 -12.496   4.820  1.00  0.00     0.210 C 
ENDBRANCH  15  19
BRANCH  16  21
HETATM   21  O   UNL     1      39.898 -14.325   6.564  1.00  0.00    -0.358 OA
HETATM   22  H   UNL     1      39.074 -14.611   6.125  1.00  0.00     0.218 HD
ENDBRANCH  16  21
ENDBRANCH   8  13
BRANCH   9  23
HETATM   23  C   UNL     1      44.427 -19.041   6.709  1.00  0.00     0.131 C 
HETATM   24  C   UNL     1      43.693 -19.736   7.825  1.00  0.00     0.091 C 
HETATM   25  O   UNL     1      45.416 -18.338   6.935  1.00  0.00    -0.298 OA
ENDBRANCH   9  23
BRANCH  10  26
HETATM   26  O   UNL     1      46.098 -19.865   4.394  1.00  0.00    -0.389 OA
HETATM   27  H   UNL     1      46.157 -19.265   3.619  1.00  0.00     0.210 HD
ENDBRANCH  10  26
TORSDOF 5
ENDMDL
MODEL 3
REMARK VINA RESULT:      -6.7      3.718      5.525
REMARK  5 active torsions:
REMARK  status: ('A' for Active; 'I' for Inactive)
REMARK    1  A    between atoms: C_8  and  C_9 
REMARK    2  A    between atoms: C_11  and  O_12 
REMARK    3  A    between atoms: C_14  and  O_15 
REMARK    4  A    between atoms: C_18  and  C_19 
REMARK    5  A    between atoms: C_22  and  O_23 
ROOT
HETATM    1  C   UNL     1      38.166 -13.309   0.407  1.00  0.00     0.070 C 
HETATM    2  C   UNL     1      38.962 -13.431   1.650  1.00  0.00     0.033 A 
HETATM    3  N   UNL     1      38.743 -12.614   2.727  1.00  0.00    -0.282 N 
HETATM    4  H   UNL     1      38.068 -11.861   2.814  1.00  0.00     0.189 HD
HETATM    5  N   UNL     1      39.524 -12.885   3.783  1.00  0.00    -0.179 NA
HETATM    6  C   UNL     1      40.248 -13.928   3.375  1.00  0.00     0.066 A 
HETATM    7  C   UNL     1      39.992 -14.275   2.026  1.00  0.00     0.001 A 
HETATM    8  C   UNL     1      40.702 -15.405   1.339  1.00  0.00     0.070 C 
HETATM    9  C   UNL     1      41.959 -15.854   2.136  1.00  0.00     0.102 C 
HETATM   10  C   UNL     1      41.675 -15.986   3.665  1.00  0.00     0.071 C 
HETATM   11  C   UNL     1      42.911 -16.466   4.441  1.00  0.00     0.047 C 
HETATM   12  C   UNL     1      41.228 -14.619   4.260  1.00  0.00     0.100 C 
ENDROOT
BRANCH   8  13
HETATM   13  C   UNL     1      41.045 -14.910  -0.062  1.00  0.00    -0.046 A 
HETATM   14  C   UNL     1      40.640 -15.671  -1.179  1.00  0.00     0.047 A 
HETATM   15  C   UNL     1      40.932 -15.244  -2.475  1.00  0.00     0.101 A 
HETATM   16  C   UNL     1      41.678 -14.076  -2.652  1.00  0.00     0.099 A 
HETATM   17  C   UNL     1      42.088 -13.309  -1.573  1.00  0.00     0.040 A 
HETATM   18  C   UNL     1      41.763 -13.718  -0.280  1.00  0.00     0.011 A 
BRANCH  15  19
HETATM   19  O   UNL     1      40.563 -15.886  -3.630  1.00  0.00    -0.353 OA
HETATM   20  C   UNL     1      39.161 -15.961  -3.871  1.00  0.00     0.210 C 
ENDBRANCH  15  19
BRANCH  16  21
HETATM   21  O   UNL     1      42.004 -13.652  -3.911  1.00  0.00    -0.358 OA
HETATM   22  H   UNL     1      42.332 -14.449  -4.370  1.00  0.00     0.218 HD
ENDBRANCH  16  21
ENDBRANCH   8  13
BRANCH   9  23
HETATM   23  C   UNL     1      42.444 -17.179   1.563  1.00  0.00     0.131 C 
HETATM   24  C   UNL     1      43.893 -17.282   1.168  1.00  0.00     0.091 C 
HETATM   25  O   UNL     1      41.672 -18.130   1.414  1.00  0.00    -0.298 OA
ENDBRANCH   9  23
BRANCH  10  26
HETATM   26  O   UNL     1      40.629 -16.940   3.904  1.00  0.00    -0.389 OA
HETATM   27  H   UNL     1      39.957 -16.836   3.197  1.00  0.00     0.210 HD
ENDBRANCH  10  26
TORSDOF 5
ENDMDL
MODEL 4
REMARK VINA RESULT:      -6.6      1.830      5.473
REMARK  5 active torsions:
REMARK  status: ('A' for Active; 'I' for Inactive)
REMARK    1  A    between atoms: C_8  and  C_9 
REMARK    2  A    between atoms: C_11  and  O_12 
REMARK    3  A    between atoms: C_14  and  O_15 
REMARK    4  A    between atoms: C_18  and  C_19 
REMARK    5  A    between atoms: C_22  and  O_23 
ROOT
HETATM    1  C   UNL     1      43.999 -18.571   4.572  1.00  0.00     0.070 C 
HETATM    2  C   UNL     1      43.660 -18.018   3.240  1.00  0.00     0.033 A 
HETATM    3  N   UNL     1      44.178 -18.549   2.089  1.00  0.00    -0.282 N 
HETATM    4  H   UNL     1      44.826 -19.324   1.994  1.00  0.00     0.189 HD
HETATM    5  N   UNL     1      43.738 -17.955   0.970  1.00  0.00    -0.179 NA
HETATM    6  C   UNL     1      42.890 -17.030   1.421  1.00  0.00     0.066 A 
HETATM    7  C   UNL     1      42.848 -16.973   2.836  1.00  0.00     0.001 A 
HETATM    8  C   UNL     1      41.980 -15.997   3.575  1.00  0.00     0.070 C 
HETATM    9  C   UNL     1      41.471 -14.867   2.637  1.00  0.00     0.102 C 
HETATM   10  C   UNL     1      40.959 -15.417   1.269  1.00  0.00     0.071 C 
HETATM   11  C   UNL     1      40.424 -14.298   0.364  1.00  0.00     0.047 C 
HETATM   12  C   UNL     1      42.102 -16.152   0.512  1.00  0.00     0.100 C 
ENDROOT
BRANCH   8  13
HETATM   13  C   UNL     1      42.819 -15.463   4.732  1.00  0.00    -0.046 A 
HETATM   14  C   UNL     1      42.782 -16.131   5.974  1.00  0.00     0.047 A 
HETATM   15  C   UNL     1      43.541 -15.674   7.051  1.00  0.00     0.101 A 
HETATM   16  C   UNL     1      44.303 -14.512   6.899  1.00  0.00     0.099 A 
HETATM   17  C   UNL     1      44.358 -13.837   5.690  1.00  0.00     0.040 A 
HETATM   18  C   UNL     1      43.627 -14.317   4.603  1.00  0.00     0.011 A 
BRANCH  15  19
HETATM   19  O   UNL     1      43.605 -16.259   8.290  1.00  0.00    -0.353 OA
HETATM   20  C   UNL     1      43.586 -17.683   8.300  1.00  0.00     0.210 C 
ENDBRANCH  15  19
BRANCH  16  21
HETATM   21  O   UNL     1      45.033 -14.024   7.948  1.00  0.00    -0.358 OA
HETATM   22  H   UNL     1      45.709 -14.706   8.124  1.00  0.00     0.218 HD
ENDBRANCH  16  21
ENDBRANCH   8  13
BRANCH   9  23
HETATM   23  C   UNL     1      40.367 -14.105   3.358  1.00  0.00     0.131 C 
HETATM   24  C   UNL     1      40.503 -12.608   3.462  1.00  0.00     0.091 C 
HETATM   25  O   UNL     1      39.403 -14.694   3.851  1.00  0.00    -0.298 OA
ENDBRANCH   9  23
BRANCH  10  26
HETATM   26  O   UNL     1      39.885 -16.348   1.470  1.00  0.00    -0.389 OA
HETATM   27  H   UNL     1      40.221 -17.246   1.261  1.00  0.00     0.210 HD
ENDBRANCH  10  26
TORSDOF 5
ENDMDL
MODEL 5
REMARK VINA RESULT:      -6.5      2.957      6.149
REMARK  5 active torsions:
REMARK  status: ('A' for Active; 'I' for Inactive)
REMARK    1  A    between atoms: C_8  and  C_9 
REMARK    2  A    between atoms: C_11  and  O_12 
REMARK    3  A    between atoms: C_14  and  O_15 
REMARK    4  A    between atoms: C_18  and  C_19 
REMARK    5  A    between atoms: C_22  and  O_23 
ROOT
HETATM    1  C   UNL     1      44.700 -14.836   6.675  1.00  0.00     0.070 C 
HETATM    2  C   UNL     1      43.498 -14.206   6.080  1.00  0.00     0.033 A 
HETATM    3  N   UNL     1      42.914 -13.101   6.641  1.00  0.00    -0.282 N 
HETATM    4  H   UNL     1      43.191 -12.607   7.483  1.00  0.00     0.189 HD
HETATM    5  N   UNL     1      41.860 -12.636   5.955  1.00  0.00    -0.179 NA
HETATM    6  C   UNL     1      41.784 -13.456   4.906  1.00  0.00     0.066 A 
HETATM    7  C   UNL     1      42.739 -14.501   4.961  1.00  0.00     0.001 A 
HETATM    8  C   UNL     1      42.834 -15.559   3.901  1.00  0.00     0.070 C 
HETATM    9  C   UNL     1      41.566 -15.577   3.002  1.00  0.00     0.102 C 
HETATM   10  C   UNL     1      41.123 -14.143   2.573  1.00  0.00     0.071 C 
HETATM   11  C   UNL     1      39.892 -14.172   1.655  1.00  0.00     0.047 C 
HETATM   12  C   UNL     1      40.780 -13.279   3.820  1.00  0.00     0.100 C 
ENDROOT
BRANCH   8  13
HETATM   13  C   UNL     1      43.054 -16.881   4.629  1.00  0.00    -0.046 A 
HETATM   14  C   UNL     1      43.999 -17.797   4.122  1.00  0.00     0.047 A 
HETATM   15  C   UNL     1      44.230 -19.013   4.766  1.00  0.00     0.101 A 
HETATM   16  C   UNL     1      43.472 -19.335   5.895  1.00  0.00     0.099 A 
HETATM   17  C   UNL     1      42.537 -18.454   6.415  1.00  0.00     0.040 A 
HETATM   18  C   UNL     1      42.336 -17.223   5.791  1.00  0.00     0.011 A 
BRANCH  15  19
HETATM   19  O   UNL     1      45.142 -19.962   4.381  1.00  0.00    -0.353 OA
HETATM   20  C   UNL     1      44.873 -20.604   3.138  1.00  0.00     0.210 C 
ENDBRANCH  15  19
BRANCH  16  21
HETATM   21  O   UNL     1      43.655 -20.534   6.529  1.00  0.00    -0.358 OA
HETATM   22  H   UNL     1      44.594 -20.536   6.799  1.00  0.00     0.218 HD
ENDBRANCH  16  21
ENDBRANCH   8  13
BRANCH   9  23
HETATM   23  C   UNL     1      41.855 -16.439   1.781  1.00  0.00     0.131 C 
HETATM   24  C   UNL     1      40.924 -17.589   1.499  1.00  0.00     0.091 C 
HETATM   25  O   UNL     1      42.826 -16.211   1.055  1.00  0.00    -0.298 OA
ENDBRANCH   9  23
BRANCH  10  26
HETATM   26  O   UNL     1      42.175 -13.485   1.849  1.00  0.00    -0.389 OA
HETATM   27  H   UNL     1      42.950 -14.087   1.829  1.00  0.00     0.210 HD
ENDBRANCH  10  26
TORSDOF 5
ENDMDL
MODEL 6
REMARK VINA RESULT:      -6.3      2.038      4.696
REMARK  5 active torsions:
REMARK  status: ('A' for Active; 'I' for Inactive)
REMARK    1  A    between atoms: C_8  and  C_9 
REMARK    2  A    between atoms: C_11  and  O_12 
REMARK    3  A    between atoms: C_14  and  O_15 
REMARK    4  A    between atoms: C_18  and  C_19 
REMARK    5  A    between atoms: C_22  and  O_23 
ROOT
HETATM    1  C   UNL     1      42.512 -17.483   7.518  1.00  0.00     0.070 C 
HETATM    2  C   UNL     1      43.266 -17.945   6.330  1.00  0.00     0.033 A 
HETATM    3  N   UNL     1      44.286 -18.853   6.435  1.00  0.00    -0.282 N 
HETATM    4  H   UNL     1      44.650 -19.291   7.274  1.00  0.00     0.189 HD
HETATM    5  N   UNL     1      44.836 -19.191   5.259  1.00  0.00    -0.179 NA
HETATM    6  C   UNL     1      44.125 -18.495   4.371  1.00  0.00     0.066 A 
HETATM    7  C   UNL     1      43.172 -17.644   4.982  1.00  0.00     0.001 A 
HETATM    8  C   UNL     1      42.267 -16.749   4.187  1.00  0.00     0.070 C 
HETATM    9  C   UNL     1      42.762 -16.600   2.721  1.00  0.00     0.102 C 
HETATM   10  C   UNL     1      43.180 -17.967   2.094  1.00  0.00     0.071 C 
HETATM   11  C   UNL     1      43.632 -17.817   0.634  1.00  0.00     0.047 C 
HETATM   12  C   UNL     1      44.346 -18.607   2.902  1.00  0.00     0.100 C 
ENDROOT
BRANCH   8  13
HETATM   13  C   UNL     1      42.220 -15.416   4.926  1.00  0.00    -0.046 A 
HETATM   14  C   UNL     1      40.969 -14.871   5.283  1.00  0.00     0.047 A 
HETATM   15  C   UNL     1      40.890 -13.656   5.966  1.00  0.00     0.101 A 
HETATM   16  C   UNL     1      42.068 -12.959   6.247  1.00  0.00     0.099 A 
HETATM   17  C   UNL     1      43.310 -13.472   5.908  1.00  0.00     0.040 A 
HETATM   18  C   UNL     1      43.389 -14.704   5.259  1.00  0.00     0.011 A 
BRANCH  15  19
HETATM   19  O   UNL     1      39.734 -13.049   6.387  1.00  0.00    -0.353 OA
HETATM   20  C   UNL     1      39.013 -12.338   5.386  1.00  0.00     0.210 C 
ENDBRANCH  15  19
BRANCH  16  21
HETATM   21  O   UNL     1      42.017 -11.751   6.887  1.00  0.00    -0.358 OA
HETATM   22  H   UNL     1      42.804 -11.740   7.466  1.00  0.00     0.218 HD
ENDBRANCH  16  21
ENDBRANCH   8  13
BRANCH   9  23
HETATM   23  C   UNL     1      41.654 -15.950   1.903  1.00  0.00     0.131 C 
HETATM   24  C   UNL     1      41.932 -14.600   1.295  1.00  0.00     0.091 C 
HETATM   25  O   UNL     1      40.561 -16.504   1.756  1.00  0.00    -0.298 OA
ENDBRANCH   9  23
BRANCH  10  26
HETATM   26  O   UNL     1      42.075 -18.885   2.102  1.00  0.00    -0.389 OA
HETATM   27  H   UNL     1      41.452 -18.602   2.806  1.00  0.00     0.210 HD
ENDBRANCH  10  26
TORSDOF 5
ENDMDL
MODEL 7
REMARK VINA RESULT:      -6.3      2.465      4.217
REMARK  5 active torsions:
REMARK  status: ('A' for Active; 'I' for Inactive)
REMARK    1  A    between atoms: C_8  and  C_9 
REMARK    2  A    between atoms: C_11  and  O_12 
REMARK    3  A    between atoms: C_14  and  O_15 
REMARK    4  A    between atoms: C_18  and  C_19 
REMARK    5  A    between atoms: C_22  and  O_23 
ROOT
HETATM    1  C   UNL     1      41.003 -16.661   6.910  1.00  0.00     0.070 C 
HETATM    2  C   UNL     1      42.243 -17.456   6.757  1.00  0.00     0.033 A 
HETATM    3  N   UNL     1      42.991 -17.837   7.840  1.00  0.00    -0.282 N 
HETATM    4  H   UNL     1      42.822 -17.633   8.819  1.00  0.00     0.189 HD
HETATM    5  N   UNL     1      44.060 -18.585   7.527  1.00  0.00    -0.179 NA
HETATM    6  C   UNL     1      43.977 -18.707   6.201  1.00  0.00     0.066 A 
HETATM    7  C   UNL     1      42.901 -17.967   5.652  1.00  0.00     0.001 A 
HETATM    8  C   UNL     1      42.618 -17.935   4.178  1.00  0.00     0.070 C 
HETATM    9  C   UNL     1      43.826 -18.466   3.357  1.00  0.00     0.102 C 
HETATM   10  C   UNL     1      44.426 -19.773   3.962  1.00  0.00     0.071 C 
HETATM   11  C   UNL     1      45.595 -20.311   3.124  1.00  0.00     0.047 C 
HETATM   12  C   UNL     1      44.940 -19.522   5.409  1.00  0.00     0.100 C 
ENDROOT
BRANCH   8  13
HETATM   13  C   UNL     1      42.269 -16.490   3.837  1.00  0.00    -0.046 A 
HETATM   14  C   UNL     1      40.945 -16.170   3.473  1.00  0.00     0.047 A 
HETATM   15  C   UNL     1      40.590 -14.856   3.161  1.00  0.00     0.101 A 
HETATM   16  C   UNL     1      41.578 -13.868   3.165  1.00  0.00     0.099 A 
HETATM   17  C   UNL     1      42.887 -14.155   3.519  1.00  0.00     0.040 A 
HETATM   18  C   UNL     1      43.231 -15.461   3.867  1.00  0.00     0.011 A 
BRANCH  15  19
HETATM   19  O   UNL     1      39.332 -14.427   2.823  1.00  0.00    -0.353 OA
HETATM   20  C   UNL     1      38.840 -14.889   1.568  1.00  0.00     0.210 C 
ENDBRANCH  15  19
BRANCH  16  21
HETATM   21  O   UNL     1      41.264 -12.579   2.833  1.00  0.00    -0.358 OA
HETATM   22  H   UNL     1      40.445 -12.646   2.305  1.00  0.00     0.218 HD
ENDBRANCH  16  21
ENDBRANCH   8  13
BRANCH   9  23
HETATM   23  C   UNL     1      43.369 -18.697   1.923  1.00  0.00     0.131 C 
HETATM   24  C   UNL     1      43.818 -17.711   0.877  1.00  0.00     0.091 C 
HETATM   25  O   UNL     1      42.643 -19.651   1.631  1.00  0.00    -0.298 OA
ENDBRANCH   9  23
BRANCH  10  26
HETATM   26  O   UNL     1      43.432 -20.808   4.013  1.00  0.00    -0.389 OA
HETATM   27  H   UNL     1      43.885 -21.669   3.879  1.00  0.00     0.210 HD
ENDBRANCH  10  26
TORSDOF 5
ENDMDL
MODEL 8
REMARK VINA RESULT:      -6.3      1.792      5.075
REMARK  5 active torsions:
REMARK  status: ('A' for Active; 'I' for Inactive)
REMARK    1  A    between atoms: C_8  and  C_9 
REMARK    2  A    between atoms: C_11  and  O_12 
REMARK    3  A    between atoms: C_14  and  O_15 
REMARK    4  A    between atoms: C_18  and  C_19 
REMARK    5  A    between atoms: C_22  and  O_23 
ROOT
HETATM    1  C   UNL     1      43.661 -20.258   5.005  1.00  0.00     0.070 C 
HETATM    2  C   UNL     1      43.802 -19.590   3.691  1.00  0.00     0.033 A 
HETATM    3  N   UNL     1      44.680 -20.046   2.743  1.00  0.00    -0.282 N 
HETATM    4  H   UNL     1      45.316 -20.834   2.808  1.00  0.00     0.189 HD
HETATM    5  N   UNL     1      44.653 -19.350   1.597  1.00  0.00    -0.179 NA
HETATM    6  C   UNL     1      43.708 -18.434   1.811  1.00  0.00     0.066 A 
HETATM    7  C   UNL     1      43.185 -18.488   3.126  1.00  0.00     0.001 A 
HETATM    8  C   UNL     1      42.122 -17.542   3.607  1.00  0.00     0.070 C 
HETATM    9  C   UNL     1      41.973 -16.324   2.654  1.00  0.00     0.102 C 
HETATM   10  C   UNL     1      41.956 -16.745   1.151  1.00  0.00     0.071 C 
HETATM   11  C   UNL     1      41.770 -15.540   0.217  1.00  0.00     0.047 C 
HETATM   12  C   UNL     1      43.285 -17.459   0.767  1.00  0.00     0.100 C 
ENDROOT
BRANCH   8  13
HETATM   13  C   UNL     1      42.519 -17.132   5.022  1.00  0.00    -0.046 A 
HETATM   14  C   UNL     1      43.625 -16.276   5.205  1.00  0.00     0.047 A 
HETATM   15  C   UNL     1      44.011 -15.876   6.485  1.00  0.00     0.101 A 
HETATM   16  C   UNL     1      43.317 -16.377   7.590  1.00  0.00     0.099 A 
HETATM   17  C   UNL     1      42.227 -17.219   7.438  1.00  0.00     0.040 A 
HETATM   18  C   UNL     1      41.819 -17.587   6.157  1.00  0.00     0.011 A 
BRANCH  15  19
HETATM   19  O   UNL     1      45.048 -15.027   6.779  1.00  0.00    -0.353 OA
HETATM   20  C   UNL     1      44.715 -13.642   6.822  1.00  0.00     0.210 C 
ENDBRANCH  15  19
BRANCH  16  21
HETATM   21  O   UNL     1      43.694 -16.026   8.857  1.00  0.00    -0.358 OA
HETATM   22  H   UNL     1      42.859 -15.949   9.357  1.00  0.00     0.218 HD
ENDBRANCH  16  21
ENDBRANCH   8  13
BRANCH   9  23
HETATM   23  C   UNL     1      40.694 -15.582   3.018  1.00  0.00     0.131 C 
HETATM   24  C   UNL     1      40.829 -14.279   3.762  1.00  0.00     0.091 C 
HETATM   25  O   UNL     1      39.586 -16.040   2.728  1.00  0.00    -0.298 OA
ENDBRANCH   9  23
BRANCH  10  26
HETATM   26  O   UNL     1      40.872 -17.651   0.893  1.00  0.00    -0.389 OA
HETATM   27  H   UNL     1      41.196 -18.564   1.051  1.00  0.00     0.210 HD
ENDBRANCH  10  26
TORSDOF 5
ENDMDL
MODEL 9
REMARK VINA RESULT:      -6.2      1.729      4.993
REMARK  5 active torsions:
REMARK  status: ('A' for Active; 'I' for Inactive)
REMARK    1  A    between atoms: C_8  and  C_9 
REMARK    2  A    between atoms: C_11  and  O_12 
REMARK    3  A    between atoms: C_14  and  O_15 
REMARK    4  A    between atoms: C_18  and  C_19 
REMARK    5  A    between atoms: C_22  and  O_23 
ROOT
HETATM    1  C   UNL     1      42.382 -17.764   6.160  1.00  0.00     0.070 C 
HETATM    2  C   UNL     1      42.737 -17.903   4.729  1.00  0.00     0.033 A 
HETATM    3  N   UNL     1      43.683 -18.799   4.307  1.00  0.00    -0.282 N 
HETATM    4  H   UNL     1      44.239 -19.433   4.871  1.00  0.00     0.189 HD
HETATM    5  N   UNL     1      43.855 -18.822   2.977  1.00  0.00    -0.179 NA
HETATM    6  C   UNL     1      42.970 -17.929   2.533  1.00  0.00     0.066 A 
HETATM    7  C   UNL     1      42.287 -17.270   3.584  1.00  0.00     0.001 A 
HETATM    8  C   UNL     1      41.256 -16.209   3.330  1.00  0.00     0.070 C 
HETATM    9  C   UNL     1      41.325 -15.688   1.868  1.00  0.00     0.102 C 
HETATM   10  C   UNL     1      41.458 -16.847   0.831  1.00  0.00     0.071 C 
HETATM   11  C   UNL     1      41.488 -16.326  -0.614  1.00  0.00     0.047 C 
HETATM   12  C   UNL     1      42.760 -17.661   1.083  1.00  0.00     0.100 C 
ENDROOT
BRANCH   8  13
HETATM   13  C   UNL     1      41.508 -15.108   4.355  1.00  0.00    -0.046 A 
HETATM   14  C   UNL     1      42.836 -14.727   4.642  1.00  0.00     0.047 A 
HETATM   15  C   UNL     1      43.103 -13.719   5.570  1.00  0.00     0.101 A 
HETATM   16  C   UNL     1      42.037 -13.126   6.252  1.00  0.00     0.099 A 
HETATM   17  C   UNL     1      40.723 -13.481   5.988  1.00  0.00     0.040 A 
HETATM   18  C   UNL     1      40.457 -14.461   5.033  1.00  0.00     0.011 A 
BRANCH  15  19
HETATM   19  O   UNL     1      44.347 -13.250   5.905  1.00  0.00    -0.353 OA
HETATM   20  C   UNL     1      45.055 -14.019   6.872  1.00  0.00     0.210 C 
ENDBRANCH  15  19
BRANCH  16  21
HETATM   21  O   UNL     1      42.272 -12.158   7.189  1.00  0.00    -0.358 OA
HETATM   22  H   UNL     1      43.141 -11.781   6.950  1.00  0.00     0.218 HD
ENDBRANCH  16  21
ENDBRANCH   8  13
BRANCH   9  23
HETATM   23  C   UNL     1      40.077 -14.860   1.592  1.00  0.00     0.131 C 
HETATM   24  C   UNL     1      40.265 -13.413   1.217  1.00  0.00     0.091 C 
HETATM   25  O   UNL     1      38.951 -15.354   1.688  1.00  0.00    -0.298 OA
ENDBRANCH   9  23
BRANCH  10  26
HETATM   26  O   UNL     1      40.342 -17.745   0.933  1.00  0.00    -0.389 OA
HETATM   27  H   UNL     1      39.960 -17.651   1.832  1.00  0.00     0.210 HD
ENDBRANCH  10  26
TORSDOF 5
ENDMDL
MODEL 10
REMARK VINA RESULT:      -6.0      3.194      6.185
REMARK  5 active torsions:
REMARK  status: ('A' for Active; 'I' for Inactive)
REMARK    1  A    between atoms: C_8  and  C_9 
REMARK    2  A    between atoms: C_11  and  O_12 
REMARK    3  A    between atoms: C_14  and  O_15 
REMARK    4  A    between atoms: C_18  and  C_19 
REMARK    5  A    between atoms: C_22  and  O_23 
ROOT
HETATM    1  C   UNL     1      44.735 -14.189   7.011  1.00  0.00     0.070 C 
HETATM    2  C   UNL     1      43.523 -13.423   6.642  1.00  0.00     0.033 A 
HETATM    3  N   UNL     1      43.094 -12.356   7.386  1.00  0.00    -0.282 N 
HETATM    4  H   UNL     1      43.504 -11.979   8.233  1.00  0.00     0.189 HD
HETATM    5  N   UNL     1      42.003 -11.751   6.891  1.00  0.00    -0.179 NA
HETATM    6  C   UNL     1      41.743 -12.440   5.779  1.00  0.00     0.066 A 
HETATM    7  C   UNL     1      42.617 -13.541   5.603  1.00  0.00     0.001 A 
HETATM    8  C   UNL     1      42.506 -14.475   4.433  1.00  0.00     0.070 C 
HETATM    9  C   UNL     1      41.143 -14.313   3.704  1.00  0.00     0.102 C 
HETATM   10  C   UNL     1      40.760 -12.815   3.488  1.00  0.00     0.071 C 
HETATM   11  C   UNL     1      39.431 -12.664   2.734  1.00  0.00     0.047 C 
HETATM   12  C   UNL     1      40.633 -12.079   4.853  1.00  0.00     0.100 C 
ENDROOT
BRANCH   8  13
HETATM   13  C   UNL     1      42.710 -15.883   4.984  1.00  0.00    -0.046 A 
HETATM   14  C   UNL     1      43.576 -16.767   4.307  1.00  0.00     0.047 A 
HETATM   15  C   UNL     1      43.791 -18.060   4.787  1.00  0.00     0.101 A 
HETATM   16  C   UNL     1      43.095 -18.486   5.922  1.00  0.00     0.099 A 
HETATM   17  C   UNL     1      42.239 -17.637   6.606  1.00  0.00     0.040 A 
HETATM   18  C   UNL     1      42.055 -16.334   6.146  1.00  0.00     0.011 A 
BRANCH  15  19
HETATM   19  O   UNL     1      44.630 -18.991   4.230  1.00  0.00    -0.353 OA
HETATM   20  C   UNL     1      44.187 -19.560   3.001  1.00  0.00     0.210 C 
ENDBRANCH  15  19
BRANCH  16  21
HETATM   21  O   UNL     1      43.263 -19.758   6.396  1.00  0.00    -0.358 OA
HETATM   22  H   UNL     1      43.736 -19.651   7.244  1.00  0.00     0.218 HD
ENDBRANCH  16  21
ENDBRANCH   8  13
BRANCH   9  23
HETATM   23  C   UNL     1      41.219 -15.046   2.372  1.00  0.00     0.131 C 
HETATM   24  C   UNL     1      40.274 -16.197   2.151  1.00  0.00     0.091 C 
HETATM   25  O   UNL     1      42.039 -14.718   1.510  1.00  0.00    -0.298 OA
ENDBRANCH   9  23
BRANCH  10  26
HETATM   26  O   UNL     1      41.765 -12.145   2.711  1.00  0.00    -0.389 OA
HETATM   27  H   UNL     1      41.688 -12.457   1.784  1.00  0.00     0.210 HD
ENDBRANCH  10  26
TORSDOF 5
ENDMDL
