MODEL 1
REMARK VINA RESULT:      -8.6      0.000      0.000
REMARK  5 active torsions:
REMARK  status: ('A' for Active; 'I' for Inactive)
REMARK    1  A    between atoms: C_3  and  N_4 
REMARK       I    between atoms: N_4  and  C_5 
REMARK       I    between atoms: C_5  and  N_6 
REMARK    2  A    between atoms: N_6  and  C_7 
REMARK    3  A    between atoms: C_7  and  C_8 
REMARK    4  A    between atoms: C_11  and  N_12 
REMARK       I    between atoms: N_12  and  C_13 
REMARK    5  A    between atoms: C_13  and  C_14 
ROOT
HETATM    1  C   UNL     1      41.655 -13.093   5.534  1.00  0.00    -0.040 A 
HETATM    2  C   UNL     1      40.804 -14.174   5.789  1.00  0.00     0.011 A 
HETATM    3  C   UNL     1      41.110 -15.455   5.315  1.00  0.00     0.030 A 
HETATM    4  C   UNL     1      42.273 -15.681   4.580  1.00  0.00     0.035 A 
HETATM    5  C   UNL     1      43.137 -14.603   4.342  1.00  0.00     0.030 A 
HETATM    6  C   UNL     1      42.834 -13.323   4.817  1.00  0.00     0.011 A 
ENDROOT
BRANCH   1   7
HETATM    7  C   UNL     1      41.319 -11.719   6.048  1.00  0.00     0.162 C 
BRANCH   7   8
HETATM    8  N   UNL     1      41.078 -11.743   7.472  1.00  0.00    -0.339 N 
HETATM    9  C   UNL     1      41.735 -10.832   8.274  1.00  0.00     0.321 C 
HETATM   10  N   UNL     1      41.427 -11.047   9.598  1.00  0.00    -0.307 N 
HETATM   11  O   UNL     1      42.448  -9.948   7.821  1.00  0.00    -0.247 OA
HETATM   12  H   UNL     1      40.483 -11.392   9.715  1.00  0.00     0.170 HD
HETATM   13  H   UNL     1      40.926 -12.650   7.887  1.00  0.00     0.164 HD
BRANCH  10  14
HETATM   14  C   UNL     1      41.978 -10.360  10.706  1.00  0.00     0.059 A 
HETATM   15  C   UNL     1      43.136 -10.724  11.410  1.00  0.00    -0.032 A 
HETATM   16  C   UNL     1      43.950 -11.957  11.142  1.00  0.00     0.050 C 
HETATM   17  C   UNL     1      43.561  -9.895  12.464  1.00  0.00     0.028 A 
HETATM   18  C   UNL     1      42.801  -8.791  12.818  1.00  0.00     0.117 A 
HETATM   19  N   UNL     1      41.650  -8.456  12.209  1.00  0.00    -0.271 NA
HETATM   20  C   UNL     1      41.272  -9.246  11.176  1.00  0.00     0.146 A 
ENDBRANCH  10  14
ENDBRANCH   7   8
ENDBRANCH   1   7
BRANCH   4  21
HETATM   21  N   UNL     1      42.650 -16.938   4.055  1.00  0.00    -0.323 N 
HETATM   22  C   UNL     1      43.565 -17.829   4.589  1.00  0.00     0.257 C 
HETATM   23  O   UNL     1      44.178 -17.698   5.642  1.00  0.00    -0.267 OA
HETATM   24  H   UNL     1      42.143 -17.225   3.231  1.00  0.00     0.169 HD
BRANCH  22  25
HETATM   25  C   UNL     1      43.793 -19.073   3.805  1.00  0.00     0.049 A 
HETATM   26  C   UNL     1      44.570 -20.078   4.370  1.00  0.00     0.133 A 
HETATM   27  N   UNL     1      44.852 -21.257   3.756  1.00  0.00    -0.272 NA
HETATM   28  C   UNL     1      44.348 -21.433   2.518  1.00  0.00     0.116 A 
HETATM   29  C   UNL     1      43.577 -20.487   1.862  1.00  0.00     0.020 A 
HETATM   30  C   UNL     1      43.299 -19.284   2.514  1.00  0.00     0.020 A 
ENDBRANCH  22  25
ENDBRANCH   4  21
TORSDOF 5
ENDMDL
MODEL 2
REMARK VINA RESULT:      -8.3      1.165      1.651
REMARK  5 active torsions:
REMARK  status: ('A' for Active; 'I' for Inactive)
REMARK    1  A    between atoms: C_3  and  N_4 
REMARK       I    between atoms: N_4  and  C_5 
REMARK       I    between atoms: C_5  and  N_6 
REMARK    2  A    between atoms: N_6  and  C_7 
REMARK    3  A    between atoms: C_7  and  C_8 
REMARK    4  A    between atoms: C_11  and  N_12 
REMARK       I    between atoms: N_12  and  C_13 
REMARK    5  A    between atoms: C_13  and  C_14 
ROOT
HETATM    1  C   UNL     1      41.351 -13.069   5.626  1.00  0.00    -0.040 A 
HETATM    2  C   UNL     1      40.492 -14.172   5.667  1.00  0.00     0.011 A 
HETATM    3  C   UNL     1      40.940 -15.444   5.290  1.00  0.00     0.030 A 
HETATM    4  C   UNL     1      42.255 -15.638   4.866  1.00  0.00     0.035 A 
HETATM    5  C   UNL     1      43.121 -14.536   4.845  1.00  0.00     0.030 A 
HETATM    6  C   UNL     1      42.677 -13.265   5.225  1.00  0.00     0.011 A 
ENDROOT
BRANCH   1   7
HETATM    7  C   UNL     1      40.863 -11.705   6.034  1.00  0.00     0.162 C 
BRANCH   7   8
HETATM    8  N   UNL     1      40.645 -11.638   7.461  1.00  0.00    -0.339 N 
HETATM    9  C   UNL     1      41.508 -10.886   8.231  1.00  0.00     0.321 C 
HETATM   10  N   UNL     1      41.179 -10.991   9.563  1.00  0.00    -0.307 N 
HETATM   11  O   UNL     1      42.399 -10.203   7.748  1.00  0.00    -0.247 OA
HETATM   12  H   UNL     1      40.183 -11.105   9.699  1.00  0.00     0.170 HD
HETATM   13  H   UNL     1      40.293 -12.475   7.901  1.00  0.00     0.164 HD
BRANCH  10  14
HETATM   14  C   UNL     1      41.892 -10.425  10.647  1.00  0.00     0.059 A 
HETATM   15  C   UNL     1      41.796  -9.099  11.097  1.00  0.00    -0.032 A 
HETATM   16  C   UNL     1      40.962  -8.033  10.447  1.00  0.00     0.050 C 
HETATM   17  C   UNL     1      42.553  -8.723  12.221  1.00  0.00     0.028 A 
HETATM   18  C   UNL     1      43.412  -9.638  12.809  1.00  0.00     0.117 A 
HETATM   19  N   UNL     1      43.578 -10.895  12.359  1.00  0.00    -0.271 NA
HETATM   20  C   UNL     1      42.818 -11.251  11.296  1.00  0.00     0.146 A 
ENDBRANCH  10  14
ENDBRANCH   7   8
ENDBRANCH   1   7
BRANCH   4  21
HETATM   21  N   UNL     1      42.783 -16.882   4.457  1.00  0.00    -0.323 N 
HETATM   22  C   UNL     1      42.594 -17.513   3.239  1.00  0.00     0.257 C 
HETATM   23  O   UNL     1      41.964 -17.074   2.283  1.00  0.00    -0.267 OA
HETATM   24  H   UNL     1      43.413 -17.316   5.115  1.00  0.00     0.169 HD
BRANCH  22  25
HETATM   25  C   UNL     1      43.248 -18.840   3.087  1.00  0.00     0.049 A 
HETATM   26  C   UNL     1      44.130 -19.261   4.077  1.00  0.00     0.133 A 
HETATM   27  N   UNL     1      44.789 -20.448   4.053  1.00  0.00    -0.272 NA
HETATM   28  C   UNL     1      44.571 -21.243   2.986  1.00  0.00     0.116 A 
HETATM   29  C   UNL     1      43.726 -20.909   1.940  1.00  0.00     0.020 A 
HETATM   30  C   UNL     1      43.057 -19.684   1.989  1.00  0.00     0.020 A 
ENDBRANCH  22  25
ENDBRANCH   4  21
TORSDOF 5
ENDMDL
MODEL 3
REMARK VINA RESULT:      -7.8      6.510     10.566
REMARK  5 active torsions:
REMARK  status: ('A' for Active; 'I' for Inactive)
REMARK    1  A    between atoms: C_3  and  N_4 
REMARK       I    between atoms: N_4  and  C_5 
REMARK       I    between atoms: C_5  and  N_6 
REMARK    2  A    between atoms: N_6  and  C_7 
REMARK    3  A    between atoms: C_7  and  C_8 
REMARK    4  A    between atoms: C_11  and  N_12 
REMARK       I    between atoms: N_12  and  C_13 
REMARK    5  A    between atoms: C_13  and  C_14 
ROOT
HETATM    1  C   UNL     1      41.770 -15.383   2.051  1.00  0.00    -0.040 A 
HETATM    2  C   UNL     1      40.425 -15.134   2.346  1.00  0.00     0.011 A 
HETATM    3  C   UNL     1      39.500 -14.890   1.324  1.00  0.00     0.030 A 
HETATM    4  C   UNL     1      39.900 -14.892  -0.012  1.00  0.00     0.035 A 
HETATM    5  C   UNL     1      41.242 -15.162  -0.310  1.00  0.00     0.030 A 
HETATM    6  C   UNL     1      42.168 -15.409   0.709  1.00  0.00     0.011 A 
ENDROOT
BRANCH   1   7
HETATM    7  C   UNL     1      42.758 -15.645   3.155  1.00  0.00     0.162 C 
BRANCH   7   8
HETATM    8  N   UNL     1      43.601 -16.775   2.838  1.00  0.00    -0.339 N 
HETATM    9  C   UNL     1      43.376 -17.974   3.482  1.00  0.00     0.321 C 
HETATM   10  N   UNL     1      44.311 -18.909   3.097  1.00  0.00    -0.307 N 
HETATM   11  O   UNL     1      42.439 -18.147   4.247  1.00  0.00    -0.247 OA
HETATM   12  H   UNL     1      44.603 -18.778   2.137  1.00  0.00     0.170 HD
HETATM   13  H   UNL     1      44.568 -16.571   2.633  1.00  0.00     0.164 HD
BRANCH  10  14
HETATM   14  C   UNL     1      44.441 -20.221   3.612  1.00  0.00     0.059 A 
HETATM   15  C   UNL     1      44.353 -21.411   2.873  1.00  0.00    -0.032 A 
HETATM   16  C   UNL     1      44.033 -21.488   1.408  1.00  0.00     0.050 C 
HETATM   17  C   UNL     1      44.552 -22.628   3.549  1.00  0.00     0.028 A 
HETATM   18  C   UNL     1      44.760 -22.627   4.919  1.00  0.00     0.117 A 
HETATM   19  N   UNL     1      44.780 -21.508   5.666  1.00  0.00    -0.271 NA
HETATM   20  C   UNL     1      44.620 -20.343   4.995  1.00  0.00     0.146 A 
ENDBRANCH  10  14
ENDBRANCH   7   8
ENDBRANCH   1   7
BRANCH   4  21
HETATM   21  N   UNL     1      39.035 -14.643  -1.102  1.00  0.00    -0.323 N 
HETATM   22  C   UNL     1      38.754 -13.420  -1.686  1.00  0.00     0.257 C 
HETATM   23  O   UNL     1      39.247 -12.339  -1.382  1.00  0.00    -0.267 OA
HETATM   24  H   UNL     1      38.633 -15.467  -1.524  1.00  0.00     0.169 HD
BRANCH  22  25
HETATM   25  C   UNL     1      37.777 -13.445  -2.807  1.00  0.00     0.049 A 
HETATM   26  C   UNL     1      37.473 -14.669  -3.393  1.00  0.00     0.133 A 
HETATM   27  N   UNL     1      36.600 -14.824  -4.421  1.00  0.00    -0.272 NA
HETATM   28  C   UNL     1      36.017 -13.705  -4.897  1.00  0.00     0.116 A 
HETATM   29  C   UNL     1      36.265 -12.438  -4.394  1.00  0.00     0.020 A 
HETATM   30  C   UNL     1      37.164 -12.305  -3.335  1.00  0.00     0.020 A 
ENDBRANCH  22  25
ENDBRANCH   4  21
TORSDOF 5
ENDMDL
MODEL 4
REMARK VINA RESULT:      -7.8      1.810      2.383
REMARK  5 active torsions:
REMARK  status: ('A' for Active; 'I' for Inactive)
REMARK    1  A    between atoms: C_3  and  N_4 
REMARK       I    between atoms: N_4  and  C_5 
REMARK       I    between atoms: C_5  and  N_6 
REMARK    2  A    between atoms: N_6  and  C_7 
REMARK    3  A    between atoms: C_7  and  C_8 
REMARK    4  A    between atoms: C_11  and  N_12 
REMARK       I    between atoms: N_12  and  C_13 
REMARK    5  A    between atoms: C_13  and  C_14 
ROOT
HETATM    1  C   UNL     1      42.192 -13.877   5.088  1.00  0.00    -0.040 A 
HETATM    2  C   UNL     1      41.656 -14.913   5.860  1.00  0.00     0.011 A 
HETATM    3  C   UNL     1      41.954 -16.250   5.570  1.00  0.00     0.030 A 
HETATM    4  C   UNL     1      42.795 -16.577   4.506  1.00  0.00     0.035 A 
HETATM    5  C   UNL     1      43.349 -15.537   3.746  1.00  0.00     0.030 A 
HETATM    6  C   UNL     1      43.055 -14.201   4.036  1.00  0.00     0.011 A 
ENDROOT
BRANCH   1   7
HETATM    7  C   UNL     1      41.868 -12.442   5.407  1.00  0.00     0.162 C 
BRANCH   7   8
HETATM    8  N   UNL     1      40.857 -12.355   6.435  1.00  0.00    -0.339 N 
HETATM    9  C   UNL     1      40.942 -11.342   7.368  1.00  0.00     0.321 C 
HETATM   10  N   UNL     1      39.931 -11.458   8.296  1.00  0.00    -0.307 N 
HETATM   11  O   UNL     1      41.789 -10.463   7.313  1.00  0.00    -0.247 OA
HETATM   12  H   UNL     1      39.088 -11.845   7.891  1.00  0.00     0.170 HD
HETATM   13  H   UNL     1      40.492 -13.230   6.781  1.00  0.00     0.164 HD
BRANCH  10  14
HETATM   14  C   UNL     1      39.753 -10.648   9.443  1.00  0.00     0.059 A 
HETATM   15  C   UNL     1      39.175  -9.370   9.470  1.00  0.00    -0.032 A 
HETATM   16  C   UNL     1      38.708  -8.615   8.258  1.00  0.00     0.050 C 
HETATM   17  C   UNL     1      39.042  -8.727  10.714  1.00  0.00     0.028 A 
HETATM   18  C   UNL     1      39.538  -9.334  11.857  1.00  0.00     0.117 A 
HETATM   19  N   UNL     1      40.159 -10.526  11.854  1.00  0.00    -0.271 NA
HETATM   20  C   UNL     1      40.250 -11.147  10.653  1.00  0.00     0.146 A 
ENDBRANCH  10  14
ENDBRANCH   7   8
ENDBRANCH   1   7
BRANCH   4  21
HETATM   21  N   UNL     1      43.135 -17.897   4.137  1.00  0.00    -0.323 N 
HETATM   22  C   UNL     1      44.197 -18.651   4.607  1.00  0.00     0.257 C 
HETATM   23  O   UNL     1      45.006 -18.312   5.464  1.00  0.00    -0.267 OA
HETATM   24  H   UNL     1      42.487 -18.345   3.506  1.00  0.00     0.169 HD
BRANCH  22  25
HETATM   25  C   UNL     1      44.337 -20.011   4.021  1.00  0.00     0.049 A 
HETATM   26  C   UNL     1      44.687 -21.062   4.862  1.00  0.00     0.133 A 
HETATM   27  N   UNL     1      44.847 -22.346   4.449  1.00  0.00    -0.272 NA
HETATM   28  C   UNL     1      44.666 -22.588   3.135  1.00  0.00     0.116 A 
HETATM   29  C   UNL     1      44.333 -21.609   2.213  1.00  0.00     0.020 A 
HETATM   30  C   UNL     1      44.171 -20.297   2.663  1.00  0.00     0.020 A 
ENDBRANCH  22  25
ENDBRANCH   4  21
TORSDOF 5
ENDMDL
MODEL 5
REMARK VINA RESULT:      -7.8      6.310      9.617
REMARK  5 active torsions:
REMARK  status: ('A' for Active; 'I' for Inactive)
REMARK    1  A    between atoms: C_3  and  N_4 
REMARK       I    between atoms: N_4  and  C_5 
REMARK       I    between atoms: C_5  and  N_6 
REMARK    2  A    between atoms: N_6  and  C_7 
REMARK    3  A    between atoms: C_7  and  C_8 
REMARK    4  A    between atoms: C_11  and  N_12 
REMARK       I    between atoms: N_12  and  C_13 
REMARK    5  A    between atoms: C_13  and  C_14 
ROOT
HETATM    1  C   UNL     1      40.287 -15.019   2.458  1.00  0.00    -0.040 A 
HETATM    2  C   UNL     1      40.862 -15.158   3.726  1.00  0.00     0.011 A 
HETATM    3  C   UNL     1      41.581 -16.311   4.064  1.00  0.00     0.030 A 
HETATM    4  C   UNL     1      41.740 -17.345   3.142  1.00  0.00     0.035 A 
HETATM    5  C   UNL     1      41.183 -17.197   1.865  1.00  0.00     0.030 A 
HETATM    6  C   UNL     1      40.467 -16.045   1.523  1.00  0.00     0.011 A 
ENDROOT
BRANCH   1   7
HETATM    7  C   UNL     1      39.517 -13.776   2.101  1.00  0.00     0.162 C 
BRANCH   7   8
HETATM    8  N   UNL     1      39.610 -13.497   0.687  1.00  0.00    -0.339 N 
HETATM    9  C   UNL     1      38.482 -13.634  -0.095  1.00  0.00     0.321 C 
HETATM   10  N   UNL     1      38.779 -13.385  -1.416  1.00  0.00    -0.307 N 
HETATM   11  O   UNL     1      37.384 -13.900   0.371  1.00  0.00    -0.247 OA
HETATM   12  H   UNL     1      39.508 -12.691  -1.515  1.00  0.00     0.170 HD
HETATM   13  H   UNL     1      40.479 -13.744   0.236  1.00  0.00     0.164 HD
BRANCH  10  14
HETATM   14  C   UNL     1      37.891 -13.513  -2.511  1.00  0.00     0.059 A 
HETATM   15  C   UNL     1      37.070 -12.500  -3.031  1.00  0.00    -0.032 A 
HETATM   16  C   UNL     1      36.948 -11.117  -2.459  1.00  0.00     0.050 C 
HETATM   17  C   UNL     1      36.279 -12.799  -4.155  1.00  0.00     0.028 A 
HETATM   18  C   UNL     1      36.279 -14.084  -4.673  1.00  0.00     0.117 A 
HETATM   19  N   UNL     1      37.001 -15.093  -4.154  1.00  0.00    -0.271 NA
HETATM   20  C   UNL     1      37.782 -14.782  -3.093  1.00  0.00     0.146 A 
ENDBRANCH  10  14
ENDBRANCH   7   8
ENDBRANCH   1   7
BRANCH   4  21
HETATM   21  N   UNL     1      42.438 -18.545   3.406  1.00  0.00    -0.323 N 
HETATM   22  C   UNL     1      43.624 -18.969   2.832  1.00  0.00     0.257 C 
HETATM   23  O   UNL     1      44.300 -18.349   2.019  1.00  0.00    -0.267 OA
HETATM   24  H   UNL     1      42.043 -19.115   4.140  1.00  0.00     0.169 HD
BRANCH  22  25
HETATM   25  C   UNL     1      44.121 -20.298   3.276  1.00  0.00     0.049 A 
HETATM   26  C   UNL     1      44.110 -21.349   2.364  1.00  0.00     0.133 A 
HETATM   27  N   UNL     1      44.535 -22.607   2.648  1.00  0.00    -0.272 NA
HETATM   28  C   UNL     1      44.977 -22.831   3.902  1.00  0.00     0.116 A 
HETATM   29  C   UNL     1      45.014 -21.857   4.888  1.00  0.00     0.020 A 
HETATM   30  C   UNL     1      44.573 -20.571   4.571  1.00  0.00     0.020 A 
ENDBRANCH  22  25
ENDBRANCH   4  21
TORSDOF 5
ENDMDL
MODEL 6
REMARK VINA RESULT:      -7.6      5.798      8.522
REMARK  5 active torsions:
REMARK  status: ('A' for Active; 'I' for Inactive)
REMARK    1  A    between atoms: C_3  and  N_4 
REMARK       I    between atoms: N_4  and  C_5 
REMARK       I    between atoms: C_5  and  N_6 
REMARK    2  A    between atoms: N_6  and  C_7 
REMARK    3  A    between atoms: C_7  and  C_8 
REMARK    4  A    between atoms: C_11  and  N_12 
REMARK       I    between atoms: N_12  and  C_13 
REMARK    5  A    between atoms: C_13  and  C_14 
ROOT
HETATM    1  C   UNL     1      41.636 -13.737   2.809  1.00  0.00    -0.040 A 
HETATM    2  C   UNL     1      40.820 -14.792   2.385  1.00  0.00     0.011 A 
HETATM    3  C   UNL     1      41.217 -16.122   2.565  1.00  0.00     0.030 A 
HETATM    4  C   UNL     1      42.435 -16.425   3.174  1.00  0.00     0.035 A 
HETATM    5  C   UNL     1      43.242 -15.369   3.618  1.00  0.00     0.030 A 
HETATM    6  C   UNL     1      42.847 -14.039   3.443  1.00  0.00     0.011 A 
ENDROOT
BRANCH   1   7
HETATM    7  C   UNL     1      41.202 -12.310   2.613  1.00  0.00     0.162 C 
BRANCH   7   8
HETATM    8  N   UNL     1      40.679 -12.105   1.282  1.00  0.00    -0.339 N 
HETATM    9  C   UNL     1      41.555 -11.789   0.264  1.00  0.00     0.321 C 
HETATM   10  N   UNL     1      40.869 -11.574  -0.910  1.00  0.00    -0.307 N 
HETATM   11  O   UNL     1      42.767 -11.759   0.421  1.00  0.00    -0.247 OA
HETATM   12  H   UNL     1      40.041 -12.151  -0.976  1.00  0.00     0.170 HD
HETATM   13  H   UNL     1      39.771 -11.671   1.218  1.00  0.00     0.164 HD
BRANCH  10  14
HETATM   14  C   UNL     1      41.430 -11.151  -2.139  1.00  0.00     0.059 A 
HETATM   15  C   UNL     1      41.821 -11.983  -3.200  1.00  0.00    -0.032 A 
HETATM   16  C   UNL     1      41.770 -13.483  -3.174  1.00  0.00     0.050 C 
HETATM   17  C   UNL     1      42.322 -11.380  -4.367  1.00  0.00     0.028 A 
HETATM   18  C   UNL     1      42.478 -10.004  -4.417  1.00  0.00     0.117 A 
HETATM   19  N   UNL     1      42.178  -9.186  -3.392  1.00  0.00    -0.271 NA
HETATM   20  C   UNL     1      41.667  -9.778  -2.288  1.00  0.00     0.146 A 
ENDBRANCH  10  14
ENDBRANCH   7   8
ENDBRANCH   1   7
BRANCH   4  21
HETATM   21  N   UNL     1      42.916 -17.737   3.381  1.00  0.00    -0.323 N 
HETATM   22  C   UNL     1      43.796 -18.444   2.580  1.00  0.00     0.257 C 
HETATM   23  O   UNL     1      44.345 -18.031   1.565  1.00  0.00    -0.267 OA
HETATM   24  H   UNL     1      42.621 -18.167   4.245  1.00  0.00     0.169 HD
BRANCH  22  25
HETATM   25  C   UNL     1      44.110 -19.828   3.024  1.00  0.00     0.049 A 
HETATM   26  C   UNL     1      44.515 -20.025   4.340  1.00  0.00     0.133 A 
HETATM   27  N   UNL     1      44.830 -21.237   4.865  1.00  0.00    -0.272 NA
HETATM   28  C   UNL     1      44.754 -22.297   4.035  1.00  0.00     0.116 A 
HETATM   29  C   UNL     1      44.378 -22.205   2.705  1.00  0.00     0.020 A 
HETATM   30  C   UNL     1      44.055 -20.948   2.189  1.00  0.00     0.020 A 
ENDBRANCH  22  25
ENDBRANCH   4  21
TORSDOF 5
ENDMDL
MODEL 7
REMARK VINA RESULT:      -7.4      2.102     10.311
REMARK  5 active torsions:
REMARK  status: ('A' for Active; 'I' for Inactive)
REMARK    1  A    between atoms: C_3  and  N_4 
REMARK       I    between atoms: N_4  and  C_5 
REMARK       I    between atoms: C_5  and  N_6 
REMARK    2  A    between atoms: N_6  and  C_7 
REMARK    3  A    between atoms: C_7  and  C_8 
REMARK    4  A    between atoms: C_11  and  N_12 
REMARK       I    between atoms: N_12  and  C_13 
REMARK    5  A    between atoms: C_13  and  C_14 
ROOT
HETATM    1  C   UNL     1      41.541 -14.596   3.517  1.00  0.00    -0.040 A 
HETATM    2  C   UNL     1      42.321 -13.444   3.667  1.00  0.00     0.011 A 
HETATM    3  C   UNL     1      42.174 -12.621   4.791  1.00  0.00     0.030 A 
HETATM    4  C   UNL     1      41.248 -12.935   5.786  1.00  0.00     0.035 A 
HETATM    5  C   UNL     1      40.483 -14.101   5.646  1.00  0.00     0.030 A 
HETATM    6  C   UNL     1      40.630 -14.926   4.526  1.00  0.00     0.011 A 
ENDROOT
BRANCH   1   7
HETATM    7  C   UNL     1      41.706 -15.476   2.307  1.00  0.00     0.162 C 
BRANCH   7   8
HETATM    8  N   UNL     1      42.890 -16.296   2.420  1.00  0.00    -0.339 N 
HETATM    9  C   UNL     1      42.763 -17.589   2.886  1.00  0.00     0.321 C 
HETATM   10  N   UNL     1      43.998 -18.189   2.979  1.00  0.00    -0.307 N 
HETATM   11  O   UNL     1      41.679 -18.100   3.127  1.00  0.00    -0.247 OA
HETATM   12  H   UNL     1      44.635 -17.858   2.266  1.00  0.00     0.170 HD
HETATM   13  H   UNL     1      43.740 -15.823   2.688  1.00  0.00     0.164 HD
BRANCH  10  14
HETATM   14  C   UNL     1      44.263 -19.480   3.497  1.00  0.00     0.059 A 
HETATM   15  C   UNL     1      44.605 -19.784   4.823  1.00  0.00    -0.032 A 
HETATM   16  C   UNL     1      44.817 -18.768   5.908  1.00  0.00     0.050 C 
HETATM   17  C   UNL     1      44.791 -21.135   5.168  1.00  0.00     0.028 A 
HETATM   18  C   UNL     1      44.698 -22.112   4.189  1.00  0.00     0.117 A 
HETATM   19  N   UNL     1      44.441 -21.846   2.896  1.00  0.00    -0.271 NA
HETATM   20  C   UNL     1      44.232 -20.544   2.587  1.00  0.00     0.146 A 
ENDBRANCH  10  14
ENDBRANCH   7   8
ENDBRANCH   1   7
BRANCH   4  21
HETATM   21  N   UNL     1      41.028 -12.154   6.942  1.00  0.00    -0.323 N 
HETATM   22  C   UNL     1      40.006 -11.245   7.158  1.00  0.00     0.257 C 
HETATM   23  O   UNL     1      39.085 -10.992   6.390  1.00  0.00    -0.267 OA
HETATM   24  H   UNL     1      41.661 -12.336   7.707  1.00  0.00     0.169 HD
BRANCH  22  25
HETATM   25  C   UNL     1      40.034 -10.535   8.464  1.00  0.00     0.049 A 
HETATM   26  C   UNL     1      38.832 -10.339   9.137  1.00  0.00     0.133 A 
HETATM   27  N   UNL     1      38.726  -9.706  10.334  1.00  0.00    -0.272 NA
HETATM   28  C   UNL     1      39.866  -9.232  10.875  1.00  0.00     0.116 A 
HETATM   29  C   UNL     1      41.110  -9.361  10.277  1.00  0.00     0.020 A 
HETATM   30  C   UNL     1      41.194 -10.018   9.048  1.00  0.00     0.020 A 
ENDBRANCH  22  25
ENDBRANCH   4  21
TORSDOF 5
ENDMDL
MODEL 8
REMARK VINA RESULT:      -7.4      1.819     10.082
REMARK  5 active torsions:
REMARK  status: ('A' for Active; 'I' for Inactive)
REMARK    1  A    between atoms: C_3  and  N_4 
REMARK       I    between atoms: N_4  and  C_5 
REMARK       I    between atoms: C_5  and  N_6 
REMARK    2  A    between atoms: N_6  and  C_7 
REMARK    3  A    between atoms: C_7  and  C_8 
REMARK    4  A    between atoms: C_11  and  N_12 
REMARK       I    between atoms: N_12  and  C_13 
REMARK    5  A    between atoms: C_13  and  C_14 
ROOT
HETATM    1  C   UNL     1      40.022 -12.613   4.931  1.00  0.00    -0.040 A 
HETATM    2  C   UNL     1      41.152 -11.789   4.973  1.00  0.00     0.011 A 
HETATM    3  C   UNL     1      41.535 -11.158   6.162  1.00  0.00     0.030 A 
HETATM    4  C   UNL     1      40.797 -11.338   7.332  1.00  0.00     0.035 A 
HETATM    5  C   UNL     1      39.678 -12.180   7.296  1.00  0.00     0.030 A 
HETATM    6  C   UNL     1      39.295 -12.815   6.109  1.00  0.00     0.011 A 
ENDROOT
BRANCH   1   7
HETATM    7  C   UNL     1      39.617 -13.289   3.649  1.00  0.00     0.162 C 
BRANCH   7   8
HETATM    8  N   UNL     1      39.735 -14.725   3.761  1.00  0.00    -0.339 N 
HETATM    9  C   UNL     1      40.964 -15.311   3.537  1.00  0.00     0.321 C 
HETATM   10  N   UNL     1      40.865 -16.681   3.629  1.00  0.00    -0.307 N 
HETATM   11  O   UNL     1      41.978 -14.661   3.332  1.00  0.00    -0.247 OA
HETATM   12  H   UNL     1      40.168 -16.967   4.304  1.00  0.00     0.170 HD
HETATM   13  H   UNL     1      38.938 -15.266   3.459  1.00  0.00     0.164 HD
BRANCH  10  14
HETATM   14  C   UNL     1      41.903 -17.612   3.378  1.00  0.00     0.059 A 
HETATM   15  C   UNL     1      42.709 -18.230   4.345  1.00  0.00    -0.032 A 
HETATM   16  C   UNL     1      42.649 -17.949   5.819  1.00  0.00     0.050 C 
HETATM   17  C   UNL     1      43.667 -19.165   3.912  1.00  0.00     0.028 A 
HETATM   18  C   UNL     1      43.833 -19.400   2.556  1.00  0.00     0.117 A 
HETATM   19  N   UNL     1      43.124 -18.771   1.602  1.00  0.00    -0.271 NA
HETATM   20  C   UNL     1      42.184 -17.899   2.036  1.00  0.00     0.146 A 
ENDBRANCH  10  14
ENDBRANCH   7   8
ENDBRANCH   1   7
BRANCH   4  21
HETATM   21  N   UNL     1      41.106 -10.729   8.569  1.00  0.00    -0.323 N 
HETATM   22  C   UNL     1      42.357 -10.587   9.145  1.00  0.00     0.257 C 
HETATM   23  O   UNL     1      43.426 -10.933   8.654  1.00  0.00    -0.267 OA
HETATM   24  H   UNL     1      40.323 -10.303   9.042  1.00  0.00     0.169 HD
BRANCH  22  25
HETATM   25  C   UNL     1      42.388  -9.928  10.477  1.00  0.00     0.049 A 
HETATM   26  C   UNL     1      41.447  -8.940  10.749  1.00  0.00     0.133 A 
HETATM   27  N   UNL     1      41.372  -8.264  11.924  1.00  0.00    -0.272 NA
HETATM   28  C   UNL     1      42.287  -8.576  12.865  1.00  0.00     0.116 A 
HETATM   29  C   UNL     1      43.274  -9.532  12.686  1.00  0.00     0.020 A 
HETATM   30  C   UNL     1      43.329 -10.216  11.470  1.00  0.00     0.020 A 
ENDBRANCH  22  25
ENDBRANCH   4  21
TORSDOF 5
ENDMDL
MODEL 9
REMARK VINA RESULT:      -7.3      2.886     10.456
REMARK  5 active torsions:
REMARK  status: ('A' for Active; 'I' for Inactive)
REMARK    1  A    between atoms: C_3  and  N_4 
REMARK       I    between atoms: N_4  and  C_5 
REMARK       I    between atoms: C_5  and  N_6 
REMARK    2  A    between atoms: N_6  and  C_7 
REMARK    3  A    between atoms: C_7  and  C_8 
REMARK    4  A    between atoms: C_11  and  N_12 
REMARK       I    between atoms: N_12  and  C_13 
REMARK    5  A    between atoms: C_13  and  C_14 
ROOT
HETATM    1  C   UNL     1      42.315 -15.211   1.976  1.00  0.00    -0.040 A 
HETATM    2  C   UNL     1      43.386 -14.845   2.799  1.00  0.00     0.011 A 
HETATM    3  C   UNL     1      43.256 -13.798   3.719  1.00  0.00     0.030 A 
HETATM    4  C   UNL     1      42.056 -13.098   3.837  1.00  0.00     0.035 A 
HETATM    5  C   UNL     1      40.977 -13.479   3.027  1.00  0.00     0.030 A 
HETATM    6  C   UNL     1      41.102 -14.527   2.109  1.00  0.00     0.011 A 
ENDROOT
BRANCH   1   7
HETATM    7  C   UNL     1      42.461 -16.339   0.990  1.00  0.00     0.162 C 
BRANCH   7   8
HETATM    8  N   UNL     1      43.546 -17.216   1.363  1.00  0.00    -0.339 N 
HETATM    9  C   UNL     1      43.261 -18.365   2.071  1.00  0.00     0.321 C 
HETATM   10  N   UNL     1      44.421 -19.037   2.385  1.00  0.00    -0.307 N 
HETATM   11  O   UNL     1      42.118 -18.718   2.324  1.00  0.00    -0.247 OA
HETATM   12  H   UNL     1      45.130 -18.921   1.673  1.00  0.00     0.170 HD
HETATM   13  H   UNL     1      44.422 -16.773   1.596  1.00  0.00     0.164 HD
BRANCH  10  14
HETATM   14  C   UNL     1      44.520 -20.207   3.175  1.00  0.00     0.059 A 
HETATM   15  C   UNL     1      44.400 -21.527   2.714  1.00  0.00    -0.032 A 
HETATM   16  C   UNL     1      44.073 -21.915   1.301  1.00  0.00     0.050 C 
HETATM   17  C   UNL     1      44.571 -22.572   3.640  1.00  0.00     0.028 A 
HETATM   18  C   UNL     1      44.785 -22.276   4.977  1.00  0.00     0.117 A 
HETATM   19  N   UNL     1      44.835 -21.023   5.461  1.00  0.00    -0.271 NA
HETATM   20  C   UNL     1      44.701 -20.028   4.552  1.00  0.00     0.146 A 
ENDBRANCH  10  14
ENDBRANCH   7   8
ENDBRANCH   1   7
BRANCH   4  21
HETATM   21  N   UNL     1      41.846 -12.023   4.728  1.00  0.00    -0.323 N 
HETATM   22  C   UNL     1      41.070 -12.023   5.875  1.00  0.00     0.257 C 
HETATM   23  O   UNL     1      40.462 -12.981   6.340  1.00  0.00    -0.267 OA
HETATM   24  H   UNL     1      42.375 -11.188   4.522  1.00  0.00     0.169 HD
BRANCH  22  25
HETATM   25  C   UNL     1      41.003 -10.734   6.613  1.00  0.00     0.049 A 
HETATM   26  C   UNL     1      40.241  -9.702   6.075  1.00  0.00     0.133 A 
HETATM   27  N   UNL     1      40.101  -8.480   6.652  1.00  0.00    -0.272 NA
HETATM   28  C   UNL     1      40.764  -8.274   7.808  1.00  0.00     0.116 A 
HETATM   29  C   UNL     1      41.560  -9.231   8.417  1.00  0.00     0.020 A 
HETATM   30  C   UNL     1      41.686 -10.480   7.806  1.00  0.00     0.020 A 
ENDBRANCH  22  25
ENDBRANCH   4  21
TORSDOF 5
ENDMDL
MODEL 10
REMARK VINA RESULT:      -7.2      4.755      9.967
REMARK  5 active torsions:
REMARK  status: ('A' for Active; 'I' for Inactive)
REMARK    1  A    between atoms: C_3  and  N_4 
REMARK       I    between atoms: N_4  and  C_5 
REMARK       I    between atoms: C_5  and  N_6 
REMARK    2  A    between atoms: N_6  and  C_7 
REMARK    3  A    between atoms: C_7  and  C_8 
REMARK    4  A    between atoms: C_11  and  N_12 
REMARK       I    between atoms: N_12  and  C_13 
REMARK    5  A    between atoms: C_13  and  C_14 
ROOT
HETATM    1  C   UNL     1      41.441 -16.105   3.465  1.00  0.00    -0.040 A 
HETATM    2  C   UNL     1      40.727 -15.161   4.211  1.00  0.00     0.011 A 
HETATM    3  C   UNL     1      41.381 -14.332   5.131  1.00  0.00     0.030 A 
HETATM    4  C   UNL     1      42.759 -14.428   5.320  1.00  0.00     0.035 A 
HETATM    5  C   UNL     1      43.477 -15.358   4.557  1.00  0.00     0.030 A 
HETATM    6  C   UNL     1      42.827 -16.186   3.636  1.00  0.00     0.011 A 
ENDROOT
BRANCH   1   7
HETATM    7  C   UNL     1      40.731 -16.992   2.478  1.00  0.00     0.162 C 
BRANCH   7   8
HETATM    8  N   UNL     1      40.001 -16.209   1.508  1.00  0.00    -0.339 N 
HETATM    9  C   UNL     1      40.693 -15.621   0.470  1.00  0.00     0.321 C 
HETATM   10  N   UNL     1      39.843 -14.871  -0.311  1.00  0.00    -0.307 N 
HETATM   11  O   UNL     1      41.888 -15.804   0.285  1.00  0.00    -0.247 OA
HETATM   12  H   UNL     1      38.913 -15.268  -0.346  1.00  0.00     0.170 HD
HETATM   13  H   UNL     1      39.217 -15.678   1.858  1.00  0.00     0.164 HD
BRANCH  10  14
HETATM   14  C   UNL     1      40.214 -14.063  -1.412  1.00  0.00     0.059 A 
HETATM   15  C   UNL     1      40.445 -14.507  -2.723  1.00  0.00    -0.032 A 
HETATM   16  C   UNL     1      40.401 -15.942  -3.161  1.00  0.00     0.050 C 
HETATM   17  C   UNL     1      40.766 -13.549  -3.702  1.00  0.00     0.028 A 
HETATM   18  C   UNL     1      40.911 -12.219  -3.340  1.00  0.00     0.117 A 
HETATM   19  N   UNL     1      40.766 -11.773  -2.079  1.00  0.00    -0.271 NA
HETATM   20  C   UNL     1      40.424 -12.702  -1.155  1.00  0.00     0.146 A 
ENDBRANCH  10  14
ENDBRANCH   7   8
ENDBRANCH   1   7
BRANCH   4  21
HETATM   21  N   UNL     1      43.493 -13.640   6.235  1.00  0.00    -0.323 N 
HETATM   22  C   UNL     1      44.168 -14.075   7.363  1.00  0.00     0.257 C 
HETATM   23  O   UNL     1      44.280 -15.236   7.740  1.00  0.00    -0.267 OA
HETATM   24  H   UNL     1      43.572 -12.664   5.990  1.00  0.00     0.169 HD
BRANCH  22  25
HETATM   25  C   UNL     1      44.836 -13.018   8.168  1.00  0.00     0.049 A 
HETATM   26  C   UNL     1      44.158 -12.492   9.263  1.00  0.00     0.133 A 
HETATM   27  N   UNL     1      44.659 -11.524  10.073  1.00  0.00    -0.272 NA
HETATM   28  C   UNL     1      45.883 -11.048   9.768  1.00  0.00     0.116 A 
HETATM   29  C   UNL     1      46.631 -11.493   8.690  1.00  0.00     0.020 A 
HETATM   30  C   UNL     1      46.097 -12.491   7.873  1.00  0.00     0.020 A 
ENDBRANCH  22  25
ENDBRANCH   4  21
TORSDOF 5
ENDMDL
