MODEL 1
REMARK VINA RESULT:      -9.4      0.000      0.000
REMARK  6 active torsions:
REMARK  status: ('A' for Active; 'I' for Inactive)
REMARK    1  A    between atoms: C_2  and  N_3 
REMARK    2  A    between atoms: C_11  and  C_12 
REMARK    3  A    between atoms: C_14  and  C_15 
REMARK    4  A    between atoms: C_15  and  O_16 
REMARK    5  A    between atoms: O_16  and  C_17 
REMARK    6  A    between atoms: C_25  and  O_26 
ROOT
HETATM    1  N   UNL     1      43.999 -19.840   4.382  1.00  0.00    -0.067 N 
HETATM    2  H   UNL     1      43.091 -20.323   4.405  1.00  0.00     0.280 HD
HETATM    3  C   UNL     1      44.028 -18.938   5.618  1.00  0.00     0.281 C 
HETATM    4  C   UNL     1      43.041 -17.830   5.476  1.00  0.00     0.018 A 
HETATM    5  C   UNL     1      42.435 -17.449   4.294  1.00  0.00    -0.023 A 
HETATM    6  C   UNL     1      41.497 -16.389   4.510  1.00  0.00     0.073 A 
HETATM    7  C   UNL     1      41.471 -15.990   5.825  1.00  0.00     0.088 A 
HETATM    8  N   UNL     1      40.668 -15.017   6.291  1.00  0.00    -0.358 N 
HETATM    9  C   UNL     1      39.878 -14.207   5.394  1.00  0.00     0.219 C 
HETATM   10  N   UNL     1      39.799 -14.775   4.070  1.00  0.00    -0.332 N 
HETATM   11  C   UNL     1      40.614 -15.743   3.560  1.00  0.00     0.256 C 
HETATM   12  O   UNL     1      40.581 -16.055   2.374  1.00  0.00    -0.267 OA
HETATM   13  S   UNL     1      42.552 -16.875   6.796  1.00  0.00    -0.074 SA
HETATM   14  C   UNL     1      42.734 -18.144   2.999  1.00  0.00     0.068 C 
HETATM   15  C   UNL     1      44.006 -19.004   3.098  1.00  0.00     0.240 C 
HETATM   16  H   UNL     1      40.802 -14.634   7.223  1.00  0.00     0.162 HD
HETATM   17  H   UNL     1      39.217 -14.306   3.394  1.00  0.00     0.165 HD
ENDROOT
BRANCH   9  18
HETATM   18  C   UNL     1      40.389 -12.780   5.373  1.00  0.00    -0.016 A 
HETATM   19  C   UNL     1      40.629 -12.103   6.581  1.00  0.00     0.023 A 
HETATM   20  C   UNL     1      41.087 -10.770   6.600  1.00  0.00    -0.000 A 
HETATM   21  C   UNL     1      41.316 -10.102   5.385  1.00  0.00     0.076 A 
HETATM   22  C   UNL     1      41.106 -10.779   4.181  1.00  0.00     0.038 A 
HETATM   23  C   UNL     1      40.652 -12.103   4.175  1.00  0.00     0.014 A 
BRANCH  20  24
HETATM   24  C   UNL     1      41.326 -10.096   7.936  1.00  0.00     0.217 C 
BRANCH  24  25
HETATM   25  O   UNL     1      42.608 -10.502   8.418  1.00  0.00    -0.347 OA
BRANCH  25  26
HETATM   26  C   UNL     1      42.770 -10.576   9.774  1.00  0.00     0.070 A 
HETATM   27  C   UNL     1      41.629 -10.985  10.473  1.00  0.00     0.063 A 
HETATM   28  C   UNL     1      41.659 -11.105  11.863  1.00  0.00     0.075 A 
HETATM   29 CL   UNL     1      40.244 -11.612  12.701  1.00  0.00    -0.081 Cl
HETATM   30  C   UNL     1      42.831 -10.815  12.557  1.00  0.00     0.138 A 
HETATM   31  F   UNL     1      42.885 -10.924  13.891  1.00  0.00    -0.204 F 
HETATM   32  C   UNL     1      43.970 -10.402  11.872  1.00  0.00     0.047 A 
HETATM   33  C   UNL     1      43.939 -10.279  10.480  1.00  0.00     0.040 A 
ENDBRANCH  25  26
ENDBRANCH  24  25
ENDBRANCH  20  24
BRANCH  21  34
HETATM   34  O   UNL     1      41.748  -8.807   5.482  1.00  0.00    -0.355 OA
HETATM   35  C   UNL     1      40.899  -7.786   4.971  1.00  0.00     0.210 C 
ENDBRANCH  21  34
ENDBRANCH   9  18
BRANCH   1  36
HETATM   36  C   UNL     1      45.084 -20.886   4.379  1.00  0.00     0.231 C 
HETATM   37  C   UNL     1      44.753 -22.011   5.342  1.00  0.00     0.034 C 
ENDBRANCH   1  36
TORSDOF 6
ENDMDL
MODEL 2
REMARK VINA RESULT:      -9.0      6.416      8.446
REMARK  6 active torsions:
REMARK  status: ('A' for Active; 'I' for Inactive)
REMARK    1  A    between atoms: C_2  and  N_3 
REMARK    2  A    between atoms: C_11  and  C_12 
REMARK    3  A    between atoms: C_14  and  C_15 
REMARK    4  A    between atoms: C_15  and  O_16 
REMARK    5  A    between atoms: O_16  and  C_17 
REMARK    6  A    between atoms: C_25  and  O_26 
ROOT
HETATM    1  N   UNL     1      44.190 -20.073   4.330  1.00  0.00    -0.067 N 
HETATM    2  H   UNL     1      43.330 -20.607   4.508  1.00  0.00     0.280 HD
HETATM    3  C   UNL     1      44.046 -18.766   5.112  1.00  0.00     0.281 C 
HETATM    4  C   UNL     1      42.979 -17.916   4.511  1.00  0.00     0.018 A 
HETATM    5  C   UNL     1      42.434 -18.092   3.254  1.00  0.00    -0.023 A 
HETATM    6  C   UNL     1      41.392 -17.141   3.003  1.00  0.00     0.073 A 
HETATM    7  C   UNL     1      41.232 -16.270   4.054  1.00  0.00     0.088 A 
HETATM    8  N   UNL     1      40.313 -15.289   4.072  1.00  0.00    -0.358 N 
HETATM    9  C   UNL     1      39.525 -14.982   2.901  1.00  0.00     0.219 C 
HETATM   10  N   UNL     1      39.598 -16.022   1.904  1.00  0.00    -0.332 N 
HETATM   11  C   UNL     1      40.531 -17.016   1.845  1.00  0.00     0.256 C 
HETATM   12  O   UNL     1      40.616 -17.763   0.876  1.00  0.00    -0.267 OA
HETATM   13  S   UNL     1      42.308 -16.586   5.333  1.00  0.00    -0.074 SA
HETATM   14  C   UNL     1      42.890 -19.195   2.348  1.00  0.00     0.068 C 
HETATM   15  C   UNL     1      44.223 -19.804   2.822  1.00  0.00     0.240 C 
HETATM   16  H   UNL     1      40.341 -14.563   4.783  1.00  0.00     0.162 HD
HETATM   17  H   UNL     1      39.030 -15.919   1.078  1.00  0.00     0.165 HD
ENDROOT
BRANCH   9  18
HETATM   18  C   UNL     1      39.908 -13.626   2.341  1.00  0.00    -0.016 A 
HETATM   19  C   UNL     1      40.636 -13.543   1.142  1.00  0.00     0.023 A 
HETATM   20  C   UNL     1      41.025 -12.301   0.600  1.00  0.00    -0.000 A 
HETATM   21  C   UNL     1      40.672 -11.117   1.269  1.00  0.00     0.076 A 
HETATM   22  C   UNL     1      39.924 -11.191   2.447  1.00  0.00     0.038 A 
HETATM   23  C   UNL     1      39.543 -12.431   2.974  1.00  0.00     0.014 A 
BRANCH  20  24
HETATM   24  C   UNL     1      41.810 -12.279  -0.695  1.00  0.00     0.217 C 
BRANCH  24  25
HETATM   25  O   UNL     1      40.882 -12.194  -1.778  1.00  0.00    -0.347 OA
BRANCH  25  26
HETATM   26  C   UNL     1      40.507 -13.368  -2.373  1.00  0.00     0.070 A 
HETATM   27  C   UNL     1      39.200 -13.375  -2.871  1.00  0.00     0.063 A 
HETATM   28  C   UNL     1      38.694 -14.511  -3.504  1.00  0.00     0.075 A 
HETATM   29 CL   UNL     1      37.083 -14.495  -4.111  1.00  0.00    -0.081 Cl
HETATM   30  C   UNL     1      39.493 -15.642  -3.638  1.00  0.00     0.138 A 
HETATM   31  F   UNL     1      39.030 -16.745  -4.243  1.00  0.00    -0.204 F 
HETATM   32  C   UNL     1      40.793 -15.648  -3.141  1.00  0.00     0.047 A 
HETATM   33  C   UNL     1      41.301 -14.511  -2.504  1.00  0.00     0.040 A 
ENDBRANCH  25  26
ENDBRANCH  24  25
ENDBRANCH  20  24
BRANCH  21  34
HETATM   34  O   UNL     1      41.095  -9.950   0.692  1.00  0.00    -0.355 OA
HETATM   35  C   UNL     1      40.103  -9.039   0.234  1.00  0.00     0.210 C 
ENDBRANCH  21  34
ENDBRANCH   9  18
BRANCH   1  36
HETATM   36  C   UNL     1      45.361 -20.912   4.776  1.00  0.00     0.231 C 
HETATM   37  C   UNL     1      44.962 -22.371   4.905  1.00  0.00     0.034 C 
ENDBRANCH   1  36
TORSDOF 6
ENDMDL
MODEL 3
REMARK VINA RESULT:      -8.8      4.295      9.059
REMARK  6 active torsions:
REMARK  status: ('A' for Active; 'I' for Inactive)
REMARK    1  A    between atoms: C_2  and  N_3 
REMARK    2  A    between atoms: C_11  and  C_12 
REMARK    3  A    between atoms: C_14  and  C_15 
REMARK    4  A    between atoms: C_15  and  O_16 
REMARK    5  A    between atoms: O_16  and  C_17 
REMARK    6  A    between atoms: C_25  and  O_26 
ROOT
HETATM    1  N   UNL     1      41.957  -9.930  13.420  1.00  0.00    -0.067 N 
HETATM    2  H   UNL     1      41.759  -8.966  13.123  1.00  0.00     0.280 HD
HETATM    3  C   UNL     1      43.025 -10.457  12.460  1.00  0.00     0.281 C 
HETATM    4  C   UNL     1      42.456 -10.625  11.092  1.00  0.00     0.018 A 
HETATM    5  C   UNL     1      41.109 -10.645  10.786  1.00  0.00    -0.023 A 
HETATM    6  C   UNL     1      40.899 -10.766   9.375  1.00  0.00     0.073 A 
HETATM    7  C   UNL     1      42.085 -10.878   8.690  1.00  0.00     0.088 A 
HETATM    8  N   UNL     1      42.163 -10.994   7.353  1.00  0.00    -0.358 N 
HETATM    9  C   UNL     1      40.977 -11.169   6.547  1.00  0.00     0.219 C 
HETATM   10  N   UNL     1      39.770 -10.865   7.278  1.00  0.00    -0.332 N 
HETATM   11  C   UNL     1      39.654 -10.765   8.634  1.00  0.00     0.256 C 
HETATM   12  O   UNL     1      38.561 -10.661   9.181  1.00  0.00    -0.267 OA
HETATM   13  S   UNL     1      43.439 -10.833   9.719  1.00  0.00    -0.074 SA
HETATM   14  C   UNL     1      40.060 -10.496  11.848  1.00  0.00     0.068 C 
HETATM   15  C   UNL     1      40.646 -10.706  13.256  1.00  0.00     0.240 C 
HETATM   16  H   UNL     1      43.038 -11.249   6.903  1.00  0.00     0.162 HD
HETATM   17  H   UNL     1      38.898 -10.902   6.775  1.00  0.00     0.165 HD
ENDROOT
BRANCH   9  18
HETATM   18  C   UNL     1      40.943 -12.559   5.943  1.00  0.00    -0.016 A 
HETATM   19  C   UNL     1      42.142 -13.256   5.718  1.00  0.00     0.023 A 
HETATM   20  C   UNL     1      42.150 -14.542   5.141  1.00  0.00    -0.000 A 
HETATM   21  C   UNL     1      40.931 -15.147   4.788  1.00  0.00     0.076 A 
HETATM   22  C   UNL     1      39.733 -14.471   5.035  1.00  0.00     0.038 A 
HETATM   23  C   UNL     1      39.739 -13.194   5.609  1.00  0.00     0.014 A 
BRANCH  20  24
HETATM   24  C   UNL     1      43.476 -15.241   4.924  1.00  0.00     0.217 C 
BRANCH  24  25
HETATM   25  O   UNL     1      43.936 -15.729   6.186  1.00  0.00    -0.347 OA
BRANCH  25  26
HETATM   26  C   UNL     1      43.917 -17.083   6.376  1.00  0.00     0.070 A 
HETATM   27  C   UNL     1      44.118 -17.835   5.214  1.00  0.00     0.063 A 
HETATM   28  C   UNL     1      44.125 -19.229   5.269  1.00  0.00     0.075 A 
HETATM   29 CL   UNL     1      44.375 -20.133   3.826  1.00  0.00    -0.081 Cl
HETATM   30  C   UNL     1      43.929 -19.874   6.487  1.00  0.00     0.138 A 
HETATM   31  F   UNL     1      43.933 -21.212   6.566  1.00  0.00    -0.204 F 
HETATM   32  C   UNL     1      43.724 -19.136   7.648  1.00  0.00     0.047 A 
HETATM   33  C   UNL     1      43.714 -17.738   7.594  1.00  0.00     0.040 A 
ENDBRANCH  25  26
ENDBRANCH  24  25
ENDBRANCH  20  24
BRANCH  21  34
HETATM   34  O   UNL     1      41.017 -16.390   4.222  1.00  0.00    -0.355 OA
HETATM   35  C   UNL     1      40.998 -16.474   2.802  1.00  0.00     0.210 C 
ENDBRANCH  21  34
ENDBRANCH   9  18
BRANCH   1  36
HETATM   36  C   UNL     1      42.411  -9.891  14.858  1.00  0.00     0.231 C 
HETATM   37  C   UNL     1      41.335  -9.297  15.749  1.00  0.00     0.034 C 
ENDBRANCH   1  36
TORSDOF 6
ENDMDL
MODEL 4
REMARK VINA RESULT:      -8.6      6.133      8.652
REMARK  6 active torsions:
REMARK  status: ('A' for Active; 'I' for Inactive)
REMARK    1  A    between atoms: C_2  and  N_3 
REMARK    2  A    between atoms: C_11  and  C_12 
REMARK    3  A    between atoms: C_14  and  C_15 
REMARK    4  A    between atoms: C_15  and  O_16 
REMARK    5  A    between atoms: O_16  and  C_17 
REMARK    6  A    between atoms: C_25  and  O_26 
ROOT
HETATM    1  N   UNL     1      44.668 -20.398   4.668  1.00  0.00    -0.067 N 
HETATM    2  H   UNL     1      45.602 -19.988   4.802  1.00  0.00     0.280 HD
HETATM    3  C   UNL     1      44.168 -19.873   3.320  1.00  0.00     0.281 C 
HETATM    4  C   UNL     1      43.896 -18.410   3.400  1.00  0.00     0.018 A 
HETATM    5  C   UNL     1      43.772 -17.685   4.571  1.00  0.00    -0.023 A 
HETATM    6  C   UNL     1      43.569 -16.294   4.300  1.00  0.00     0.073 A 
HETATM    7  C   UNL     1      43.504 -16.040   2.951  1.00  0.00     0.088 A 
HETATM    8  N   UNL     1      43.328 -14.811   2.433  1.00  0.00    -0.358 N 
HETATM    9  C   UNL     1      43.036 -13.679   3.281  1.00  0.00     0.219 C 
HETATM   10  N   UNL     1      43.294 -13.956   4.673  1.00  0.00    -0.332 N 
HETATM   11  C   UNL     1      43.452 -15.191   5.232  1.00  0.00     0.256 C 
HETATM   12  O   UNL     1      43.508 -15.346   6.447  1.00  0.00    -0.267 OA
HETATM   13  S   UNL     1      43.688 -17.447   2.013  1.00  0.00    -0.074 SA
HETATM   14  C   UNL     1      43.902 -18.337   5.915  1.00  0.00     0.068 C 
HETATM   15  C   UNL     1      43.800 -19.870   5.813  1.00  0.00     0.240 C 
HETATM   16  H   UNL     1      43.111 -14.688   1.448  1.00  0.00     0.162 HD
HETATM   17  H   UNL     1      43.175 -13.201   5.330  1.00  0.00     0.165 HD
ENDROOT
BRANCH   9  18
HETATM   18  C   UNL     1      41.619 -13.191   3.049  1.00  0.00    -0.016 A 
HETATM   19  C   UNL     1      41.075 -13.206   1.754  1.00  0.00     0.023 A 
HETATM   20  C   UNL     1      39.768 -12.743   1.498  1.00  0.00    -0.000 A 
HETATM   21  C   UNL     1      38.987 -12.262   2.563  1.00  0.00     0.076 A 
HETATM   22  C   UNL     1      39.512 -12.270   3.857  1.00  0.00     0.038 A 
HETATM   23  C   UNL     1      40.811 -12.732   4.098  1.00  0.00     0.014 A 
BRANCH  20  24
HETATM   24  C   UNL     1      39.239 -12.785   0.079  1.00  0.00     0.217 C 
BRANCH  24  25
HETATM   25  O   UNL     1      40.320 -13.131  -0.790  1.00  0.00    -0.347 OA
BRANCH  25  26
HETATM   26  C   UNL     1      40.058 -14.037  -1.780  1.00  0.00     0.070 A 
HETATM   27  C   UNL     1      38.791 -13.914  -2.360  1.00  0.00     0.063 A 
HETATM   28  C   UNL     1      38.399 -14.776  -3.385  1.00  0.00     0.075 A 
HETATM   29 CL   UNL     1      36.835 -14.604  -4.083  1.00  0.00    -0.081 Cl
HETATM   30  C   UNL     1      39.272 -15.763  -3.831  1.00  0.00     0.138 A 
HETATM   31  F   UNL     1      38.919 -16.602  -4.815  1.00  0.00    -0.204 F 
HETATM   32  C   UNL     1      40.533 -15.898  -3.258  1.00  0.00     0.047 A 
HETATM   33  C   UNL     1      40.927 -15.036  -2.229  1.00  0.00     0.040 A 
ENDBRANCH  25  26
ENDBRANCH  24  25
ENDBRANCH  20  24
BRANCH  21  34
HETATM   34  O   UNL     1      37.734 -11.818   2.238  1.00  0.00    -0.355 OA
HETATM   35  C   UNL     1      37.473 -10.424   2.353  1.00  0.00     0.210 C 
ENDBRANCH  21  34
ENDBRANCH   9  18
BRANCH   1  36
HETATM   36  C   UNL     1      44.806 -21.899   4.712  1.00  0.00     0.231 C 
HETATM   37  C   UNL     1      44.611 -22.500   3.332  1.00  0.00     0.034 C 
ENDBRANCH   1  36
TORSDOF 6
ENDMDL
MODEL 5
REMARK VINA RESULT:      -8.6      2.399      3.035
REMARK  6 active torsions:
REMARK  status: ('A' for Active; 'I' for Inactive)
REMARK    1  A    between atoms: C_2  and  N_3 
REMARK    2  A    between atoms: C_11  and  C_12 
REMARK    3  A    between atoms: C_14  and  C_15 
REMARK    4  A    between atoms: C_15  and  O_16 
REMARK    5  A    between atoms: O_16  and  C_17 
REMARK    6  A    between atoms: C_25  and  O_26 
ROOT
HETATM    1  N   UNL     1      44.637 -20.564   4.572  1.00  0.00    -0.067 N 
HETATM    2  H   UNL     1      45.611 -20.242   4.652  1.00  0.00     0.280 HD
HETATM    3  C   UNL     1      44.033 -19.792   3.397  1.00  0.00     0.281 C 
HETATM    4  C   UNL     1      43.894 -18.348   3.740  1.00  0.00     0.018 A 
HETATM    5  C   UNL     1      43.964 -17.822   5.016  1.00  0.00    -0.023 A 
HETATM    6  C   UNL     1      43.848 -16.394   4.996  1.00  0.00     0.073 A 
HETATM    7  C   UNL     1      43.651 -15.916   3.722  1.00  0.00     0.088 A 
HETATM    8  N   UNL     1      43.521 -14.610   3.431  1.00  0.00    -0.358 N 
HETATM    9  C   UNL     1      43.421 -13.618   4.475  1.00  0.00     0.219 C 
HETATM   10  N   UNL     1      43.811 -14.139   5.763  1.00  0.00    -0.332 N 
HETATM   11  C   UNL     1      43.928 -15.456   6.097  1.00  0.00     0.256 C 
HETATM   12  O   UNL     1      44.108 -15.815   7.256  1.00  0.00    -0.267 OA
HETATM   13  S   UNL     1      43.612 -17.157   2.559  1.00  0.00    -0.074 SA
HETATM   14  C   UNL     1      44.190 -18.695   6.214  1.00  0.00     0.068 C 
HETATM   15  C   UNL     1      43.950 -20.180   5.886  1.00  0.00     0.240 C 
HETATM   16  H   UNL     1      43.205 -14.311   2.512  1.00  0.00     0.162 HD
HETATM   17  H   UNL     1      43.829 -13.497   6.541  1.00  0.00     0.165 HD
ENDROOT
BRANCH   9  18
HETATM   18  C   UNL     1      42.032 -13.009   4.502  1.00  0.00    -0.016 A 
HETATM   19  C   UNL     1      41.507 -12.514   5.707  1.00  0.00     0.023 A 
HETATM   20  C   UNL     1      40.213 -11.958   5.774  1.00  0.00    -0.000 A 
HETATM   21  C   UNL     1      39.432 -11.890   4.607  1.00  0.00     0.076 A 
HETATM   22  C   UNL     1      39.959 -12.354   3.400  1.00  0.00     0.038 A 
HETATM   23  C   UNL     1      41.246 -12.904   3.347  1.00  0.00     0.014 A 
BRANCH  20  24
HETATM   24  C   UNL     1      39.703 -11.443   7.104  1.00  0.00     0.217 C 
BRANCH  24  25
HETATM   25  O   UNL     1      40.629 -10.469   7.590  1.00  0.00    -0.347 OA
BRANCH  25  26
HETATM   26  C   UNL     1      41.114 -10.647   8.857  1.00  0.00     0.070 A 
HETATM   27  C   UNL     1      42.509 -10.610   8.955  1.00  0.00     0.063 A 
HETATM   28  C   UNL     1      43.133 -10.776  10.193  1.00  0.00     0.075 A 
HETATM   29 CL   UNL     1      44.850 -10.725  10.289  1.00  0.00    -0.081 Cl
HETATM   30  C   UNL     1      42.362 -10.980  11.333  1.00  0.00     0.138 A 
HETATM   31  F   UNL     1      42.938 -11.140  12.533  1.00  0.00    -0.204 F 
HETATM   32  C   UNL     1      40.974 -11.024  11.246  1.00  0.00     0.047 A 
HETATM   33  C   UNL     1      40.348 -10.861  10.007  1.00  0.00     0.040 A 
ENDBRANCH  25  26
ENDBRANCH  24  25
ENDBRANCH  20  24
BRANCH  21  34
HETATM   34  O   UNL     1      38.182 -11.349   4.750  1.00  0.00    -0.355 OA
HETATM   35  C   UNL     1      37.932 -10.087   4.145  1.00  0.00     0.210 C 
ENDBRANCH  21  34
ENDBRANCH   9  18
BRANCH   1  36
HETATM   36  C   UNL     1      44.655 -22.057   4.362  1.00  0.00     0.231 C 
HETATM   37  C   UNL     1      44.509 -22.397   2.890  1.00  0.00     0.034 C 
ENDBRANCH   1  36
TORSDOF 6
ENDMDL
MODEL 6
REMARK VINA RESULT:      -8.5      4.522      6.584
REMARK  6 active torsions:
REMARK  status: ('A' for Active; 'I' for Inactive)
REMARK    1  A    between atoms: C_2  and  N_3 
REMARK    2  A    between atoms: C_11  and  C_12 
REMARK    3  A    between atoms: C_14  and  C_15 
REMARK    4  A    between atoms: C_15  and  O_16 
REMARK    5  A    between atoms: O_16  and  C_17 
REMARK    6  A    between atoms: C_25  and  O_26 
ROOT
HETATM    1  N   UNL     1      44.043 -20.068   4.763  1.00  0.00    -0.067 N 
HETATM    2  H   UNL     1      43.139 -20.559   4.773  1.00  0.00     0.280 HD
HETATM    3  C   UNL     1      44.010 -19.096   5.944  1.00  0.00     0.281 C 
HETATM    4  C   UNL     1      43.022 -18.009   5.695  1.00  0.00     0.018 A 
HETATM    5  C   UNL     1      42.466 -17.703   4.467  1.00  0.00    -0.023 A 
HETATM    6  C   UNL     1      41.511 -16.642   4.580  1.00  0.00     0.073 A 
HETATM    7  C   UNL     1      41.424 -16.168   5.867  1.00  0.00     0.088 A 
HETATM    8  N   UNL     1      40.593 -15.179   6.240  1.00  0.00    -0.358 N 
HETATM    9  C   UNL     1      39.837 -14.430   5.264  1.00  0.00     0.219 C 
HETATM   10  N   UNL     1      39.822 -15.074   3.972  1.00  0.00    -0.332 N 
HETATM   11  C   UNL     1      40.666 -16.062   3.556  1.00  0.00     0.256 C 
HETATM   12  O   UNL     1      40.689 -16.441   2.390  1.00  0.00    -0.267 OA
HETATM   13  S   UNL     1      42.466 -16.985   6.935  1.00  0.00    -0.074 SA
HETATM   14  C   UNL     1      42.828 -18.468   3.229  1.00  0.00     0.068 C 
HETATM   15  C   UNL     1      44.102 -19.308   3.434  1.00  0.00     0.240 C 
HETATM   16  H   UNL     1      40.682 -14.742   7.153  1.00  0.00     0.162 HD
HETATM   17  H   UNL     1      39.267 -14.651   3.245  1.00  0.00     0.165 HD
ENDROOT
BRANCH   9  18
HETATM   18  C   UNL     1      40.337 -13.001   5.183  1.00  0.00    -0.016 A 
HETATM   19  C   UNL     1      40.316 -12.319   3.955  1.00  0.00     0.023 A 
HETATM   20  C   UNL     1      40.789 -10.996   3.839  1.00  0.00    -0.000 A 
HETATM   21  C   UNL     1      41.288 -10.340   4.978  1.00  0.00     0.076 A 
HETATM   22  C   UNL     1      41.285 -11.003   6.207  1.00  0.00     0.038 A 
HETATM   23  C   UNL     1      40.812 -12.317   6.310  1.00  0.00     0.014 A 
BRANCH  20  24
HETATM   24  C   UNL     1      40.741 -10.315   2.487  1.00  0.00     0.217 C 
BRANCH  24  25
HETATM   25  O   UNL     1      40.197 -11.239   1.541  1.00  0.00    -0.347 OA
BRANCH  25  26
HETATM   26  C   UNL     1      41.008 -11.625   0.509  1.00  0.00     0.070 A 
HETATM   27  C   UNL     1      40.737 -12.901   0.004  1.00  0.00     0.063 A 
HETATM   28  C   UNL     1      41.490 -13.415  -1.053  1.00  0.00     0.075 A 
HETATM   29 CL   UNL     1      41.135 -14.986  -1.659  1.00  0.00    -0.081 Cl
HETATM   30  C   UNL     1      42.516 -12.654  -1.604  1.00  0.00     0.138 A 
HETATM   31  F   UNL     1      43.252 -13.125  -2.621  1.00  0.00    -0.204 F 
HETATM   32  C   UNL     1      42.798 -11.386  -1.106  1.00  0.00     0.047 A 
HETATM   33  C   UNL     1      42.046 -10.871  -0.045  1.00  0.00     0.040 A 
ENDBRANCH  25  26
ENDBRANCH  24  25
ENDBRANCH  20  24
BRANCH  21  34
HETATM   34  O   UNL     1      41.742  -9.063   4.787  1.00  0.00    -0.355 OA
HETATM   35  C   UNL     1      41.582  -8.136   5.854  1.00  0.00     0.210 C 
ENDBRANCH  21  34
ENDBRANCH   9  18
BRANCH   1  36
HETATM   36  C   UNL     1      45.136 -21.102   4.868  1.00  0.00     0.231 C 
HETATM   37  C   UNL     1      44.587 -22.495   4.621  1.00  0.00     0.034 C 
ENDBRANCH   1  36
TORSDOF 6
ENDMDL
MODEL 7
REMARK VINA RESULT:      -8.3      6.449      8.771
REMARK  6 active torsions:
REMARK  status: ('A' for Active; 'I' for Inactive)
REMARK    1  A    between atoms: C_2  and  N_3 
REMARK    2  A    between atoms: C_11  and  C_12 
REMARK    3  A    between atoms: C_14  and  C_15 
REMARK    4  A    between atoms: C_15  and  O_16 
REMARK    5  A    between atoms: O_16  and  C_17 
REMARK    6  A    between atoms: C_25  and  O_26 
ROOT
HETATM    1  N   UNL     1      43.112 -18.788   6.268  1.00  0.00    -0.067 N 
HETATM    2  H   UNL     1      42.268 -19.374   6.217  1.00  0.00     0.280 HD
HETATM    3  C   UNL     1      42.626 -17.374   6.592  1.00  0.00     0.281 C 
HETATM    4  C   UNL     1      41.877 -16.804   5.437  1.00  0.00     0.018 A 
HETATM    5  C   UNL     1      41.899 -17.303   4.148  1.00  0.00    -0.023 A 
HETATM    6  C   UNL     1      41.027 -16.559   3.289  1.00  0.00     0.073 A 
HETATM    7  C   UNL     1      40.428 -15.515   3.950  1.00  0.00     0.088 A 
HETATM    8  N   UNL     1      39.557 -14.670   3.370  1.00  0.00    -0.358 N 
HETATM    9  C   UNL     1      39.310 -14.712   1.948  1.00  0.00     0.219 C 
HETATM   10  N   UNL     1      39.812 -15.921   1.341  1.00  0.00    -0.332 N 
HETATM   11  C   UNL     1      40.713 -16.784   1.893  1.00  0.00     0.256 C 
HETATM   12  O   UNL     1      41.207 -17.701   1.245  1.00  0.00    -0.267 OA
HETATM   13  S   UNL     1      40.894 -15.423   5.583  1.00  0.00    -0.074 SA
HETATM   14  C   UNL     1      42.715 -18.508   3.787  1.00  0.00     0.068 C 
HETATM   15  C   UNL     1      43.751 -18.837   4.877  1.00  0.00     0.240 C 
HETATM   16  H   UNL     1      39.273 -13.813   3.838  1.00  0.00     0.162 HD
HETATM   17  H   UNL     1      39.629 -16.062   0.360  1.00  0.00     0.165 HD
ENDROOT
BRANCH   9  18
HETATM   18  C   UNL     1      39.854 -13.467   1.275  1.00  0.00    -0.016 A 
HETATM   19  C   UNL     1      40.846 -13.580   0.287  1.00  0.00     0.023 A 
HETATM   20  C   UNL     1      41.388 -12.444  -0.347  1.00  0.00    -0.000 A 
HETATM   21  C   UNL     1      40.922 -11.167   0.010  1.00  0.00     0.076 A 
HETATM   22  C   UNL     1      39.915 -11.049   0.971  1.00  0.00     0.038 A 
HETATM   23  C   UNL     1      39.384 -12.185   1.594  1.00  0.00     0.014 A 
BRANCH  20  24
HETATM   24  C   UNL     1      42.457 -12.633  -1.404  1.00  0.00     0.217 C 
BRANCH  24  25
HETATM   25  O   UNL     1      41.832 -12.575  -2.688  1.00  0.00    -0.347 OA
BRANCH  25  26
HETATM   26  C   UNL     1      40.943 -13.568  -2.994  1.00  0.00     0.070 A 
HETATM   27  C   UNL     1      39.637 -13.125  -3.233  1.00  0.00     0.063 A 
HETATM   28  C   UNL     1      38.633 -14.037  -3.560  1.00  0.00     0.075 A 
HETATM   29 CL   UNL     1      37.035 -13.468  -3.851  1.00  0.00    -0.081 Cl
HETATM   30  C   UNL     1      38.932 -15.394  -3.646  1.00  0.00     0.138 A 
HETATM   31  F   UNL     1      37.985 -16.289  -3.959  1.00  0.00    -0.204 F 
HETATM   32  C   UNL     1      40.225 -15.845  -3.405  1.00  0.00     0.047 A 
HETATM   33  C   UNL     1      41.232 -14.933  -3.075  1.00  0.00     0.040 A 
ENDBRANCH  25  26
ENDBRANCH  24  25
ENDBRANCH  20  24
BRANCH  21  34
HETATM   34  O   UNL     1      41.503 -10.111  -0.638  1.00  0.00    -0.355 OA
HETATM   35  C   UNL     1      42.300  -9.218   0.131  1.00  0.00     0.210 C 
ENDBRANCH  21  34
ENDBRANCH   9  18
BRANCH   1  36
HETATM   36  C   UNL     1      44.018 -19.367   7.324  1.00  0.00     0.231 C 
HETATM   37  C   UNL     1      43.630 -20.799   7.644  1.00  0.00     0.034 C 
ENDBRANCH   1  36
TORSDOF 6
ENDMDL
MODEL 8
REMARK VINA RESULT:      -8.0      5.114      7.084
REMARK  6 active torsions:
REMARK  status: ('A' for Active; 'I' for Inactive)
REMARK    1  A    between atoms: C_2  and  N_3 
REMARK    2  A    between atoms: C_11  and  C_12 
REMARK    3  A    between atoms: C_14  and  C_15 
REMARK    4  A    between atoms: C_15  and  O_16 
REMARK    5  A    between atoms: O_16  and  C_17 
REMARK    6  A    between atoms: C_25  and  O_26 
ROOT
HETATM    1  N   UNL     1      43.900 -18.510   3.497  1.00  0.00    -0.067 N 
HETATM    2  H   UNL     1      44.420 -18.371   4.373  1.00  0.00     0.280 HD
HETATM    3  C   UNL     1      44.048 -17.207   2.708  1.00  0.00     0.281 C 
HETATM    4  C   UNL     1      43.306 -16.104   3.382  1.00  0.00     0.018 A 
HETATM    5  C   UNL     1      42.349 -16.271   4.364  1.00  0.00    -0.023 A 
HETATM    6  C   UNL     1      41.870 -15.009   4.842  1.00  0.00     0.073 A 
HETATM    7  C   UNL     1      42.449 -13.957   4.173  1.00  0.00     0.088 A 
HETATM    8  N   UNL     1      42.177 -12.667   4.439  1.00  0.00    -0.358 N 
HETATM    9  C   UNL     1      41.123 -12.299   5.356  1.00  0.00     0.219 C 
HETATM   10  N   UNL     1      40.680 -13.416   6.155  1.00  0.00    -0.332 N 
HETATM   11  C   UNL     1      40.918 -14.734   5.899  1.00  0.00     0.256 C 
HETATM   12  O   UNL     1      40.370 -15.625   6.540  1.00  0.00    -0.267 OA
HETATM   13  S   UNL     1      43.558 -14.467   2.989  1.00  0.00    -0.074 SA
HETATM   14  C   UNL     1      41.955 -17.633   4.853  1.00  0.00     0.068 C 
HETATM   15  C   UNL     1      42.439 -18.739   3.898  1.00  0.00     0.240 C 
HETATM   16  H   UNL     1      42.488 -11.930   3.812  1.00  0.00     0.162 HD
HETATM   17  H   UNL     1      39.987 -13.236   6.865  1.00  0.00     0.165 HD
ENDROOT
BRANCH   9  18
HETATM   18  C   UNL     1      39.978 -11.637   4.615  1.00  0.00    -0.016 A 
HETATM   19  C   UNL     1      39.598 -12.108   3.347  1.00  0.00     0.023 A 
HETATM   20  C   UNL     1      38.550 -11.506   2.621  1.00  0.00    -0.000 A 
HETATM   21  C   UNL     1      37.863 -10.414   3.180  1.00  0.00     0.076 A 
HETATM   22  C   UNL     1      38.217  -9.959   4.452  1.00  0.00     0.038 A 
HETATM   23  C   UNL     1      39.260 -10.566   5.163  1.00  0.00     0.014 A 
BRANCH  20  24
HETATM   24  C   UNL     1      38.189 -12.059   1.258  1.00  0.00     0.217 C 
BRANCH  24  25
HETATM   25  O   UNL     1      37.916 -13.455   1.400  1.00  0.00    -0.347 OA
BRANCH  25  26
HETATM   26  C   UNL     1      38.932 -14.322   1.106  1.00  0.00     0.070 A 
HETATM   27  C   UNL     1      39.612 -14.039  -0.083  1.00  0.00     0.063 A 
HETATM   28  C   UNL     1      40.672 -14.845  -0.499  1.00  0.00     0.075 A 
HETATM   29 CL   UNL     1      41.493 -14.475  -1.965  1.00  0.00    -0.081 Cl
HETATM   30  C   UNL     1      41.054 -15.937   0.275  1.00  0.00     0.138 A 
HETATM   31  F   UNL     1      42.071 -16.725  -0.102  1.00  0.00    -0.204 F 
HETATM   32  C   UNL     1      40.383 -16.231   1.457  1.00  0.00     0.047 A 
HETATM   33  C   UNL     1      39.318 -15.425   1.873  1.00  0.00     0.040 A 
ENDBRANCH  25  26
ENDBRANCH  24  25
ENDBRANCH  20  24
BRANCH  21  34
HETATM   34  O   UNL     1      36.867  -9.873   2.413  1.00  0.00    -0.355 OA
HETATM   35  C   UNL     1      36.146  -8.768   2.945  1.00  0.00     0.210 C 
ENDBRANCH  21  34
ENDBRANCH   9  18
BRANCH   1  36
HETATM   36  C   UNL     1      44.484 -19.707   2.791  1.00  0.00     0.231 C 
HETATM   37  C   UNL     1      43.442 -20.380   1.917  1.00  0.00     0.034 C 
ENDBRANCH   1  36
TORSDOF 6
ENDMDL
MODEL 9
REMARK VINA RESULT:      -7.8      5.425      7.690
REMARK  6 active torsions:
REMARK  status: ('A' for Active; 'I' for Inactive)
REMARK    1  A    between atoms: C_2  and  N_3 
REMARK    2  A    between atoms: C_11  and  C_12 
REMARK    3  A    between atoms: C_14  and  C_15 
REMARK    4  A    between atoms: C_15  and  O_16 
REMARK    5  A    between atoms: O_16  and  C_17 
REMARK    6  A    between atoms: C_25  and  O_26 
ROOT
HETATM    1  N   UNL     1      44.487 -20.226   3.880  1.00  0.00    -0.067 N 
HETATM    2  H   UNL     1      45.451 -19.903   4.033  1.00  0.00     0.280 HD
HETATM    3  C   UNL     1      43.925 -19.360   2.751  1.00  0.00     0.281 C 
HETATM    4  C   UNL     1      43.751 -17.953   3.212  1.00  0.00     0.018 A 
HETATM    5  C   UNL     1      43.756 -17.541   4.531  1.00  0.00    -0.023 A 
HETATM    6  C   UNL     1      43.620 -16.119   4.630  1.00  0.00     0.073 A 
HETATM    7  C   UNL     1      43.475 -15.532   3.396  1.00  0.00     0.088 A 
HETATM    8  N   UNL     1      43.339 -14.206   3.215  1.00  0.00    -0.358 N 
HETATM    9  C   UNL     1      43.179 -13.311   4.337  1.00  0.00     0.219 C 
HETATM   10  N   UNL     1      43.517 -13.940   5.591  1.00  0.00    -0.332 N 
HETATM   11  C   UNL     1      43.638 -15.281   5.812  1.00  0.00     0.256 C 
HETATM   12  O   UNL     1      43.771 -15.738   6.942  1.00  0.00    -0.267 OA
HETATM   13  S   UNL     1      43.505 -16.665   2.128  1.00  0.00    -0.074 SA
HETATM   14  C   UNL     1      43.940 -18.514   5.657  1.00  0.00     0.068 C 
HETATM   15  C   UNL     1      43.736 -19.966   5.189  1.00  0.00     0.240 C 
HETATM   16  H   UNL     1      43.061 -13.831   2.312  1.00  0.00     0.162 HD
HETATM   17  H   UNL     1      43.492 -13.369   6.421  1.00  0.00     0.165 HD
ENDROOT
BRANCH   9  18
HETATM   18  C   UNL     1      41.782 -12.721   4.353  1.00  0.00    -0.016 A 
HETATM   19  C   UNL     1      41.040 -12.644   3.163  1.00  0.00     0.023 A 
HETATM   20  C   UNL     1      39.745 -12.086   3.137  1.00  0.00    -0.000 A 
HETATM   21  C   UNL     1      39.180 -11.601   4.328  1.00  0.00     0.076 A 
HETATM   22  C   UNL     1      39.902 -11.701   5.520  1.00  0.00     0.038 A 
HETATM   23  C   UNL     1      41.186 -12.258   5.533  1.00  0.00     0.014 A 
BRANCH  20  24
HETATM   24  C   UNL     1      38.997 -12.030   1.821  1.00  0.00     0.217 C 
BRANCH  24  25
HETATM   25  O   UNL     1      39.273 -13.232   1.098  1.00  0.00    -0.347 OA
BRANCH  25  26
HETATM   26  C   UNL     1      39.814 -13.098  -0.151  1.00  0.00     0.070 A 
HETATM   27  C   UNL     1      40.106 -14.308  -0.790  1.00  0.00     0.063 A 
HETATM   28  C   UNL     1      40.659 -14.313  -2.071  1.00  0.00     0.075 A 
HETATM   29 CL   UNL     1      41.009 -15.814  -2.836  1.00  0.00    -0.081 Cl
HETATM   30  C   UNL     1      40.921 -13.108  -2.715  1.00  0.00     0.138 A 
HETATM   31  F   UNL     1      41.450 -13.086  -3.947  1.00  0.00    -0.204 F 
HETATM   32  C   UNL     1      40.639 -11.898  -2.088  1.00  0.00     0.047 A 
HETATM   33  C   UNL     1      40.087 -11.892  -0.803  1.00  0.00     0.040 A 
ENDBRANCH  25  26
ENDBRANCH  24  25
ENDBRANCH  20  24
BRANCH  21  34
HETATM   34  O   UNL     1      37.926 -11.061   4.224  1.00  0.00    -0.355 OA
HETATM   35  C   UNL     1      37.813  -9.644   4.214  1.00  0.00     0.210 C 
ENDBRANCH  21  34
ENDBRANCH   9  18
BRANCH   1  36
HETATM   36  C   UNL     1      44.535 -21.695   3.541  1.00  0.00     0.231 C 
HETATM   37  C   UNL     1      44.256 -21.917   2.065  1.00  0.00     0.034 C 
ENDBRANCH   1  36
TORSDOF 6
ENDMDL
MODEL 10
REMARK VINA RESULT:      -7.7      3.735      5.447
REMARK  6 active torsions:
REMARK  status: ('A' for Active; 'I' for Inactive)
REMARK    1  A    between atoms: C_2  and  N_3 
REMARK    2  A    between atoms: C_11  and  C_12 
REMARK    3  A    between atoms: C_14  and  C_15 
REMARK    4  A    between atoms: C_15  and  O_16 
REMARK    5  A    between atoms: O_16  and  C_17 
REMARK    6  A    between atoms: C_25  and  O_26 
ROOT
HETATM    1  N   UNL     1      43.178 -18.493   6.054  1.00  0.00    -0.067 N 
HETATM    2  H   UNL     1      42.680 -19.295   5.648  1.00  0.00     0.280 HD
HETATM    3  C   UNL     1      42.209 -17.311   5.978  1.00  0.00     0.281 C 
HETATM    4  C   UNL     1      41.995 -16.905   4.560  1.00  0.00     0.018 A 
HETATM    5  C   UNL     1      42.790 -17.282   3.494  1.00  0.00    -0.023 A 
HETATM    6  C   UNL     1      42.278 -16.769   2.259  1.00  0.00     0.073 A 
HETATM    7  C   UNL     1      41.158 -15.996   2.451  1.00  0.00     0.088 A 
HETATM    8  N   UNL     1      40.481 -15.406   1.451  1.00  0.00    -0.358 N 
HETATM    9  C   UNL     1      40.988 -15.417   0.098  1.00  0.00     0.219 C 
HETATM   10  N   UNL     1      42.049 -16.378  -0.081  1.00  0.00    -0.332 N 
HETATM   11  C   UNL     1      42.769 -16.975   0.912  1.00  0.00     0.256 C 
HETATM   12  O   UNL     1      43.759 -17.658   0.669  1.00  0.00    -0.267 OA
HETATM   13  S   UNL     1      40.714 -15.888   4.090  1.00  0.00    -0.074 SA
HETATM   14  C   UNL     1      43.987 -18.165   3.682  1.00  0.00     0.068 C 
HETATM   15  C   UNL     1      44.400 -18.252   5.162  1.00  0.00     0.240 C 
HETATM   16  H   UNL     1      39.770 -14.707   1.646  1.00  0.00     0.162 HD
HETATM   17  H   UNL     1      42.421 -16.496  -1.010  1.00  0.00     0.165 HD
ENDROOT
BRANCH   9  18
HETATM   18  C   UNL     1      41.403 -14.022  -0.328  1.00  0.00    -0.016 A 
HETATM   19  C   UNL     1      41.177 -12.931   0.528  1.00  0.00     0.023 A 
HETATM   20  C   UNL     1      41.534 -11.618   0.158  1.00  0.00    -0.000 A 
HETATM   21  C   UNL     1      42.137 -11.394  -1.091  1.00  0.00     0.076 A 
HETATM   22  C   UNL     1      42.390 -12.479  -1.935  1.00  0.00     0.038 A 
HETATM   23  C   UNL     1      42.032 -13.778  -1.556  1.00  0.00     0.014 A 
BRANCH  20  24
HETATM   24  C   UNL     1      41.262 -10.484   1.125  1.00  0.00     0.217 C 
BRANCH  24  25
HETATM   25  O   UNL     1      40.346 -10.953   2.117  1.00  0.00    -0.347 OA
BRANCH  25  26
HETATM   26  C   UNL     1      40.711 -10.797   3.426  1.00  0.00     0.070 A 
HETATM   27  C   UNL     1      41.300 -11.928   4.003  1.00  0.00     0.063 A 
HETATM   28  C   UNL     1      41.722 -11.901   5.333  1.00  0.00     0.075 A 
HETATM   29 CL   UNL     1      42.445 -13.304   6.020  1.00  0.00    -0.081 Cl
HETATM   30  C   UNL     1      41.553 -10.745   6.089  1.00  0.00     0.138 A 
HETATM   31  F   UNL     1      41.951 -10.695   7.368  1.00  0.00    -0.204 F 
HETATM   32  C   UNL     1      40.964  -9.617   5.527  1.00  0.00     0.047 A 
HETATM   33  C   UNL     1      40.539  -9.643   4.195  1.00  0.00     0.040 A 
ENDBRANCH  25  26
ENDBRANCH  24  25
ENDBRANCH  20  24
BRANCH  21  34
HETATM   34  O   UNL     1      42.444 -10.094  -1.387  1.00  0.00    -0.355 OA
HETATM   35  C   UNL     1      43.818  -9.727  -1.420  1.00  0.00     0.210 C 
ENDBRANCH  21  34
ENDBRANCH   9  18
BRANCH   1  36
HETATM   36  C   UNL     1      43.574 -18.853   7.464  1.00  0.00     0.231 C 
HETATM   37  C   UNL     1      43.592 -17.622   8.351  1.00  0.00     0.034 C 
ENDBRANCH   1  36
TORSDOF 6
ENDMDL
