MODEL 1
REMARK VINA RESULT:      -8.2      0.000      0.000
REMARK  6 active torsions:
REMARK  status: ('A' for Active; 'I' for Inactive)
REMARK       I    between atoms: N_2  and  C_3 
REMARK    1  A    between atoms: C_3  and  C_4 
REMARK    2  A    between atoms: C_6  and  C_7 
REMARK    3  A    between atoms: C_7  and  C_8 
REMARK    4  A    between atoms: C_8  and  C_9 
REMARK       I    between atoms: C_9  and  N_10 
REMARK    5  A    between atoms: N_10  and  C_11 
REMARK    6  A    between atoms: C_13  and  C_14 
ROOT
HETATM    1  C   UNL     1      44.464 -18.521   7.333  1.00  0.00     0.222 C 
HETATM    2  N   UNL     1      44.050 -19.470   6.454  1.00  0.00    -0.327 N 
HETATM    3  O   UNL     1      44.350 -18.800   8.535  1.00  0.00    -0.273 OA
HETATM    4  H   UNL     1      43.660 -20.250   6.974  1.00  0.00     0.169 HD
ENDROOT
BRANCH   1   5
HETATM    5  C   UNL     1      45.019 -17.173   6.934  1.00  0.00     0.108 C 
BRANCH   5   6
HETATM    6  C   UNL     1      44.044 -16.010   7.127  1.00  0.00     0.048 C 
BRANCH   6   7
HETATM    7  C   UNL     1      42.949 -15.800   6.101  1.00  0.00    -0.057 A 
HETATM    8  C   UNL     1      43.114 -15.061   4.921  1.00  0.00     0.024 A 
HETATM    9  C   UNL     1      42.032 -14.825   4.059  1.00  0.00     0.032 A 
HETATM   10  C   UNL     1      40.779 -15.375   4.353  1.00  0.00     0.017 A 
HETATM   11  C   UNL     1      40.602 -16.122   5.515  1.00  0.00     0.002 A 
HETATM   12  C   UNL     1      41.674 -16.320   6.385  1.00  0.00     0.007 A 
BRANCH   9  13
HETATM   13  C   UNL     1      42.166 -13.992   2.831  1.00  0.00     0.251 C 
HETATM   14  N   UNL     1      41.069 -13.946   1.993  1.00  0.00    -0.361 N 
HETATM   15  C   UNL     1      41.143 -13.272   0.722  1.00  0.00     0.149 C 
HETATM   16  H   UNL     1      40.287 -14.566   2.154  1.00  0.00     0.162 HD
HETATM   17  O   UNL     1      43.225 -13.427   2.581  1.00  0.00    -0.268 OA
ENDBRANCH   9  13
ENDBRANCH   6   7
ENDBRANCH   5   6
ENDBRANCH   1   5
BRANCH   2  18
HETATM   18  C   UNL     1      44.027 -19.618   5.057  1.00  0.00     0.035 A 
HETATM   19  C   UNL     1      43.483 -18.713   4.143  1.00  0.00     0.042 A 
HETATM   20  C   UNL     1      43.473 -18.991   2.763  1.00  0.00    -0.021 A 
HETATM   21  C   UNL     1      44.045 -20.181   2.300  1.00  0.00     0.012 A 
HETATM   22  C   UNL     1      44.623 -21.075   3.196  1.00  0.00     0.003 A 
HETATM   23  C   UNL     1      44.612 -20.793   4.562  1.00  0.00     0.029 A 
BRANCH  20  24
HETATM   24  C   UNL     1      42.853 -18.076   1.820  1.00  0.00     0.010 A 
HETATM   25  C   UNL     1      41.488 -17.784   1.581  1.00  0.00     0.152 A 
HETATM   26  N   UNL     1      41.313 -16.876   0.619  1.00  0.00    -0.187 NA
HETATM   27  N   UNL     1      42.565 -16.586   0.230  1.00  0.00    -0.289 N 
HETATM   28  H   UNL     1      42.691 -15.908  -0.515  1.00  0.00     0.188 HD
HETATM   29  C   UNL     1      43.523 -17.274   0.919  1.00  0.00     0.123 A 
ENDBRANCH  20  24
ENDBRANCH   2  18
TORSDOF 6
ENDMDL
MODEL 2
REMARK VINA RESULT:      -8.0      2.234      6.595
REMARK  6 active torsions:
REMARK  status: ('A' for Active; 'I' for Inactive)
REMARK       I    between atoms: N_2  and  C_3 
REMARK    1  A    between atoms: C_3  and  C_4 
REMARK    2  A    between atoms: C_6  and  C_7 
REMARK    3  A    between atoms: C_7  and  C_8 
REMARK    4  A    between atoms: C_8  and  C_9 
REMARK       I    between atoms: C_9  and  N_10 
REMARK    5  A    between atoms: N_10  and  C_11 
REMARK    6  A    between atoms: C_13  and  C_14 
ROOT
HETATM    1  C   UNL     1      42.419 -16.566   0.895  1.00  0.00     0.222 C 
HETATM    2  N   UNL     1      41.691 -16.106   1.946  1.00  0.00    -0.327 N 
HETATM    3  O   UNL     1      42.024 -16.234  -0.232  1.00  0.00    -0.273 OA
HETATM    4  H   UNL     1      40.892 -15.591   1.590  1.00  0.00     0.169 HD
ENDROOT
BRANCH   1   5
HETATM    5  C   UNL     1      43.634 -17.454   1.023  1.00  0.00     0.108 C 
BRANCH   5   6
HETATM    6  C   UNL     1      43.313 -18.933   1.244  1.00  0.00     0.048 C 
BRANCH   6   7
HETATM    7  C   UNL     1      43.806 -19.604   2.510  1.00  0.00    -0.057 A 
HETATM    8  C   UNL     1      43.980 -18.938   3.731  1.00  0.00     0.024 A 
HETATM    9  C   UNL     1      44.530 -19.597   4.841  1.00  0.00     0.032 A 
HETATM   10  C   UNL     1      44.865 -20.953   4.746  1.00  0.00     0.017 A 
HETATM   11  C   UNL     1      44.686 -21.632   3.543  1.00  0.00     0.002 A 
HETATM   12  C   UNL     1      44.174 -20.959   2.434  1.00  0.00     0.007 A 
BRANCH   9  13
HETATM   13  C   UNL     1      44.783 -18.897   6.133  1.00  0.00     0.251 C 
HETATM   14  N   UNL     1      43.979 -19.254   7.196  1.00  0.00    -0.361 N 
HETATM   15  C   UNL     1      44.061 -18.548   8.449  1.00  0.00     0.149 C 
HETATM   16  H   UNL     1      43.178 -19.852   7.043  1.00  0.00     0.162 HD
HETATM   17  O   UNL     1      45.637 -18.020   6.202  1.00  0.00    -0.268 OA
ENDBRANCH   9  13
ENDBRANCH   6   7
ENDBRANCH   5   6
ENDBRANCH   1   5
BRANCH   2  18
HETATM   18  C   UNL     1      41.774 -16.180   3.347  1.00  0.00     0.035 A 
HETATM   19  C   UNL     1      42.486 -15.310   4.175  1.00  0.00     0.042 A 
HETATM   20  C   UNL     1      42.538 -15.512   5.567  1.00  0.00    -0.021 A 
HETATM   21  C   UNL     1      41.838 -16.585   6.130  1.00  0.00     0.012 A 
HETATM   22  C   UNL     1      41.096 -17.439   5.320  1.00  0.00     0.003 A 
HETATM   23  C   UNL     1      41.065 -17.235   3.941  1.00  0.00     0.029 A 
BRANCH  20  24
HETATM   24  C   UNL     1      43.329 -14.641   6.420  1.00  0.00     0.010 A 
HETATM   25  C   UNL     1      44.467 -14.916   7.215  1.00  0.00     0.152 A 
HETATM   26  N   UNL     1      44.916 -13.842   7.867  1.00  0.00    -0.187 NA
HETATM   27  N   UNL     1      44.063 -12.872   7.499  1.00  0.00    -0.289 N 
HETATM   28  H   UNL     1      44.200 -11.942   7.881  1.00  0.00     0.188 HD
HETATM   29  C   UNL     1      43.096 -13.298   6.633  1.00  0.00     0.123 A 
ENDBRANCH  20  24
ENDBRANCH   2  18
TORSDOF 6
ENDMDL
MODEL 3
REMARK VINA RESULT:      -8.0      2.620      5.141
REMARK  6 active torsions:
REMARK  status: ('A' for Active; 'I' for Inactive)
REMARK       I    between atoms: N_2  and  C_3 
REMARK    1  A    between atoms: C_3  and  C_4 
REMARK    2  A    between atoms: C_6  and  C_7 
REMARK    3  A    between atoms: C_7  and  C_8 
REMARK    4  A    between atoms: C_8  and  C_9 
REMARK       I    between atoms: C_9  and  N_10 
REMARK    5  A    between atoms: N_10  and  C_11 
REMARK    6  A    between atoms: C_13  and  C_14 
ROOT
HETATM    1  C   UNL     1      39.778 -15.742   2.236  1.00  0.00     0.222 C 
HETATM    2  N   UNL     1      40.490 -16.736   1.644  1.00  0.00    -0.327 N 
HETATM    3  O   UNL     1      38.585 -15.655   1.912  1.00  0.00    -0.273 OA
HETATM    4  H   UNL     1      39.892 -17.215   0.978  1.00  0.00     0.169 HD
ENDROOT
BRANCH   1   5
HETATM    5  C   UNL     1      40.353 -14.751   3.221  1.00  0.00     0.108 C 
BRANCH   5   6
HETATM    6  C   UNL     1      40.381 -15.246   4.668  1.00  0.00     0.048 C 
BRANCH   6   7
HETATM    7  C   UNL     1      41.719 -15.574   5.301  1.00  0.00    -0.057 A 
HETATM    8  C   UNL     1      42.558 -14.619   5.891  1.00  0.00     0.024 A 
HETATM    9  C   UNL     1      43.827 -14.974   6.375  1.00  0.00     0.032 A 
HETATM   10  C   UNL     1      44.243 -16.309   6.314  1.00  0.00     0.017 A 
HETATM   11  C   UNL     1      43.415 -17.271   5.741  1.00  0.00     0.002 A 
HETATM   12  C   UNL     1      42.171 -16.903   5.228  1.00  0.00     0.007 A 
BRANCH   9  13
HETATM   13  C   UNL     1      44.764 -13.969   6.952  1.00  0.00     0.251 C 
HETATM   14  N   UNL     1      44.418 -13.432   8.175  1.00  0.00    -0.361 N 
HETATM   15  C   UNL     1      45.191 -12.364   8.755  1.00  0.00     0.149 C 
HETATM   16  H   UNL     1      43.503 -13.619   8.567  1.00  0.00     0.162 HD
HETATM   17  O   UNL     1      45.760 -13.622   6.324  1.00  0.00    -0.268 OA
ENDBRANCH   9  13
ENDBRANCH   6   7
ENDBRANCH   5   6
ENDBRANCH   1   5
BRANCH   2  18
HETATM   18  C   UNL     1      41.803 -17.231   1.727  1.00  0.00     0.035 A 
HETATM   19  C   UNL     1      42.169 -18.546   2.014  1.00  0.00     0.042 A 
HETATM   20  C   UNL     1      43.524 -18.917   2.120  1.00  0.00    -0.021 A 
HETATM   21  C   UNL     1      44.516 -17.955   1.902  1.00  0.00     0.012 A 
HETATM   22  C   UNL     1      44.165 -16.648   1.578  1.00  0.00     0.003 A 
HETATM   23  C   UNL     1      42.820 -16.293   1.492  1.00  0.00     0.029 A 
BRANCH  20  24
HETATM   24  C   UNL     1      43.902 -20.274   2.480  1.00  0.00     0.010 A 
HETATM   25  C   UNL     1      43.846 -21.474   1.732  1.00  0.00     0.152 A 
HETATM   26  N   UNL     1      44.285 -22.532   2.417  1.00  0.00    -0.187 NA
HETATM   27  N   UNL     1      44.619 -22.016   3.611  1.00  0.00    -0.289 N 
HETATM   28  H   UNL     1      44.981 -22.645   4.321  1.00  0.00     0.188 HD
HETATM   29  C   UNL     1      44.411 -20.669   3.699  1.00  0.00     0.123 A 
ENDBRANCH  20  24
ENDBRANCH   2  18
TORSDOF 6
ENDMDL
MODEL 4
REMARK VINA RESULT:      -7.7      2.432      6.751
REMARK  6 active torsions:
REMARK  status: ('A' for Active; 'I' for Inactive)
REMARK       I    between atoms: N_2  and  C_3 
REMARK    1  A    between atoms: C_3  and  C_4 
REMARK    2  A    between atoms: C_6  and  C_7 
REMARK    3  A    between atoms: C_7  and  C_8 
REMARK    4  A    between atoms: C_8  and  C_9 
REMARK       I    between atoms: C_9  and  N_10 
REMARK    5  A    between atoms: N_10  and  C_11 
REMARK    6  A    between atoms: C_13  and  C_14 
ROOT
HETATM    1  C   UNL     1      39.510 -15.349   2.012  1.00  0.00     0.222 C 
HETATM    2  N   UNL     1      39.888 -15.163   3.303  1.00  0.00    -0.327 N 
HETATM    3  O   UNL     1      38.335 -15.064   1.739  1.00  0.00    -0.273 OA
HETATM    4  H   UNL     1      39.083 -14.855   3.839  1.00  0.00     0.169 HD
ENDROOT
BRANCH   1   5
HETATM    5  C   UNL     1      40.411 -15.892   0.928  1.00  0.00     0.108 C 
BRANCH   5   6
HETATM    6  C   UNL     1      40.658 -17.399   1.010  1.00  0.00     0.048 C 
BRANCH   6   7
HETATM    7  C   UNL     1      42.035 -17.892   1.407  1.00  0.00    -0.057 A 
HETATM    8  C   UNL     1      42.324 -19.223   1.737  1.00  0.00     0.024 A 
HETATM    9  C   UNL     1      43.600 -19.595   2.188  1.00  0.00     0.032 A 
HETATM   10  C   UNL     1      44.615 -18.634   2.263  1.00  0.00     0.017 A 
HETATM   11  C   UNL     1      44.347 -17.310   1.926  1.00  0.00     0.002 A 
HETATM   12  C   UNL     1      43.066 -16.942   1.515  1.00  0.00     0.007 A 
BRANCH   9  13
HETATM   13  C   UNL     1      43.917 -20.990   2.604  1.00  0.00     0.251 C 
HETATM   14  N   UNL     1      44.481 -21.149   3.854  1.00  0.00    -0.361 N 
HETATM   15  C   UNL     1      44.937 -22.442   4.295  1.00  0.00     0.149 C 
HETATM   16  H   UNL     1      44.784 -20.338   4.377  1.00  0.00     0.162 HD
HETATM   17  O   UNL     1      43.719 -21.924   1.834  1.00  0.00    -0.268 OA
ENDBRANCH   9  13
ENDBRANCH   6   7
ENDBRANCH   5   6
ENDBRANCH   1   5
BRANCH   2  18
HETATM   18  C   UNL     1      41.077 -15.299   4.040  1.00  0.00     0.035 A 
HETATM   19  C   UNL     1      41.484 -16.434   4.742  1.00  0.00     0.042 A 
HETATM   20  C   UNL     1      42.678 -16.437   5.490  1.00  0.00    -0.021 A 
HETATM   21  C   UNL     1      43.481 -15.292   5.502  1.00  0.00     0.012 A 
HETATM   22  C   UNL     1      43.105 -14.165   4.777  1.00  0.00     0.003 A 
HETATM   23  C   UNL     1      41.914 -14.172   4.053  1.00  0.00     0.029 A 
BRANCH  20  24
HETATM   24  C   UNL     1      43.069 -17.600   6.269  1.00  0.00     0.010 A 
HETATM   25  C   UNL     1      43.354 -18.926   5.865  1.00  0.00     0.152 A 
HETATM   26  N   UNL     1      43.679 -19.720   6.887  1.00  0.00    -0.187 NA
HETATM   27  N   UNL     1      43.596 -18.909   7.954  1.00  0.00    -0.289 N 
HETATM   28  H   UNL     1      43.797 -19.298   8.870  1.00  0.00     0.188 HD
HETATM   29  C   UNL     1      43.238 -17.630   7.638  1.00  0.00     0.123 A 
ENDBRANCH  20  24
ENDBRANCH   2  18
TORSDOF 6
ENDMDL
MODEL 5
REMARK VINA RESULT:      -7.5      2.564      5.694
REMARK  6 active torsions:
REMARK  status: ('A' for Active; 'I' for Inactive)
REMARK       I    between atoms: N_2  and  C_3 
REMARK    1  A    between atoms: C_3  and  C_4 
REMARK    2  A    between atoms: C_6  and  C_7 
REMARK    3  A    between atoms: C_7  and  C_8 
REMARK    4  A    between atoms: C_8  and  C_9 
REMARK       I    between atoms: C_9  and  N_10 
REMARK    5  A    between atoms: N_10  and  C_11 
REMARK    6  A    between atoms: C_13  and  C_14 
ROOT
HETATM    1  C   UNL     1      39.110 -15.183   1.953  1.00  0.00     0.222 C 
HETATM    2  N   UNL     1      39.640 -16.424   2.106  1.00  0.00    -0.327 N 
HETATM    3  O   UNL     1      37.947 -15.133   1.528  1.00  0.00    -0.273 OA
HETATM    4  H   UNL     1      38.966 -17.110   1.781  1.00  0.00     0.169 HD
ENDROOT
BRANCH   1   5
HETATM    5  C   UNL     1      39.849 -13.898   2.243  1.00  0.00     0.108 C 
BRANCH   5   6
HETATM    6  C   UNL     1      40.211 -13.698   3.715  1.00  0.00     0.048 C 
BRANCH   6   7
HETATM    7  C   UNL     1      41.656 -13.870   4.140  1.00  0.00    -0.057 A 
HETATM    8  C   UNL     1      42.079 -13.895   5.476  1.00  0.00     0.024 A 
HETATM    9  C   UNL     1      43.444 -13.963   5.800  1.00  0.00     0.032 A 
HETATM   10  C   UNL     1      44.394 -14.057   4.777  1.00  0.00     0.017 A 
HETATM   11  C   UNL     1      43.988 -14.046   3.445  1.00  0.00     0.002 A 
HETATM   12  C   UNL     1      42.633 -13.940   3.132  1.00  0.00     0.007 A 
BRANCH   9  13
HETATM   13  C   UNL     1      43.925 -13.929   7.210  1.00  0.00     0.251 C 
HETATM   14  N   UNL     1      43.949 -12.694   7.825  1.00  0.00    -0.361 N 
HETATM   15  C   UNL     1      44.515 -12.539   9.141  1.00  0.00     0.149 C 
HETATM   16  H   UNL     1      43.784 -11.857   7.281  1.00  0.00     0.162 HD
HETATM   17  O   UNL     1      44.317 -14.957   7.752  1.00  0.00    -0.268 OA
ENDBRANCH   9  13
ENDBRANCH   6   7
ENDBRANCH   5   6
ENDBRANCH   1   5
BRANCH   2  18
HETATM   18  C   UNL     1      40.850 -16.958   2.580  1.00  0.00     0.035 A 
HETATM   19  C   UNL     1      41.186 -17.176   3.916  1.00  0.00     0.042 A 
HETATM   20  C   UNL     1      42.454 -17.672   4.276  1.00  0.00    -0.021 A 
HETATM   21  C   UNL     1      43.378 -17.981   3.273  1.00  0.00     0.012 A 
HETATM   22  C   UNL     1      43.044 -17.804   1.934  1.00  0.00     0.003 A 
HETATM   23  C   UNL     1      41.790 -17.297   1.594  1.00  0.00     0.029 A 
BRANCH  20  24
HETATM   24  C   UNL     1      42.823 -17.840   5.672  1.00  0.00     0.010 A 
HETATM   25  C   UNL     1      43.910 -18.528   6.261  1.00  0.00     0.152 A 
HETATM   26  N   UNL     1      43.908 -18.457   7.594  1.00  0.00    -0.187 NA
HETATM   27  N   UNL     1      42.813 -17.729   7.867  1.00  0.00    -0.289 N 
HETATM   28  H   UNL     1      42.592 -17.542   8.840  1.00  0.00     0.188 HD
HETATM   29  C   UNL     1      42.131 -17.333   6.752  1.00  0.00     0.123 A 
ENDBRANCH  20  24
ENDBRANCH   2  18
TORSDOF 6
ENDMDL
MODEL 6
REMARK VINA RESULT:      -7.5      3.935      5.784
REMARK  6 active torsions:
REMARK  status: ('A' for Active; 'I' for Inactive)
REMARK       I    between atoms: N_2  and  C_3 
REMARK    1  A    between atoms: C_3  and  C_4 
REMARK    2  A    between atoms: C_6  and  C_7 
REMARK    3  A    between atoms: C_7  and  C_8 
REMARK    4  A    between atoms: C_8  and  C_9 
REMARK       I    between atoms: C_9  and  N_10 
REMARK    5  A    between atoms: N_10  and  C_11 
REMARK    6  A    between atoms: C_13  and  C_14 
ROOT
HETATM    1  C   UNL     1      41.652 -15.189   5.314  1.00  0.00     0.222 C 
HETATM    2  N   UNL     1      41.530 -16.241   4.463  1.00  0.00    -0.327 N 
HETATM    3  O   UNL     1      40.656 -14.922   6.001  1.00  0.00    -0.273 OA
HETATM    4  H   UNL     1      40.582 -16.599   4.519  1.00  0.00     0.169 HD
ENDROOT
BRANCH   1   5
HETATM    5  C   UNL     1      42.893 -14.338   5.445  1.00  0.00     0.108 C 
BRANCH   5   6
HETATM    6  C   UNL     1      43.922 -14.873   6.442  1.00  0.00     0.048 C 
BRANCH   6   7
HETATM    7  C   UNL     1      44.709 -13.885   7.279  1.00  0.00    -0.057 A 
HETATM    8  C   UNL     1      44.229 -13.306   8.461  1.00  0.00     0.024 A 
HETATM    9  C   UNL     1      44.971 -12.325   9.138  1.00  0.00     0.032 A 
HETATM   10  C   UNL     1      46.231 -11.955   8.656  1.00  0.00     0.017 A 
HETATM   11  C   UNL     1      46.728 -12.532   7.489  1.00  0.00     0.002 A 
HETATM   12  C   UNL     1      45.967 -13.477   6.802  1.00  0.00     0.007 A 
BRANCH   9  13
HETATM   13  C   UNL     1      44.457 -11.648  10.362  1.00  0.00     0.251 C 
HETATM   14  N   UNL     1      43.162 -11.946  10.735  1.00  0.00    -0.361 N 
HETATM   15  C   UNL     1      42.533 -11.250  11.828  1.00  0.00     0.149 C 
HETATM   16  H   UNL     1      42.570 -12.482  10.114  1.00  0.00     0.162 HD
HETATM   17  O   UNL     1      45.158 -10.837  10.959  1.00  0.00    -0.268 OA
ENDBRANCH   9  13
ENDBRANCH   6   7
ENDBRANCH   5   6
ENDBRANCH   1   5
BRANCH   2  18
HETATM   18  C   UNL     1      42.368 -16.916   3.559  1.00  0.00     0.035 A 
HETATM   19  C   UNL     1      42.689 -18.274   3.592  1.00  0.00     0.042 A 
HETATM   20  C   UNL     1      43.583 -18.832   2.658  1.00  0.00    -0.021 A 
HETATM   21  C   UNL     1      44.132 -18.016   1.663  1.00  0.00     0.012 A 
HETATM   22  C   UNL     1      43.792 -16.669   1.596  1.00  0.00     0.003 A 
HETATM   23  C   UNL     1      42.917 -16.127   2.537  1.00  0.00     0.029 A 
BRANCH  20  24
HETATM   24  C   UNL     1      43.963 -20.233   2.732  1.00  0.00     0.010 A 
HETATM   25  C   UNL     1      43.826 -21.276   1.785  1.00  0.00     0.152 A 
HETATM   26  N   UNL     1      44.298 -22.443   2.227  1.00  0.00    -0.187 NA
HETATM   27  N   UNL     1      44.735 -22.156   3.464  1.00  0.00    -0.289 N 
HETATM   28  H   UNL     1      45.141 -22.906   4.016  1.00  0.00     0.188 HD
HETATM   29  C   UNL     1      44.560 -20.848   3.813  1.00  0.00     0.123 A 
ENDBRANCH  20  24
ENDBRANCH   2  18
TORSDOF 6
ENDMDL
MODEL 7
REMARK VINA RESULT:      -7.4      2.879      7.223
REMARK  6 active torsions:
REMARK  status: ('A' for Active; 'I' for Inactive)
REMARK       I    between atoms: N_2  and  C_3 
REMARK    1  A    between atoms: C_3  and  C_4 
REMARK    2  A    between atoms: C_6  and  C_7 
REMARK    3  A    between atoms: C_7  and  C_8 
REMARK    4  A    between atoms: C_8  and  C_9 
REMARK       I    between atoms: C_9  and  N_10 
REMARK    5  A    between atoms: N_10  and  C_11 
REMARK    6  A    between atoms: C_13  and  C_14 
ROOT
HETATM    1  C   UNL     1      41.385 -16.729   0.896  1.00  0.00     0.222 C 
HETATM    2  N   UNL     1      40.766 -15.951  -0.029  1.00  0.00    -0.327 N 
HETATM    3  O   UNL     1      40.658 -17.494   1.543  1.00  0.00    -0.273 OA
HETATM    4  H   UNL     1      39.765 -16.117   0.020  1.00  0.00     0.169 HD
ENDROOT
BRANCH   1   5
HETATM    5  C   UNL     1      42.868 -16.693   1.185  1.00  0.00     0.108 C 
BRANCH   5   6
HETATM    6  C   UNL     1      43.559 -18.054   1.096  1.00  0.00     0.048 C 
BRANCH   6   7
HETATM    7  C   UNL     1      43.893 -18.788   2.379  1.00  0.00    -0.057 A 
HETATM    8  C   UNL     1      43.924 -18.179   3.641  1.00  0.00     0.024 A 
HETATM    9  C   UNL     1      44.334 -18.894   4.778  1.00  0.00     0.032 A 
HETATM   10  C   UNL     1      44.669 -20.248   4.661  1.00  0.00     0.017 A 
HETATM   11  C   UNL     1      44.630 -20.870   3.416  1.00  0.00     0.002 A 
HETATM   12  C   UNL     1      44.259 -20.142   2.286  1.00  0.00     0.007 A 
BRANCH   9  13
HETATM   13  C   UNL     1      44.436 -18.255   6.121  1.00  0.00     0.251 C 
HETATM   14  N   UNL     1      43.248 -18.021   6.784  1.00  0.00    -0.361 N 
HETATM   15  C   UNL     1      43.233 -17.296   8.029  1.00  0.00     0.149 C 
HETATM   16  H   UNL     1      42.368 -18.150   6.303  1.00  0.00     0.162 HD
HETATM   17  O   UNL     1      45.530 -17.924   6.566  1.00  0.00    -0.268 OA
ENDBRANCH   9  13
ENDBRANCH   6   7
ENDBRANCH   5   6
ENDBRANCH   1   5
BRANCH   2  18
HETATM   18  C   UNL     1      41.164 -15.006  -0.990  1.00  0.00     0.035 A 
HETATM   19  C   UNL     1      41.700 -13.744  -0.730  1.00  0.00     0.042 A 
HETATM   20  C   UNL     1      42.018 -12.859  -1.778  1.00  0.00    -0.021 A 
HETATM   21  C   UNL     1      41.819 -13.266  -3.102  1.00  0.00     0.012 A 
HETATM   22  C   UNL     1      41.319 -14.534  -3.377  1.00  0.00     0.003 A 
HETATM   23  C   UNL     1      40.996 -15.395  -2.328  1.00  0.00     0.029 A 
BRANCH  20  24
HETATM   24  C   UNL     1      42.519 -11.523  -1.502  1.00  0.00     0.010 A 
HETATM   25  C   UNL     1      42.685 -10.836  -0.276  1.00  0.00     0.152 A 
HETATM   26  N   UNL     1      43.179  -9.606  -0.433  1.00  0.00    -0.187 NA
HETATM   27  N   UNL     1      43.325  -9.495  -1.763  1.00  0.00    -0.289 N 
HETATM   28  H   UNL     1      43.688  -8.622  -2.134  1.00  0.00     0.188 HD
HETATM   29  C   UNL     1      42.948 -10.614  -2.448  1.00  0.00     0.123 A 
ENDBRANCH  20  24
ENDBRANCH   2  18
TORSDOF 6
ENDMDL
MODEL 8
REMARK VINA RESULT:      -7.4      2.367      6.420
REMARK  6 active torsions:
REMARK  status: ('A' for Active; 'I' for Inactive)
REMARK       I    between atoms: N_2  and  C_3 
REMARK    1  A    between atoms: C_3  and  C_4 
REMARK    2  A    between atoms: C_6  and  C_7 
REMARK    3  A    between atoms: C_7  and  C_8 
REMARK    4  A    between atoms: C_8  and  C_9 
REMARK       I    between atoms: C_9  and  N_10 
REMARK    5  A    between atoms: N_10  and  C_11 
REMARK    6  A    between atoms: C_13  and  C_14 
ROOT
HETATM    1  C   UNL     1      40.991 -15.417   4.238  1.00  0.00     0.222 C 
HETATM    2  N   UNL     1      40.038 -15.276   3.281  1.00  0.00    -0.327 N 
HETATM    3  O   UNL     1      40.747 -16.232   5.139  1.00  0.00    -0.273 OA
HETATM    4  H   UNL     1      39.243 -15.860   3.522  1.00  0.00     0.169 HD
ENDROOT
BRANCH   1   5
HETATM    5  C   UNL     1      42.285 -14.638   4.276  1.00  0.00     0.108 C 
BRANCH   5   6
HETATM    6  C   UNL     1      43.310 -15.069   3.226  1.00  0.00     0.048 C 
BRANCH   6   7
HETATM    7  C   UNL     1      43.491 -16.548   2.949  1.00  0.00    -0.057 A 
HETATM    8  C   UNL     1      43.755 -17.502   3.941  1.00  0.00     0.024 A 
HETATM    9  C   UNL     1      44.006 -18.842   3.606  1.00  0.00     0.032 A 
HETATM   10  C   UNL     1      43.944 -19.245   2.267  1.00  0.00     0.017 A 
HETATM   11  C   UNL     1      43.671 -18.311   1.271  1.00  0.00     0.002 A 
HETATM   12  C   UNL     1      43.460 -16.974   1.609  1.00  0.00     0.007 A 
BRANCH   9  13
HETATM   13  C   UNL     1      44.350 -19.865   4.635  1.00  0.00     0.251 C 
HETATM   14  N   UNL     1      44.837 -21.069   4.170  1.00  0.00    -0.361 N 
HETATM   15  C   UNL     1      45.079 -22.163   5.075  1.00  0.00     0.149 C 
HETATM   16  H   UNL     1      44.815 -21.273   3.179  1.00  0.00     0.162 HD
HETATM   17  O   UNL     1      44.153 -19.634   5.823  1.00  0.00    -0.268 OA
ENDBRANCH   9  13
ENDBRANCH   6   7
ENDBRANCH   5   6
ENDBRANCH   1   5
BRANCH   2  18
HETATM   18  C   UNL     1      39.896 -14.540   2.093  1.00  0.00     0.035 A 
HETATM   19  C   UNL     1      40.449 -14.864   0.853  1.00  0.00     0.042 A 
HETATM   20  C   UNL     1      40.279 -14.021  -0.262  1.00  0.00    -0.021 A 
HETATM   21  C   UNL     1      39.517 -12.855  -0.129  1.00  0.00     0.012 A 
HETATM   22  C   UNL     1      38.929 -12.538   1.092  1.00  0.00     0.003 A 
HETATM   23  C   UNL     1      39.118 -13.376   2.191  1.00  0.00     0.029 A 
BRANCH  20  24
HETATM   24  C   UNL     1      40.907 -14.329  -1.536  1.00  0.00     0.010 A 
HETATM   25  C   UNL     1      40.697 -15.407  -2.429  1.00  0.00     0.152 A 
HETATM   26  N   UNL     1      41.479 -15.345  -3.509  1.00  0.00    -0.187 NA
HETATM   27  N   UNL     1      42.200 -14.230  -3.310  1.00  0.00    -0.289 N 
HETATM   28  H   UNL     1      42.886 -13.971  -4.012  1.00  0.00     0.188 HD
HETATM   29  C   UNL     1      41.894 -13.584  -2.146  1.00  0.00     0.123 A 
ENDBRANCH  20  24
ENDBRANCH   2  18
TORSDOF 6
ENDMDL
MODEL 9
REMARK VINA RESULT:      -7.4      2.056      2.888
REMARK  6 active torsions:
REMARK  status: ('A' for Active; 'I' for Inactive)
REMARK       I    between atoms: N_2  and  C_3 
REMARK    1  A    between atoms: C_3  and  C_4 
REMARK    2  A    between atoms: C_6  and  C_7 
REMARK    3  A    between atoms: C_7  and  C_8 
REMARK    4  A    between atoms: C_8  and  C_9 
REMARK       I    between atoms: C_9  and  N_10 
REMARK    5  A    between atoms: N_10  and  C_11 
REMARK    6  A    between atoms: C_13  and  C_14 
ROOT
HETATM    1  C   UNL     1      43.567 -18.184   6.471  1.00  0.00     0.222 C 
HETATM    2  N   UNL     1      42.939 -18.520   5.316  1.00  0.00    -0.327 N 
HETATM    3  O   UNL     1      43.412 -18.959   7.425  1.00  0.00    -0.273 OA
HETATM    4  H   UNL     1      42.393 -19.362   5.472  1.00  0.00     0.169 HD
ENDROOT
BRANCH   1   5
HETATM    5  C   UNL     1      44.401 -16.937   6.658  1.00  0.00     0.108 C 
BRANCH   5   6
HETATM    6  C   UNL     1      43.589 -15.677   6.959  1.00  0.00     0.048 C 
BRANCH   6   7
HETATM    7  C   UNL     1      43.155 -14.796   5.805  1.00  0.00    -0.057 A 
HETATM    8  C   UNL     1      41.876 -14.235   5.689  1.00  0.00     0.024 A 
HETATM    9  C   UNL     1      41.508 -13.506   4.546  1.00  0.00     0.032 A 
HETATM   10  C   UNL     1      42.446 -13.291   3.530  1.00  0.00     0.017 A 
HETATM   11  C   UNL     1      43.726 -13.831   3.638  1.00  0.00     0.002 A 
HETATM   12  C   UNL     1      44.070 -14.586   4.759  1.00  0.00     0.007 A 
BRANCH   9  13
HETATM   13  C   UNL     1      40.136 -12.952   4.369  1.00  0.00     0.251 C 
HETATM   14  N   UNL     1      39.850 -12.392   3.140  1.00  0.00    -0.361 N 
HETATM   15  C   UNL     1      38.597 -11.719   2.913  1.00  0.00     0.149 C 
HETATM   16  H   UNL     1      40.593 -12.247   2.468  1.00  0.00     0.162 HD
HETATM   17  O   UNL     1      39.340 -12.966   5.302  1.00  0.00    -0.268 OA
ENDBRANCH   9  13
ENDBRANCH   6   7
ENDBRANCH   5   6
ENDBRANCH   1   5
BRANCH   2  18
HETATM   18  C   UNL     1      42.862 -17.997   4.014  1.00  0.00     0.035 A 
HETATM   19  C   UNL     1      41.859 -17.161   3.521  1.00  0.00     0.042 A 
HETATM   20  C   UNL     1      41.860 -16.737   2.178  1.00  0.00    -0.021 A 
HETATM   21  C   UNL     1      42.902 -17.138   1.334  1.00  0.00     0.012 A 
HETATM   22  C   UNL     1      43.927 -17.943   1.822  1.00  0.00     0.003 A 
HETATM   23  C   UNL     1      43.905 -18.366   3.150  1.00  0.00     0.029 A 
BRANCH  20  24
HETATM   24  C   UNL     1      40.783 -15.915   1.652  1.00  0.00     0.010 A 
HETATM   25  C   UNL     1      40.794 -14.907   0.659  1.00  0.00     0.152 A 
HETATM   26  N   UNL     1      39.589 -14.371   0.452  1.00  0.00    -0.187 NA
HETATM   27  N   UNL     1      38.800 -15.029   1.316  1.00  0.00    -0.289 N 
HETATM   28  H   UNL     1      37.815 -14.785   1.348  1.00  0.00     0.188 HD
HETATM   29  C   UNL     1      39.465 -15.965   2.056  1.00  0.00     0.123 A 
ENDBRANCH  20  24
ENDBRANCH   2  18
TORSDOF 6
ENDMDL
MODEL 10
REMARK VINA RESULT:      -7.4      2.458      5.640
REMARK  6 active torsions:
REMARK  status: ('A' for Active; 'I' for Inactive)
REMARK       I    between atoms: N_2  and  C_3 
REMARK    1  A    between atoms: C_3  and  C_4 
REMARK    2  A    between atoms: C_6  and  C_7 
REMARK    3  A    between atoms: C_7  and  C_8 
REMARK    4  A    between atoms: C_8  and  C_9 
REMARK       I    between atoms: C_9  and  N_10 
REMARK    5  A    between atoms: N_10  and  C_11 
REMARK    6  A    between atoms: C_13  and  C_14 
ROOT
HETATM    1  C   UNL     1      38.882 -14.857   1.293  1.00  0.00     0.222 C 
HETATM    2  N   UNL     1      39.190 -16.013   1.936  1.00  0.00    -0.327 N 
HETATM    3  O   UNL     1      37.676 -14.632   1.119  1.00  0.00    -0.273 OA
HETATM    4  H   UNL     1      38.332 -16.524   2.120  1.00  0.00     0.169 HD
ENDROOT
BRANCH   1   5
HETATM    5  C   UNL     1      39.903 -13.872   0.773  1.00  0.00     0.108 C 
BRANCH   5   6
HETATM    6  C   UNL     1      40.124 -12.658   1.677  1.00  0.00     0.048 C 
BRANCH   6   7
HETATM    7  C   UNL     1      40.486 -12.888   3.130  1.00  0.00    -0.057 A 
HETATM    8  C   UNL     1      41.797 -13.081   3.587  1.00  0.00     0.024 A 
HETATM    9  C   UNL     1      42.055 -13.384   4.934  1.00  0.00     0.032 A 
HETATM   10  C   UNL     1      40.995 -13.443   5.846  1.00  0.00     0.017 A 
HETATM   11  C   UNL     1      39.688 -13.240   5.409  1.00  0.00     0.002 A 
HETATM   12  C   UNL     1      39.438 -12.978   4.062  1.00  0.00     0.007 A 
BRANCH   9  13
HETATM   13  C   UNL     1      43.433 -13.655   5.434  1.00  0.00     0.251 C 
HETATM   14  N   UNL     1      43.583 -13.761   6.802  1.00  0.00    -0.361 N 
HETATM   15  C   UNL     1      44.891 -13.897   7.389  1.00  0.00     0.149 C 
HETATM   16  H   UNL     1      42.814 -13.520   7.414  1.00  0.00     0.162 HD
HETATM   17  O   UNL     1      44.371 -13.728   4.648  1.00  0.00    -0.268 OA
ENDBRANCH   9  13
ENDBRANCH   6   7
ENDBRANCH   5   6
ENDBRANCH   1   5
BRANCH   2  18
HETATM   18  C   UNL     1      40.364 -16.645   2.380  1.00  0.00     0.035 A 
HETATM   19  C   UNL     1      40.855 -16.644   3.687  1.00  0.00     0.042 A 
HETATM   20  C   UNL     1      42.073 -17.273   4.006  1.00  0.00    -0.021 A 
HETATM   21  C   UNL     1      42.786 -17.935   3.001  1.00  0.00     0.012 A 
HETATM   22  C   UNL     1      42.291 -17.975   1.701  1.00  0.00     0.003 A 
HETATM   23  C   UNL     1      41.089 -17.335   1.397  1.00  0.00     0.029 A 
BRANCH  20  24
HETATM   24  C   UNL     1      42.612 -17.218   5.355  1.00  0.00     0.010 A 
HETATM   25  C   UNL     1      41.973 -16.967   6.593  1.00  0.00     0.152 A 
HETATM   26  N   UNL     1      42.816 -16.998   7.627  1.00  0.00    -0.187 NA
HETATM   27  N   UNL     1      44.002 -17.262   7.057  1.00  0.00    -0.289 N 
HETATM   28  H   UNL     1      44.819 -17.328   7.656  1.00  0.00     0.188 HD
HETATM   29  C   UNL     1      43.935 -17.405   5.700  1.00  0.00     0.123 A 
ENDBRANCH  20  24
ENDBRANCH   2  18
TORSDOF 6
ENDMDL
