MODEL 1
REMARK VINA RESULT:      -9.7      0.000      0.000
REMARK  6 active torsions:
REMARK  status: ('A' for Active; 'I' for Inactive)
REMARK    1  A    between atoms: O_2  and  C_3 
REMARK    2  A    between atoms: C_3  and  C_4 
REMARK    3  A    between atoms: C_7  and  N_8 
REMARK       I    between atoms: N_8  and  C_9 
REMARK    4  A    between atoms: C_9  and  C_10 
REMARK    5  A    between atoms: C_10  and  O_11 
REMARK    6  A    between atoms: O_11  and  C_12 
ROOT
HETATM    1  C   UNL     1      45.130 -13.932   6.979  1.00  0.00     0.278 C 
ENDROOT
BRANCH   1   2
HETATM    2  C   UNL     1      45.229 -12.857   8.065  1.00  0.00     0.246 C 
HETATM    3  N   UNL     1      43.999 -12.558   8.627  1.00  0.00    -0.325 N 
HETATM    4  H   UNL     1      43.200 -12.968   8.152  1.00  0.00     0.169 HD
HETATM    5  O   UNL     1      46.322 -12.420   8.416  1.00  0.00    -0.271 OA
BRANCH   3   6
HETATM    6  C   UNL     1      43.738 -11.782   9.772  1.00  0.00     0.034 A 
HETATM    7  C   UNL     1      44.085 -12.167  11.069  1.00  0.00     0.030 A 
HETATM    8  C   UNL     1      43.738 -11.371  12.169  1.00  0.00     0.020 A 
HETATM    9  C   UNL     1      43.037 -10.175  11.983  1.00  0.00     0.039 A 
HETATM   10  C   UNL     1      42.708  -9.774  10.683  1.00  0.00     0.020 A 
HETATM   11  C   UNL     1      43.059 -10.572   9.587  1.00  0.00     0.030 A 
BRANCH   9  12
HETATM   12  C   UNL     1      42.608  -9.314  13.119  1.00  0.00     0.292 C 
HETATM   13  O   UNL     1      42.028  -8.250  12.977  1.00  0.00    -0.259 OA
BRANCH  12  14
HETATM   14  O   UNL     1      42.922  -9.897  14.304  1.00  0.00    -0.323 OA
HETATM   15  C   UNL     1      42.020  -9.582  15.366  1.00  0.00     0.213 C 
ENDBRANCH  12  14
ENDBRANCH   9  12
ENDBRANCH   3   6
ENDBRANCH   1   2
BRANCH   1  16
HETATM   16  O   UNL     1      44.164 -14.922   7.334  1.00  0.00    -0.342 OA
BRANCH  16  17
HETATM   17  C   UNL     1      43.944 -15.869   6.366  1.00  0.00     0.071 A 
HETATM   18  C   UNL     1      44.548 -17.112   6.586  1.00  0.00     0.067 A 
HETATM   19  C   UNL     1      44.408 -18.095   5.596  1.00  0.00     0.046 A 
HETATM   20  C   UNL     1      43.713 -17.873   4.409  1.00  0.00     0.003 A 
HETATM   21  N   UNL     1      44.880 -19.387   5.548  1.00  0.00    -0.355 N 
HETATM   22  C   UNL     1      43.118 -16.612   4.205  1.00  0.00     0.017 A 
HETATM   23  C   UNL     1      43.803 -19.067   3.626  1.00  0.00     0.003 A 
HETATM   24  C   UNL     1      43.245 -15.618   5.185  1.00  0.00     0.038 A 
HETATM   25  C   UNL     1      44.537 -19.994   4.362  1.00  0.00     0.043 A 
HETATM   26  C   UNL     1      43.331 -19.439   2.350  1.00  0.00     0.014 A 
HETATM   27  C   UNL     1      44.824 -21.281   3.888  1.00  0.00     0.030 A 
HETATM   28  C   UNL     1      44.348 -21.624   2.619  1.00  0.00     0.002 A 
HETATM   29  C   UNL     1      43.614 -20.719   1.858  1.00  0.00     0.001 A 
HETATM   30  H   UNL     1      45.419 -19.827   6.279  1.00  0.00     0.166 HD
ENDBRANCH  16  17
ENDBRANCH   1  16
TORSDOF 6
ENDMDL
MODEL 2
REMARK VINA RESULT:      -9.0      6.783     10.397
REMARK  6 active torsions:
REMARK  status: ('A' for Active; 'I' for Inactive)
REMARK    1  A    between atoms: O_2  and  C_3 
REMARK    2  A    between atoms: C_3  and  C_4 
REMARK    3  A    between atoms: C_7  and  N_8 
REMARK       I    between atoms: N_8  and  C_9 
REMARK    4  A    between atoms: C_9  and  C_10 
REMARK    5  A    between atoms: C_10  and  O_11 
REMARK    6  A    between atoms: O_11  and  C_12 
ROOT
HETATM    1  C   UNL     1      41.898 -14.371   3.119  1.00  0.00     0.278 C 
ENDROOT
BRANCH   1   2
HETATM    2  C   UNL     1      40.715 -14.520   2.158  1.00  0.00     0.246 C 
HETATM    3  N   UNL     1      40.974 -13.975   0.912  1.00  0.00    -0.325 N 
HETATM    4  H   UNL     1      41.830 -13.430   0.852  1.00  0.00     0.169 HD
HETATM    5  O   UNL     1      39.713 -15.149   2.491  1.00  0.00    -0.271 OA
BRANCH   3   6
HETATM    6  C   UNL     1      40.211 -14.105  -0.263  1.00  0.00     0.034 A 
HETATM    7  C   UNL     1      38.911 -13.616  -0.406  1.00  0.00     0.030 A 
HETATM    8  C   UNL     1      38.189 -13.837  -1.586  1.00  0.00     0.020 A 
HETATM    9  C   UNL     1      38.761 -14.554  -2.642  1.00  0.00     0.039 A 
HETATM   10  C   UNL     1      40.073 -15.026  -2.512  1.00  0.00     0.020 A 
HETATM   11  C   UNL     1      40.791 -14.801  -1.332  1.00  0.00     0.030 A 
BRANCH   9  12
HETATM   12  C   UNL     1      38.022 -14.852  -3.899  1.00  0.00     0.292 C 
HETATM   13  O   UNL     1      38.184 -15.872  -4.550  1.00  0.00    -0.259 OA
BRANCH  12  14
HETATM   14  O   UNL     1      37.142 -13.859  -4.182  1.00  0.00    -0.323 OA
HETATM   15  C   UNL     1      35.875 -14.320  -4.652  1.00  0.00     0.213 C 
ENDBRANCH  12  14
ENDBRANCH   9  12
ENDBRANCH   3   6
ENDBRANCH   1   2
BRANCH   1  16
HETATM   16  O   UNL     1      43.111 -14.798   2.499  1.00  0.00    -0.342 OA
BRANCH  16  17
HETATM   17  C   UNL     1      43.309 -16.156   2.520  1.00  0.00     0.071 A 
HETATM   18  C   UNL     1      43.531 -16.716   3.783  1.00  0.00     0.067 A 
HETATM   19  C   UNL     1      43.803 -18.089   3.854  1.00  0.00     0.046 A 
HETATM   20  C   UNL     1      43.876 -18.901   2.724  1.00  0.00     0.003 A 
HETATM   21  N   UNL     1      44.049 -18.895   4.942  1.00  0.00    -0.355 N 
HETATM   22  C   UNL     1      43.656 -18.315   1.461  1.00  0.00     0.017 A 
HETATM   23  C   UNL     1      44.203 -20.223   3.161  1.00  0.00     0.003 A 
HETATM   24  C   UNL     1      43.380 -16.944   1.371  1.00  0.00     0.038 A 
HETATM   25  C   UNL     1      44.305 -20.188   4.551  1.00  0.00     0.043 A 
HETATM   26  C   UNL     1      44.430 -21.446   2.498  1.00  0.00     0.014 A 
HETATM   27  C   UNL     1      44.620 -21.320   5.315  1.00  0.00     0.030 A 
HETATM   28  C   UNL     1      44.845 -22.520   4.633  1.00  0.00     0.002 A 
HETATM   29  C   UNL     1      44.753 -22.585   3.245  1.00  0.00     0.001 A 
HETATM   30  H   UNL     1      44.055 -18.577   5.900  1.00  0.00     0.166 HD
ENDBRANCH  16  17
ENDBRANCH   1  16
TORSDOF 6
ENDMDL
MODEL 3
REMARK VINA RESULT:      -8.7      2.320     11.311
REMARK  6 active torsions:
REMARK  status: ('A' for Active; 'I' for Inactive)
REMARK    1  A    between atoms: O_2  and  C_3 
REMARK    2  A    between atoms: C_3  and  C_4 
REMARK    3  A    between atoms: C_7  and  N_8 
REMARK       I    between atoms: N_8  and  C_9 
REMARK    4  A    between atoms: C_9  and  C_10 
REMARK    5  A    between atoms: C_10  and  O_11 
REMARK    6  A    between atoms: O_11  and  C_12 
ROOT
HETATM    1  C   UNL     1      44.335 -12.655   8.112  1.00  0.00     0.278 C 
ENDROOT
BRANCH   1   2
HETATM    2  C   UNL     1      44.859 -13.794   7.232  1.00  0.00     0.246 C 
HETATM    3  N   UNL     1      44.087 -14.939   7.333  1.00  0.00    -0.325 N 
HETATM    4  H   UNL     1      43.387 -14.920   8.070  1.00  0.00     0.169 HD
HETATM    5  O   UNL     1      45.810 -13.614   6.475  1.00  0.00    -0.271 OA
BRANCH   3   6
HETATM    6  C   UNL     1      44.147 -16.095   6.532  1.00  0.00     0.034 A 
HETATM    7  C   UNL     1      43.372 -16.289   5.387  1.00  0.00     0.030 A 
HETATM    8  C   UNL     1      43.440 -17.493   4.673  1.00  0.00     0.020 A 
HETATM    9  C   UNL     1      44.288 -18.521   5.099  1.00  0.00     0.039 A 
HETATM   10  C   UNL     1      45.084 -18.321   6.233  1.00  0.00     0.020 A 
HETATM   11  C   UNL     1      45.013 -17.116   6.942  1.00  0.00     0.030 A 
BRANCH   9  12
HETATM   12  C   UNL     1      44.367 -19.833   4.400  1.00  0.00     0.292 C 
HETATM   13  O   UNL     1      44.539 -19.947   3.198  1.00  0.00    -0.259 OA
BRANCH  12  14
HETATM   14  O   UNL     1      44.256 -20.853   5.288  1.00  0.00    -0.323 OA
HETATM   15  C   UNL     1      45.102 -21.968   5.003  1.00  0.00     0.213 C 
ENDBRANCH  12  14
ENDBRANCH   9  12
ENDBRANCH   3   6
ENDBRANCH   1   2
BRANCH   1  16
HETATM   16  O   UNL     1      45.141 -12.507   9.282  1.00  0.00    -0.342 OA
BRANCH  16  17
HETATM   17  C   UNL     1      44.471 -12.005  10.369  1.00  0.00     0.071 A 
HETATM   18  C   UNL     1      44.218 -10.629  10.340  1.00  0.00     0.067 A 
HETATM   19  C   UNL     1      43.594 -10.053  11.457  1.00  0.00     0.046 A 
HETATM   20  C   UNL     1      43.240 -10.791  12.584  1.00  0.00     0.003 A 
HETATM   21  N   UNL     1      43.222  -8.750  11.697  1.00  0.00    -0.355 N 
HETATM   22  C   UNL     1      43.511 -12.174  12.594  1.00  0.00     0.017 A 
HETATM   23  C   UNL     1      42.664  -9.885  13.530  1.00  0.00     0.003 A 
HETATM   24  C   UNL     1      44.131 -12.767  11.486  1.00  0.00     0.038 A 
HETATM   25  C   UNL     1      42.667  -8.619  12.949  1.00  0.00     0.043 A 
HETATM   26  C   UNL     1      42.149 -10.028  14.835  1.00  0.00     0.014 A 
HETATM   27  C   UNL     1      42.176  -7.483  13.606  1.00  0.00     0.030 A 
HETATM   28  C   UNL     1      41.673  -7.651  14.901  1.00  0.00     0.002 A 
HETATM   29  C   UNL     1      41.660  -8.903  15.509  1.00  0.00     0.001 A 
HETATM   30  H   UNL     1      43.351  -7.988  11.048  1.00  0.00     0.166 HD
ENDBRANCH  16  17
ENDBRANCH   1  16
TORSDOF 6
ENDMDL
MODEL 4
REMARK VINA RESULT:      -8.6      5.930      9.751
REMARK  6 active torsions:
REMARK  status: ('A' for Active; 'I' for Inactive)
REMARK    1  A    between atoms: O_2  and  C_3 
REMARK    2  A    between atoms: C_3  and  C_4 
REMARK    3  A    between atoms: C_7  and  N_8 
REMARK       I    between atoms: N_8  and  C_9 
REMARK    4  A    between atoms: C_9  and  C_10 
REMARK    5  A    between atoms: C_10  and  O_11 
REMARK    6  A    between atoms: O_11  and  C_12 
ROOT
HETATM    1  C   UNL     1      41.641 -14.323   4.398  1.00  0.00     0.278 C 
ENDROOT
BRANCH   1   2
HETATM    2  C   UNL     1      40.758 -14.441   3.152  1.00  0.00     0.246 C 
HETATM    3  N   UNL     1      41.359 -13.905   2.025  1.00  0.00    -0.325 N 
HETATM    4  H   UNL     1      42.214 -13.385   2.202  1.00  0.00     0.169 HD
HETATM    5  O   UNL     1      39.687 -15.040   3.198  1.00  0.00    -0.271 OA
BRANCH   3   6
HETATM    6  C   UNL     1      40.938 -14.015   0.687  1.00  0.00     0.034 A 
HETATM    7  C   UNL     1      40.094 -13.098   0.058  1.00  0.00     0.030 A 
HETATM    8  C   UNL     1      39.667 -13.305  -1.261  1.00  0.00     0.020 A 
HETATM    9  C   UNL     1      40.081 -14.439  -1.968  1.00  0.00     0.039 A 
HETATM   10  C   UNL     1      40.947 -15.349  -1.349  1.00  0.00     0.020 A 
HETATM   11  C   UNL     1      41.372 -15.136  -0.032  1.00  0.00     0.030 A 
BRANCH   9  12
HETATM   12  C   UNL     1      39.624 -14.727  -3.355  1.00  0.00     0.292 C 
HETATM   13  O   UNL     1      40.258 -15.406  -4.146  1.00  0.00    -0.259 OA
BRANCH  12  14
HETATM   14  O   UNL     1      38.410 -14.164  -3.583  1.00  0.00    -0.323 OA
HETATM   15  C   UNL     1      37.340 -15.105  -3.677  1.00  0.00     0.213 C 
ENDBRANCH  12  14
ENDBRANCH   9  12
ENDBRANCH   3   6
ENDBRANCH   1   2
BRANCH   1  16
HETATM   16  O   UNL     1      43.007 -14.589   4.076  1.00  0.00    -0.342 OA
BRANCH  16  17
HETATM   17  C   UNL     1      43.396 -15.888   4.287  1.00  0.00     0.071 A 
HETATM   18  C   UNL     1      43.468 -16.691   3.144  1.00  0.00     0.067 A 
HETATM   19  C   UNL     1      43.797 -18.044   3.312  1.00  0.00     0.046 A 
HETATM   20  C   UNL     1      44.033 -18.611   4.563  1.00  0.00     0.003 A 
HETATM   21  N   UNL     1      43.945 -19.048   2.383  1.00  0.00    -0.355 N 
HETATM   22  C   UNL     1      43.948 -17.785   5.701  1.00  0.00     0.017 A 
HETATM   23  C   UNL     1      44.303 -20.001   4.363  1.00  0.00     0.003 A 
HETATM   24  C   UNL     1      43.623 -16.429   5.552  1.00  0.00     0.038 A 
HETATM   25  C   UNL     1      44.240 -20.245   2.993  1.00  0.00     0.043 A 
HETATM   26  C   UNL     1      44.586 -21.079   5.228  1.00  0.00     0.014 A 
HETATM   27  C   UNL     1      44.450 -21.515   2.440  1.00  0.00     0.030 A 
HETATM   28  C   UNL     1      44.726 -22.567   3.319  1.00  0.00     0.002 A 
HETATM   29  C   UNL     1      44.792 -22.355   4.694  1.00  0.00     0.001 A 
HETATM   30  H   UNL     1      43.837 -18.927   1.387  1.00  0.00     0.166 HD
ENDBRANCH  16  17
ENDBRANCH   1  16
TORSDOF 6
ENDMDL
MODEL 5
REMARK VINA RESULT:      -8.6      1.680      2.552
REMARK  6 active torsions:
REMARK  status: ('A' for Active; 'I' for Inactive)
REMARK    1  A    between atoms: O_2  and  C_3 
REMARK    2  A    between atoms: C_3  and  C_4 
REMARK    3  A    between atoms: C_7  and  N_8 
REMARK       I    between atoms: N_8  and  C_9 
REMARK    4  A    between atoms: C_9  and  C_10 
REMARK    5  A    between atoms: C_10  and  O_11 
REMARK    6  A    between atoms: O_11  and  C_12 
ROOT
HETATM    1  C   UNL     1      45.282 -13.095   7.909  1.00  0.00     0.278 C 
ENDROOT
BRANCH   1   2
HETATM    2  C   UNL     1      45.057 -11.895   8.833  1.00  0.00     0.246 C 
HETATM    3  N   UNL     1      43.846 -11.964   9.504  1.00  0.00    -0.325 N 
HETATM    4  H   UNL     1      43.222 -12.701   9.187  1.00  0.00     0.169 HD
HETATM    5  O   UNL     1      45.934 -11.049   8.987  1.00  0.00    -0.271 OA
BRANCH   3   6
HETATM    6  C   UNL     1      43.402 -11.157  10.567  1.00  0.00     0.034 A 
HETATM    7  C   UNL     1      42.871  -9.876  10.404  1.00  0.00     0.030 A 
HETATM    8  C   UNL     1      42.505  -9.105  11.516  1.00  0.00     0.020 A 
HETATM    9  C   UNL     1      42.668  -9.610  12.810  1.00  0.00     0.039 A 
HETATM   10  C   UNL     1      43.178 -10.903  12.978  1.00  0.00     0.020 A 
HETATM   11  C   UNL     1      43.540 -11.669  11.863  1.00  0.00     0.030 A 
BRANCH   9  12
HETATM   12  C   UNL     1      42.335  -8.817  14.025  1.00  0.00     0.292 C 
HETATM   13  O   UNL     1      41.899  -7.678  13.988  1.00  0.00    -0.259 OA
BRANCH  12  14
HETATM   14  O   UNL     1      42.551  -9.549  15.147  1.00  0.00    -0.323 OA
HETATM   15  C   UNL     1      41.543  -9.395  16.147  1.00  0.00     0.213 C 
ENDBRANCH  12  14
ENDBRANCH   9  12
ENDBRANCH   3   6
ENDBRANCH   1   2
BRANCH   1  16
HETATM   16  O   UNL     1      44.314 -14.115   8.160  1.00  0.00    -0.342 OA
BRANCH  16  17
HETATM   17  C   UNL     1      44.149 -15.004   7.127  1.00  0.00     0.071 A 
HETATM   18  C   UNL     1      43.876 -14.436   5.878  1.00  0.00     0.067 A 
HETATM   19  C   UNL     1      43.635 -15.303   4.802  1.00  0.00     0.046 A 
HETATM   20  C   UNL     1      43.641 -16.689   4.936  1.00  0.00     0.003 A 
HETATM   21  N   UNL     1      43.354 -15.030   3.483  1.00  0.00    -0.355 N 
HETATM   22  C   UNL     1      43.911 -17.239   6.205  1.00  0.00     0.017 A 
HETATM   23  C   UNL     1      43.325 -17.249   3.659  1.00  0.00     0.003 A 
HETATM   24  C   UNL     1      44.157 -16.389   7.292  1.00  0.00     0.038 A 
HETATM   25  C   UNL     1      43.151 -16.189   2.771  1.00  0.00     0.043 A 
HETATM   26  C   UNL     1      43.163 -18.565   3.178  1.00  0.00     0.014 A 
HETATM   27  C   UNL     1      42.825 -16.377   1.422  1.00  0.00     0.030 A 
HETATM   28  C   UNL     1      42.666 -17.692   0.971  1.00  0.00     0.002 A 
HETATM   29  C   UNL     1      42.830 -18.772   1.835  1.00  0.00     0.001 A 
HETATM   30  H   UNL     1      43.291 -14.101   3.090  1.00  0.00     0.166 HD
ENDBRANCH  16  17
ENDBRANCH   1  16
TORSDOF 6
ENDMDL
MODEL 6
REMARK VINA RESULT:      -8.6      3.417     10.585
REMARK  6 active torsions:
REMARK  status: ('A' for Active; 'I' for Inactive)
REMARK    1  A    between atoms: O_2  and  C_3 
REMARK    2  A    between atoms: C_3  and  C_4 
REMARK    3  A    between atoms: C_7  and  N_8 
REMARK       I    between atoms: N_8  and  C_9 
REMARK    4  A    between atoms: C_9  and  C_10 
REMARK    5  A    between atoms: C_10  and  O_11 
REMARK    6  A    between atoms: O_11  and  C_12 
ROOT
HETATM    1  C   UNL     1      39.073 -12.728   6.461  1.00  0.00     0.278 C 
ENDROOT
BRANCH   1   2
HETATM    2  C   UNL     1      40.240 -13.456   5.787  1.00  0.00     0.246 C 
HETATM    3  N   UNL     1      40.517 -14.676   6.383  1.00  0.00    -0.325 N 
HETATM    4  H   UNL     1      40.024 -14.849   7.254  1.00  0.00     0.169 HD
HETATM    5  O   UNL     1      40.766 -12.996   4.777  1.00  0.00    -0.271 OA
BRANCH   3   6
HETATM    6  C   UNL     1      41.372 -15.691   5.915  1.00  0.00     0.034 A 
HETATM    7  C   UNL     1      40.934 -16.813   5.209  1.00  0.00     0.030 A 
HETATM    8  C   UNL     1      41.836 -17.816   4.827  1.00  0.00     0.020 A 
HETATM    9  C   UNL     1      43.192 -17.706   5.150  1.00  0.00     0.039 A 
HETATM   10  C   UNL     1      43.639 -16.572   5.837  1.00  0.00     0.020 A 
HETATM   11  C   UNL     1      42.734 -15.572   6.214  1.00  0.00     0.030 A 
BRANCH   9  12
HETATM   12  C   UNL     1      44.184 -18.762   4.805  1.00  0.00     0.292 C 
HETATM   13  O   UNL     1      45.156 -19.023   5.493  1.00  0.00    -0.259 OA
BRANCH  12  14
HETATM   14  O   UNL     1      43.828 -19.393   3.658  1.00  0.00    -0.323 OA
HETATM   15  C   UNL     1      44.735 -20.420   3.253  1.00  0.00     0.213 C 
ENDBRANCH  12  14
ENDBRANCH   9  12
ENDBRANCH   3   6
ENDBRANCH   1   2
BRANCH   1  16
HETATM   16  O   UNL     1      39.383 -11.347   6.655  1.00  0.00    -0.342 OA
BRANCH  16  17
HETATM   17  C   UNL     1      40.185 -11.096   7.739  1.00  0.00     0.071 A 
HETATM   18  C   UNL     1      39.607 -11.341   8.990  1.00  0.00     0.067 A 
HETATM   19  C   UNL     1      40.362 -11.038  10.132  1.00  0.00     0.046 A 
HETATM   20  C   UNL     1      41.642 -10.493  10.066  1.00  0.00     0.003 A 
HETATM   21  N   UNL     1      40.056 -11.181  11.466  1.00  0.00    -0.355 N 
HETATM   22  C   UNL     1      42.202 -10.248   8.796  1.00  0.00     0.017 A 
HETATM   23  C   UNL     1      42.093 -10.283  11.407  1.00  0.00     0.003 A 
HETATM   24  C   UNL     1      41.464 -10.547   7.643  1.00  0.00     0.038 A 
HETATM   25  C   UNL     1      41.082 -10.721  12.260  1.00  0.00     0.043 A 
HETATM   26  C   UNL     1      43.270  -9.750  11.973  1.00  0.00     0.014 A 
HETATM   27  C   UNL     1      41.188 -10.657  13.655  1.00  0.00     0.030 A 
HETATM   28  C   UNL     1      42.363 -10.121  14.192  1.00  0.00     0.002 A 
HETATM   29  C   UNL     1      43.390  -9.672  13.365  1.00  0.00     0.001 A 
HETATM   30  H   UNL     1      39.189 -11.559  11.819  1.00  0.00     0.166 HD
ENDBRANCH  16  17
ENDBRANCH   1  16
TORSDOF 6
ENDMDL
MODEL 7
REMARK VINA RESULT:      -8.3      3.938      5.009
REMARK  6 active torsions:
REMARK  status: ('A' for Active; 'I' for Inactive)
REMARK    1  A    between atoms: O_2  and  C_3 
REMARK    2  A    between atoms: C_3  and  C_4 
REMARK    3  A    between atoms: C_7  and  N_8 
REMARK       I    between atoms: N_8  and  C_9 
REMARK    4  A    between atoms: C_9  and  C_10 
REMARK    5  A    between atoms: C_10  and  O_11 
REMARK    6  A    between atoms: O_11  and  C_12 
ROOT
HETATM    1  C   UNL     1      41.595 -14.612   1.599  1.00  0.00     0.278 C 
ENDROOT
BRANCH   1   2
HETATM    2  C   UNL     1      40.971 -13.539   2.496  1.00  0.00     0.246 C 
HETATM    3  N   UNL     1      41.061 -13.857   3.841  1.00  0.00    -0.325 N 
HETATM    4  H   UNL     1      41.383 -14.801   4.038  1.00  0.00     0.169 HD
HETATM    5  O   UNL     1      40.540 -12.494   2.015  1.00  0.00    -0.271 OA
BRANCH   3   6
HETATM    6  C   UNL     1      40.784 -13.029   4.944  1.00  0.00     0.034 A 
HETATM    7  C   UNL     1      41.642 -12.026   5.401  1.00  0.00     0.030 A 
HETATM    8  C   UNL     1      41.327 -11.281   6.545  1.00  0.00     0.020 A 
HETATM    9  C   UNL     1      40.144 -11.531   7.249  1.00  0.00     0.039 A 
HETATM   10  C   UNL     1      39.270 -12.519   6.781  1.00  0.00     0.020 A 
HETATM   11  C   UNL     1      39.588 -13.260   5.636  1.00  0.00     0.030 A 
BRANCH   9  12
HETATM   12  C   UNL     1      39.783 -10.797   8.492  1.00  0.00     0.292 C 
HETATM   13  O   UNL     1      40.468 -10.805   9.502  1.00  0.00    -0.259 OA
BRANCH  12  14
HETATM   14  O   UNL     1      38.626 -10.110   8.322  1.00  0.00    -0.323 OA
HETATM   15  C   UNL     1      38.795  -8.694   8.243  1.00  0.00     0.213 C 
ENDBRANCH  12  14
ENDBRANCH   9  12
ENDBRANCH   3   6
ENDBRANCH   1   2
BRANCH   1  16
HETATM   16  O   UNL     1      42.911 -14.942   2.046  1.00  0.00    -0.342 OA
BRANCH  16  17
HETATM   17  C   UNL     1      43.142 -16.289   2.176  1.00  0.00     0.071 A 
HETATM   18  C   UNL     1      43.408 -16.735   3.475  1.00  0.00     0.067 A 
HETATM   19  C   UNL     1      43.716 -18.091   3.653  1.00  0.00     0.046 A 
HETATM   20  C   UNL     1      43.781 -18.993   2.594  1.00  0.00     0.003 A 
HETATM   21  N   UNL     1      44.007 -18.796   4.799  1.00  0.00    -0.355 N 
HETATM   22  C   UNL     1      43.516 -18.521   1.293  1.00  0.00     0.017 A 
HETATM   23  C   UNL     1      44.151 -20.266   3.132  1.00  0.00     0.003 A 
HETATM   24  C   UNL     1      43.205 -17.169   1.096  1.00  0.00     0.038 A 
HETATM   25  C   UNL     1      44.285 -20.112   4.511  1.00  0.00     0.043 A 
HETATM   26  C   UNL     1      44.392 -21.536   2.568  1.00  0.00     0.014 A 
HETATM   27  C   UNL     1      44.647 -21.167   5.358  1.00  0.00     0.030 A 
HETATM   28  C   UNL     1      44.884 -22.416   4.774  1.00  0.00     0.002 A 
HETATM   29  C   UNL     1      44.760 -22.600   3.399  1.00  0.00     0.001 A 
HETATM   30  H   UNL     1      44.029 -18.399   5.726  1.00  0.00     0.166 HD
ENDBRANCH  16  17
ENDBRANCH   1  16
TORSDOF 6
ENDMDL
MODEL 8
REMARK VINA RESULT:      -8.3      8.352     12.105
REMARK  6 active torsions:
REMARK  status: ('A' for Active; 'I' for Inactive)
REMARK    1  A    between atoms: O_2  and  C_3 
REMARK    2  A    between atoms: C_3  and  C_4 
REMARK    3  A    between atoms: C_7  and  N_8 
REMARK       I    between atoms: N_8  and  C_9 
REMARK    4  A    between atoms: C_9  and  C_10 
REMARK    5  A    between atoms: C_10  and  O_11 
REMARK    6  A    between atoms: O_11  and  C_12 
ROOT
HETATM    1  C   UNL     1      41.446 -15.339  -1.030  1.00  0.00     0.278 C 
ENDROOT
BRANCH   1   2
HETATM    2  C   UNL     1      40.566 -15.107  -2.262  1.00  0.00     0.246 C 
HETATM    3  N   UNL     1      39.284 -14.704  -1.928  1.00  0.00    -0.325 N 
HETATM    4  H   UNL     1      39.061 -14.761  -0.938  1.00  0.00     0.169 HD
HETATM    5  O   UNL     1      41.036 -15.197  -3.394  1.00  0.00    -0.271 OA
BRANCH   3   6
HETATM    6  C   UNL     1      38.282 -14.212  -2.785  1.00  0.00     0.034 A 
HETATM    7  C   UNL     1      37.966 -12.859  -2.919  1.00  0.00     0.030 A 
HETATM    8  C   UNL     1      36.913 -12.447  -3.747  1.00  0.00     0.020 A 
HETATM    9  C   UNL     1      36.161 -13.390  -4.454  1.00  0.00     0.039 A 
HETATM   10  C   UNL     1      36.489 -14.746  -4.342  1.00  0.00     0.020 A 
HETATM   11  C   UNL     1      37.543 -15.152  -3.515  1.00  0.00     0.030 A 
BRANCH   9  12
HETATM   12  C   UNL     1      35.007 -13.010  -5.314  1.00  0.00     0.292 C 
HETATM   13  O   UNL     1      35.121 -12.388  -6.358  1.00  0.00    -0.259 OA
BRANCH  12  14
HETATM   14  O   UNL     1      33.846 -13.478  -4.789  1.00  0.00    -0.323 OA
HETATM   15  C   UNL     1      32.993 -12.461  -4.263  1.00  0.00     0.213 C 
ENDBRANCH  12  14
ENDBRANCH   9  12
ENDBRANCH   3   6
ENDBRANCH   1   2
BRANCH   1  16
HETATM   16  O   UNL     1      40.646 -15.470   0.145  1.00  0.00    -0.342 OA
BRANCH  16  17
HETATM   17  C   UNL     1      41.263 -16.129   1.179  1.00  0.00     0.071 A 
HETATM   18  C   UNL     1      42.153 -17.142   0.804  1.00  0.00     0.067 A 
HETATM   19  C   UNL     1      42.761 -17.890   1.822  1.00  0.00     0.046 A 
HETATM   20  C   UNL     1      42.499 -17.675   3.173  1.00  0.00     0.003 A 
HETATM   21  N   UNL     1      43.667 -18.924   1.749  1.00  0.00    -0.355 N 
HETATM   22  C   UNL     1      41.595 -16.654   3.527  1.00  0.00     0.017 A 
HETATM   23  C   UNL     1      43.258 -18.632   3.918  1.00  0.00     0.003 A 
HETATM   24  C   UNL     1      40.979 -15.894   2.523  1.00  0.00     0.038 A 
HETATM   25  C   UNL     1      43.976 -19.398   3.002  1.00  0.00     0.043 A 
HETATM   26  C   UNL     1      43.390 -18.922   5.292  1.00  0.00     0.014 A 
HETATM   27  C   UNL     1      44.827 -20.441   3.391  1.00  0.00     0.030 A 
HETATM   28  C   UNL     1      44.939 -20.711   4.759  1.00  0.00     0.002 A 
HETATM   29  C   UNL     1      44.231 -19.965   5.698  1.00  0.00     0.001 A 
HETATM   30  H   UNL     1      44.045 -19.295   0.890  1.00  0.00     0.166 HD
ENDBRANCH  16  17
ENDBRANCH   1  16
TORSDOF 6
ENDMDL
MODEL 9
REMARK VINA RESULT:      -8.2      8.265     12.213
REMARK  6 active torsions:
REMARK  status: ('A' for Active; 'I' for Inactive)
REMARK    1  A    between atoms: O_2  and  C_3 
REMARK    2  A    between atoms: C_3  and  C_4 
REMARK    3  A    between atoms: C_7  and  N_8 
REMARK       I    between atoms: N_8  and  C_9 
REMARK    4  A    between atoms: C_9  and  C_10 
REMARK    5  A    between atoms: C_10  and  O_11 
REMARK    6  A    between atoms: O_11  and  C_12 
ROOT
HETATM    1  C   UNL     1      41.383 -14.450  -0.432  1.00  0.00     0.278 C 
ENDROOT
BRANCH   1   2
HETATM    2  C   UNL     1      40.610 -14.388  -1.752  1.00  0.00     0.246 C 
HETATM    3  N   UNL     1      39.245 -14.248  -1.560  1.00  0.00    -0.325 N 
HETATM    4  H   UNL     1      38.934 -14.357  -0.599  1.00  0.00     0.169 HD
HETATM    5  O   UNL     1      41.205 -14.373  -2.827  1.00  0.00    -0.271 OA
BRANCH   3   6
HETATM    6  C   UNL     1      38.262 -13.959  -2.525  1.00  0.00     0.034 A 
HETATM    7  C   UNL     1      37.712 -12.690  -2.719  1.00  0.00     0.030 A 
HETATM    8  C   UNL     1      36.691 -12.489  -3.658  1.00  0.00     0.020 A 
HETATM    9  C   UNL     1      36.207 -13.559  -4.417  1.00  0.00     0.039 A 
HETATM   10  C   UNL     1      36.772 -14.828  -4.242  1.00  0.00     0.020 A 
HETATM   11  C   UNL     1      37.793 -15.024  -3.304  1.00  0.00     0.030 A 
BRANCH   9  12
HETATM   12  C   UNL     1      35.097 -13.408  -5.396  1.00  0.00     0.292 C 
HETATM   13  O   UNL     1      34.339 -12.451  -5.413  1.00  0.00    -0.259 OA
BRANCH  12  14
HETATM   14  O   UNL     1      35.080 -14.451  -6.264  1.00  0.00    -0.323 OA
HETATM   15  C   UNL     1      35.383 -14.091  -7.613  1.00  0.00     0.213 C 
ENDBRANCH  12  14
ENDBRANCH   9  12
ENDBRANCH   3   6
ENDBRANCH   1   2
BRANCH   1  16
HETATM   16  O   UNL     1      40.645 -15.176   0.552  1.00  0.00    -0.342 OA
BRANCH  16  17
HETATM   17  C   UNL     1      41.363 -16.160   1.184  1.00  0.00     0.071 A 
HETATM   18  C   UNL     1      41.153 -16.271   2.563  1.00  0.00     0.067 A 
HETATM   19  C   UNL     1      41.910 -17.218   3.268  1.00  0.00     0.046 A 
HETATM   20  C   UNL     1      42.863 -18.027   2.654  1.00  0.00     0.003 A 
HETATM   21  N   UNL     1      41.908 -17.545   4.605  1.00  0.00    -0.355 N 
HETATM   22  C   UNL     1      43.064 -17.893   1.266  1.00  0.00     0.017 A 
HETATM   23  C   UNL     1      43.461 -18.838   3.670  1.00  0.00     0.003 A 
HETATM   24  C   UNL     1      42.314 -16.954   0.544  1.00  0.00     0.038 A 
HETATM   25  C   UNL     1      42.844 -18.515   4.877  1.00  0.00     0.043 A 
HETATM   26  C   UNL     1      44.479 -19.814   3.672  1.00  0.00     0.014 A 
HETATM   27  C   UNL     1      43.193 -19.122   6.091  1.00  0.00     0.030 A 
HETATM   28  C   UNL     1      44.208 -20.084   6.066  1.00  0.00     0.002 A 
HETATM   29  C   UNL     1      44.844 -20.426   4.876  1.00  0.00     0.001 A 
HETATM   30  H   UNL     1      41.309 -17.120   5.298  1.00  0.00     0.166 HD
ENDBRANCH  16  17
ENDBRANCH   1  16
TORSDOF 6
ENDMDL
MODEL 10
REMARK VINA RESULT:      -8.1      6.099     10.028
REMARK  6 active torsions:
REMARK  status: ('A' for Active; 'I' for Inactive)
REMARK    1  A    between atoms: O_2  and  C_3 
REMARK    2  A    between atoms: C_3  and  C_4 
REMARK    3  A    between atoms: C_7  and  N_8 
REMARK       I    between atoms: N_8  and  C_9 
REMARK    4  A    between atoms: C_9  and  C_10 
REMARK    5  A    between atoms: C_10  and  O_11 
REMARK    6  A    between atoms: O_11  and  C_12 
ROOT
HETATM    1  C   UNL     1      42.003 -12.687   3.513  1.00  0.00     0.278 C 
ENDROOT
BRANCH   1   2
HETATM    2  C   UNL     1      42.989 -13.854   3.617  1.00  0.00     0.246 C 
HETATM    3  N   UNL     1      42.352 -15.084   3.641  1.00  0.00    -0.325 N 
HETATM    4  H   UNL     1      41.342 -15.041   3.739  1.00  0.00     0.169 HD
HETATM    5  O   UNL     1      44.201 -13.656   3.582  1.00  0.00    -0.271 OA
BRANCH   3   6
HETATM    6  C   UNL     1      42.934 -16.361   3.528  1.00  0.00     0.034 A 
HETATM    7  C   UNL     1      43.197 -16.991   2.310  1.00  0.00     0.030 A 
HETATM    8  C   UNL     1      43.722 -18.290   2.275  1.00  0.00     0.020 A 
HETATM    9  C   UNL     1      43.991 -18.976   3.464  1.00  0.00     0.039 A 
HETATM   10  C   UNL     1      43.752 -18.338   4.687  1.00  0.00     0.020 A 
HETATM   11  C   UNL     1      43.229 -17.040   4.717  1.00  0.00     0.030 A 
BRANCH   9  12
HETATM   12  C   UNL     1      44.509 -20.371   3.482  1.00  0.00     0.292 C 
HETATM   13  O   UNL     1      45.411 -20.746   4.215  1.00  0.00    -0.259 OA
BRANCH  12  14
HETATM   14  O   UNL     1      43.820 -21.148   2.609  1.00  0.00    -0.323 OA
HETATM   15  C   UNL     1      44.644 -21.988   1.800  1.00  0.00     0.213 C 
ENDBRANCH  12  14
ENDBRANCH   9  12
ENDBRANCH   3   6
ENDBRANCH   1   2
BRANCH   1  16
HETATM   16  O   UNL     1      42.090 -12.065   2.230  1.00  0.00    -0.342 OA
BRANCH  16  17
HETATM   17  C   UNL     1      41.240 -12.590   1.289  1.00  0.00     0.071 A 
HETATM   18  C   UNL     1      41.815 -13.501   0.396  1.00  0.00     0.067 A 
HETATM   19  C   UNL     1      41.006 -14.017  -0.626  1.00  0.00     0.046 A 
HETATM   20  C   UNL     1      39.673 -13.647  -0.791  1.00  0.00     0.003 A 
HETATM   21  N   UNL     1      41.297 -14.919  -1.624  1.00  0.00    -0.355 N 
HETATM   22  C   UNL     1      39.117 -12.723   0.116  1.00  0.00     0.017 A 
HETATM   23  C   UNL     1      39.172 -14.334  -1.941  1.00  0.00     0.003 A 
HETATM   24  C   UNL     1      39.910 -12.198   1.146  1.00  0.00     0.038 A 
HETATM   25  C   UNL     1      40.209 -15.120  -2.441  1.00  0.00     0.043 A 
HETATM   26  C   UNL     1      37.930 -14.350  -2.609  1.00  0.00     0.014 A 
HETATM   27  C   UNL     1      40.065 -15.929  -3.576  1.00  0.00     0.030 A 
HETATM   28  C   UNL     1      38.825 -15.925  -4.222  1.00  0.00     0.002 A 
HETATM   29  C   UNL     1      37.771 -15.147  -3.748  1.00  0.00     0.001 A 
HETATM   30  H   UNL     1      42.194 -15.364  -1.751  1.00  0.00     0.166 HD
ENDBRANCH  16  17
ENDBRANCH   1  16
TORSDOF 6
ENDMDL
