MODEL 1
REMARK VINA RESULT:      -8.2      0.000      0.000
REMARK  5 active torsions:
REMARK  status: ('A' for Active; 'I' for Inactive)
REMARK    1  A    between atoms: C_2  and  N_3 
REMARK    2  A    between atoms: C_2  and  C_19 
REMARK       I    between atoms: N_3  and  C_4 
REMARK    3  A    between atoms: C_4  and  C_5 
REMARK    4  A    between atoms: C_6  and  O_7 
REMARK    5  A    between atoms: O_7  and  C_8 
ROOT
HETATM    1  C   UNL     1      44.656 -19.712   4.636  1.00  0.00     0.065 A 
HETATM    2  C   UNL     1      44.366 -19.463   3.288  1.00  0.00     0.091 A 
HETATM    3  C   UNL     1      44.231 -20.540   2.400  1.00  0.00     0.038 A 
HETATM    4  C   UNL     1      44.338 -21.853   2.863  1.00  0.00     0.003 A 
HETATM    5  C   UNL     1      44.598 -22.101   4.209  1.00  0.00     0.001 A 
HETATM    6  C   UNL     1      44.758 -21.035   5.095  1.00  0.00     0.020 A 
ENDROOT
BRANCH   1   7
HETATM    7  C   UNL     1      44.813 -18.597   5.602  1.00  0.00     0.255 C 
HETATM    8  N   UNL     1      43.662 -17.887   5.873  1.00  0.00    -0.348 N 
HETATM    9  H   UNL     1      42.771 -18.245   5.549  1.00  0.00     0.163 HD
HETATM   10  O   UNL     1      45.904 -18.333   6.091  1.00  0.00    -0.268 OA
BRANCH   8  11
HETATM   11  C   UNL     1      43.640 -16.801   6.847  1.00  0.00     0.115 C 
HETATM   12  C   UNL     1      43.312 -17.380   8.226  1.00  0.00     0.037 C 
BRANCH  11  13
HETATM   13  C   UNL     1      42.719 -15.698   6.361  1.00  0.00    -0.018 A 
HETATM   14  C   UNL     1      43.157 -14.432   5.981  1.00  0.00     0.125 A 
HETATM   15  N   UNL     1      42.352 -13.444   5.523  1.00  0.00    -0.273 NA
HETATM   16  C   UNL     1      41.037 -13.727   5.420  1.00  0.00     0.116 A 
HETATM   17  C   UNL     1      40.490 -14.951   5.756  1.00  0.00     0.020 A 
HETATM   18  C   UNL     1      41.343 -15.944   6.225  1.00  0.00     0.012 A 
ENDBRANCH  11  13
ENDBRANCH   8  11
ENDBRANCH   1   7
BRANCH   2  19
HETATM   19  O   UNL     1      44.329 -18.163   2.833  1.00  0.00    -0.310 OA
BRANCH  19  20
HETATM   20  C   UNL     1      43.136 -17.712   2.312  1.00  0.00     0.076 A 
HETATM   21  C   UNL     1      41.968 -17.623   3.073  1.00  0.00     0.037 A 
HETATM   22  C   UNL     1      40.796 -17.142   2.488  1.00  0.00     0.003 A 
HETATM   23  C   UNL     1      40.799 -16.731   1.154  1.00  0.00     0.000 A 
HETATM   24  C   UNL     1      41.975 -16.790   0.406  1.00  0.00     0.003 A 
HETATM   25  C   UNL     1      43.147 -17.274   0.988  1.00  0.00     0.037 A 
ENDBRANCH  19  20
ENDBRANCH   2  19
TORSDOF 5
ENDMDL
MODEL 2
REMARK VINA RESULT:      -7.8      2.092      4.822
REMARK  5 active torsions:
REMARK  status: ('A' for Active; 'I' for Inactive)
REMARK    1  A    between atoms: C_2  and  N_3 
REMARK    2  A    between atoms: C_2  and  C_19 
REMARK       I    between atoms: N_3  and  C_4 
REMARK    3  A    between atoms: C_4  and  C_5 
REMARK    4  A    between atoms: C_6  and  O_7 
REMARK    5  A    between atoms: O_7  and  C_8 
ROOT
HETATM    1  C   UNL     1      42.786 -17.567   5.642  1.00  0.00     0.065 A 
HETATM    2  C   UNL     1      44.026 -18.111   5.281  1.00  0.00     0.091 A 
HETATM    3  C   UNL     1      45.013 -18.291   6.261  1.00  0.00     0.038 A 
HETATM    4  C   UNL     1      44.748 -17.975   7.595  1.00  0.00     0.003 A 
HETATM    5  C   UNL     1      43.505 -17.462   7.958  1.00  0.00     0.001 A 
HETATM    6  C   UNL     1      42.525 -17.256   6.986  1.00  0.00     0.020 A 
ENDROOT
BRANCH   1   7
HETATM    7  C   UNL     1      41.721 -17.355   4.630  1.00  0.00     0.255 C 
HETATM    8  N   UNL     1      42.108 -16.657   3.506  1.00  0.00    -0.348 N 
HETATM    9  H   UNL     1      43.093 -16.477   3.349  1.00  0.00     0.163 HD
HETATM   10  O   UNL     1      40.581 -17.761   4.818  1.00  0.00    -0.268 OA
BRANCH   8  11
HETATM   11  C   UNL     1      41.193 -16.420   2.395  1.00  0.00     0.115 C 
HETATM   12  C   UNL     1      41.256 -17.614   1.438  1.00  0.00     0.037 C 
BRANCH  11  13
HETATM   13  C   UNL     1      41.481 -15.065   1.776  1.00  0.00    -0.018 A 
HETATM   14  C   UNL     1      42.186 -14.052   2.419  1.00  0.00     0.125 A 
HETATM   15  N   UNL     1      42.472 -12.846   1.871  1.00  0.00    -0.273 NA
HETATM   16  C   UNL     1      42.048 -12.634   0.608  1.00  0.00     0.116 A 
HETATM   17  C   UNL     1      41.350 -13.569  -0.132  1.00  0.00     0.020 A 
HETATM   18  C   UNL     1      41.071 -14.798   0.460  1.00  0.00     0.012 A 
ENDBRANCH  11  13
ENDBRANCH   8  11
ENDBRANCH   1   7
BRANCH   2  19
HETATM   19  O   UNL     1      44.297 -18.355   3.952  1.00  0.00    -0.310 OA
BRANCH  19  20
HETATM   20  C   UNL     1      44.334 -19.671   3.549  1.00  0.00     0.076 A 
HETATM   21  C   UNL     1      44.776 -20.701   4.382  1.00  0.00     0.037 A 
HETATM   22  C   UNL     1      44.772 -22.017   3.917  1.00  0.00     0.003 A 
HETATM   23  C   UNL     1      44.309 -22.303   2.632  1.00  0.00     0.000 A 
HETATM   24  C   UNL     1      43.837 -21.275   1.814  1.00  0.00     0.003 A 
HETATM   25  C   UNL     1      43.842 -19.959   2.276  1.00  0.00     0.037 A 
ENDBRANCH  19  20
ENDBRANCH   2  19
TORSDOF 5
ENDMDL
MODEL 3
REMARK VINA RESULT:      -7.4      1.814      4.454
REMARK  5 active torsions:
REMARK  status: ('A' for Active; 'I' for Inactive)
REMARK    1  A    between atoms: C_2  and  N_3 
REMARK    2  A    between atoms: C_2  and  C_19 
REMARK       I    between atoms: N_3  and  C_4 
REMARK    3  A    between atoms: C_4  and  C_5 
REMARK    4  A    between atoms: C_6  and  O_7 
REMARK    5  A    between atoms: O_7  and  C_8 
ROOT
HETATM    1  C   UNL     1      43.625 -19.497   2.306  1.00  0.00     0.065 A 
HETATM    2  C   UNL     1      44.349 -19.389   3.500  1.00  0.00     0.091 A 
HETATM    3  C   UNL     1      44.837 -20.549   4.119  1.00  0.00     0.038 A 
HETATM    4  C   UNL     1      44.643 -21.799   3.527  1.00  0.00     0.003 A 
HETATM    5  C   UNL     1      43.947 -21.902   2.325  1.00  0.00     0.001 A 
HETATM    6  C   UNL     1      43.437 -20.756   1.713  1.00  0.00     0.020 A 
ENDROOT
BRANCH   1   7
HETATM    7  C   UNL     1      43.088 -18.291   1.627  1.00  0.00     0.255 C 
HETATM    8  N   UNL     1      41.894 -17.817   2.128  1.00  0.00    -0.348 N 
HETATM    9  H   UNL     1      41.540 -18.189   3.000  1.00  0.00     0.163 HD
HETATM   10  O   UNL     1      43.673 -17.788   0.675  1.00  0.00    -0.268 OA
BRANCH   8  11
HETATM   11  C   UNL     1      41.269 -16.606   1.607  1.00  0.00     0.115 C 
HETATM   12  C   UNL     1      41.370 -16.614   0.079  1.00  0.00     0.037 C 
BRANCH  11  13
HETATM   13  C   UNL     1      41.855 -15.390   2.299  1.00  0.00    -0.018 A 
HETATM   14  C   UNL     1      42.172 -14.203   1.644  1.00  0.00     0.125 A 
HETATM   15  N   UNL     1      42.673 -13.100   2.251  1.00  0.00    -0.273 NA
HETATM   16  C   UNL     1      42.860 -13.169   3.585  1.00  0.00     0.116 A 
HETATM   17  C   UNL     1      42.570 -14.289   4.341  1.00  0.00     0.020 A 
HETATM   18  C   UNL     1      42.057 -15.406   3.688  1.00  0.00     0.012 A 
ENDBRANCH  11  13
ENDBRANCH   8  11
ENDBRANCH   1   7
BRANCH   2  19
HETATM   19  O   UNL     1      44.476 -18.158   4.106  1.00  0.00    -0.310 OA
BRANCH  19  20
HETATM   20  C   UNL     1      44.161 -18.082   5.445  1.00  0.00     0.076 A 
HETATM   21  C   UNL     1      45.127 -18.162   6.451  1.00  0.00     0.037 A 
HETATM   22  C   UNL     1      44.742 -18.061   7.789  1.00  0.00     0.003 A 
HETATM   23  C   UNL     1      43.401 -17.858   8.117  1.00  0.00     0.000 A 
HETATM   24  C   UNL     1      42.443 -17.745   7.108  1.00  0.00     0.003 A 
HETATM   25  C   UNL     1      42.825 -17.849   5.771  1.00  0.00     0.037 A 
ENDBRANCH  19  20
ENDBRANCH   2  19
TORSDOF 5
ENDMDL
MODEL 4
REMARK VINA RESULT:      -7.2      2.139      5.380
REMARK  5 active torsions:
REMARK  status: ('A' for Active; 'I' for Inactive)
REMARK    1  A    between atoms: C_2  and  N_3 
REMARK    2  A    between atoms: C_2  and  C_19 
REMARK       I    between atoms: N_3  and  C_4 
REMARK    3  A    between atoms: C_4  and  C_5 
REMARK    4  A    between atoms: C_6  and  O_7 
REMARK    5  A    between atoms: O_7  and  C_8 
ROOT
HETATM    1  C   UNL     1      40.559 -14.690   4.018  1.00  0.00     0.065 A 
HETATM    2  C   UNL     1      40.442 -15.604   2.963  1.00  0.00     0.091 A 
HETATM    3  C   UNL     1      39.866 -15.192   1.753  1.00  0.00     0.038 A 
HETATM    4  C   UNL     1      39.455 -13.868   1.582  1.00  0.00     0.003 A 
HETATM    5  C   UNL     1      39.599 -12.952   2.622  1.00  0.00     0.001 A 
HETATM    6  C   UNL     1      40.148 -13.359   3.839  1.00  0.00     0.020 A 
ENDROOT
BRANCH   1   7
HETATM    7  C   UNL     1      41.157 -15.094   5.316  1.00  0.00     0.255 C 
HETATM    8  N   UNL     1      42.534 -15.138   5.341  1.00  0.00    -0.348 N 
HETATM    9  H   UNL     1      43.056 -14.749   4.565  1.00  0.00     0.163 HD
HETATM   10  O   UNL     1      40.451 -15.385   6.273  1.00  0.00    -0.268 OA
BRANCH   8  11
HETATM   11  C   UNL     1      43.272 -15.458   6.558  1.00  0.00     0.115 C 
HETATM   12  C   UNL     1      44.470 -14.511   6.674  1.00  0.00     0.037 C 
BRANCH  11  13
HETATM   13  C   UNL     1      43.599 -16.939   6.583  1.00  0.00    -0.018 A 
HETATM   14  C   UNL     1      43.362 -17.767   7.677  1.00  0.00     0.125 A 
HETATM   15  N   UNL     1      43.626 -19.096   7.707  1.00  0.00    -0.273 NA
HETATM   16  C   UNL     1      44.141 -19.641   6.587  1.00  0.00     0.116 A 
HETATM   17  C   UNL     1      44.407 -18.921   5.437  1.00  0.00     0.020 A 
HETATM   18  C   UNL     1      44.125 -17.558   5.438  1.00  0.00     0.012 A 
ENDBRANCH  11  13
ENDBRANCH   8  11
ENDBRANCH   1   7
BRANCH   2  19
HETATM   19  O   UNL     1      40.789 -16.922   3.168  1.00  0.00    -0.310 OA
BRANCH  19  20
HETATM   20  C   UNL     1      41.955 -17.363   2.582  1.00  0.00     0.076 A 
HETATM   21  C   UNL     1      42.959 -16.492   2.153  1.00  0.00     0.037 A 
HETATM   22  C   UNL     1      44.124 -17.006   1.581  1.00  0.00     0.003 A 
HETATM   23  C   UNL     1      44.293 -18.386   1.460  1.00  0.00     0.000 A 
HETATM   24  C   UNL     1      43.302 -19.255   1.920  1.00  0.00     0.003 A 
HETATM   25  C   UNL     1      42.136 -18.743   2.488  1.00  0.00     0.037 A 
ENDBRANCH  19  20
ENDBRANCH   2  19
TORSDOF 5
ENDMDL
MODEL 5
REMARK VINA RESULT:      -7.1      2.520      5.858
REMARK  5 active torsions:
REMARK  status: ('A' for Active; 'I' for Inactive)
REMARK    1  A    between atoms: C_2  and  N_3 
REMARK    2  A    between atoms: C_2  and  C_19 
REMARK       I    between atoms: N_3  and  C_4 
REMARK    3  A    between atoms: C_4  and  C_5 
REMARK    4  A    between atoms: C_6  and  O_7 
REMARK    5  A    between atoms: O_7  and  C_8 
ROOT
HETATM    1  C   UNL     1      42.610 -15.321   5.076  1.00  0.00     0.065 A 
HETATM    2  C   UNL     1      42.996 -16.454   5.802  1.00  0.00     0.091 A 
HETATM    3  C   UNL     1      44.032 -16.352   6.743  1.00  0.00     0.038 A 
HETATM    4  C   UNL     1      44.642 -15.121   6.989  1.00  0.00     0.003 A 
HETATM    5  C   UNL     1      44.238 -13.988   6.287  1.00  0.00     0.001 A 
HETATM    6  C   UNL     1      43.225 -14.084   5.332  1.00  0.00     0.020 A 
ENDROOT
BRANCH   1   7
HETATM    7  C   UNL     1      41.523 -15.393   4.068  1.00  0.00     0.255 C 
HETATM    8  N   UNL     1      41.924 -15.743   2.796  1.00  0.00    -0.348 N 
HETATM    9  H   UNL     1      42.866 -16.085   2.650  1.00  0.00     0.163 HD
HETATM   10  O   UNL     1      40.365 -15.131   4.367  1.00  0.00    -0.268 OA
BRANCH   8  11
HETATM   11  C   UNL     1      40.967 -15.915   1.709  1.00  0.00     0.115 C 
HETATM   12  C   UNL     1      40.971 -17.384   1.273  1.00  0.00     0.037 C 
BRANCH  11  13
HETATM   13  C   UNL     1      41.249 -14.904   0.614  1.00  0.00    -0.018 A 
HETATM   14  C   UNL     1      41.715 -13.614   0.851  1.00  0.00     0.125 A 
HETATM   15  N   UNL     1      41.995 -12.707  -0.116  1.00  0.00    -0.273 NA
HETATM   16  C   UNL     1      41.816 -13.102  -1.393  1.00  0.00     0.116 A 
HETATM   17  C   UNL     1      41.370 -14.361  -1.749  1.00  0.00     0.020 A 
HETATM   18  C   UNL     1      41.091 -15.269  -0.733  1.00  0.00     0.012 A 
ENDBRANCH  11  13
ENDBRANCH   8  11
ENDBRANCH   1   7
BRANCH   2  19
HETATM   19  O   UNL     1      42.432 -17.675   5.502  1.00  0.00    -0.310 OA
BRANCH  19  20
HETATM   20  C   UNL     1      43.272 -18.655   5.021  1.00  0.00     0.076 A 
HETATM   21  C   UNL     1      43.826 -19.641   5.841  1.00  0.00     0.037 A 
HETATM   22  C   UNL     1      44.657 -20.615   5.286  1.00  0.00     0.003 A 
HETATM   23  C   UNL     1      44.915 -20.616   3.915  1.00  0.00     0.000 A 
HETATM   24  C   UNL     1      44.333 -19.649   3.094  1.00  0.00     0.003 A 
HETATM   25  C   UNL     1      43.505 -18.673   3.646  1.00  0.00     0.037 A 
ENDBRANCH  19  20
ENDBRANCH   2  19
TORSDOF 5
ENDMDL
MODEL 6
REMARK VINA RESULT:      -7.1      3.121      6.299
REMARK  5 active torsions:
REMARK  status: ('A' for Active; 'I' for Inactive)
REMARK    1  A    between atoms: C_2  and  N_3 
REMARK    2  A    between atoms: C_2  and  C_19 
REMARK       I    between atoms: N_3  and  C_4 
REMARK    3  A    between atoms: C_4  and  C_5 
REMARK    4  A    between atoms: C_6  and  O_7 
REMARK    5  A    between atoms: O_7  and  C_8 
ROOT
HETATM    1  C   UNL     1      41.897 -15.303   3.949  1.00  0.00     0.065 A 
HETATM    2  C   UNL     1      41.822 -16.684   3.727  1.00  0.00     0.091 A 
HETATM    3  C   UNL     1      41.292 -17.517   4.722  1.00  0.00     0.038 A 
HETATM    4  C   UNL     1      40.797 -16.971   5.909  1.00  0.00     0.003 A 
HETATM    5  C   UNL     1      40.845 -15.595   6.117  1.00  0.00     0.001 A 
HETATM    6  C   UNL     1      41.393 -14.760   5.143  1.00  0.00     0.020 A 
ENDROOT
BRANCH   1   7
HETATM    7  C   UNL     1      42.459 -14.393   2.921  1.00  0.00     0.255 C 
HETATM    8  N   UNL     1      41.645 -14.162   1.832  1.00  0.00    -0.348 N 
HETATM    9  H   UNL     1      40.681 -14.470   1.859  1.00  0.00     0.163 HD
HETATM   10  O   UNL     1      43.579 -13.914   3.046  1.00  0.00    -0.268 OA
BRANCH   8  11
HETATM   11  C   UNL     1      42.030 -13.244   0.766  1.00  0.00     0.115 C 
HETATM   12  C   UNL     1      41.353 -11.891   1.009  1.00  0.00     0.037 C 
BRANCH  11  13
HETATM   13  C   UNL     1      41.758 -13.882  -0.583  1.00  0.00    -0.018 A 
HETATM   14  C   UNL     1      41.153 -15.126  -0.745  1.00  0.00     0.125 A 
HETATM   15  N   UNL     1      40.881 -15.699  -1.942  1.00  0.00    -0.273 NA
HETATM   16  C   UNL     1      41.214 -14.997  -3.044  1.00  0.00     0.116 A 
HETATM   17  C   UNL     1      41.808 -13.750  -3.006  1.00  0.00     0.020 A 
HETATM   18  C   UNL     1      42.075 -13.188  -1.761  1.00  0.00     0.012 A 
ENDBRANCH  11  13
ENDBRANCH   8  11
ENDBRANCH   1   7
BRANCH   2  19
HETATM   19  O   UNL     1      42.374 -17.216   2.581  1.00  0.00    -0.310 OA
BRANCH  19  20
HETATM   20  C   UNL     1      43.049 -18.410   2.704  1.00  0.00     0.076 A 
HETATM   21  C   UNL     1      42.892 -19.460   1.796  1.00  0.00     0.037 A 
HETATM   22  C   UNL     1      43.619 -20.639   1.970  1.00  0.00     0.003 A 
HETATM   23  C   UNL     1      44.515 -20.758   3.033  1.00  0.00     0.000 A 
HETATM   24  C   UNL     1      44.693 -19.695   3.919  1.00  0.00     0.003 A 
HETATM   25  C   UNL     1      43.966 -18.517   3.750  1.00  0.00     0.037 A 
ENDBRANCH  19  20
ENDBRANCH   2  19
TORSDOF 5
ENDMDL
MODEL 7
REMARK VINA RESULT:      -7.0      1.724      2.525
REMARK  5 active torsions:
REMARK  status: ('A' for Active; 'I' for Inactive)
REMARK    1  A    between atoms: C_2  and  N_3 
REMARK    2  A    between atoms: C_2  and  C_19 
REMARK       I    between atoms: N_3  and  C_4 
REMARK    3  A    between atoms: C_4  and  C_5 
REMARK    4  A    between atoms: C_6  and  O_7 
REMARK    5  A    between atoms: O_7  and  C_8 
ROOT
HETATM    1  C   UNL     1      43.776 -18.056   6.395  1.00  0.00     0.065 A 
HETATM    2  C   UNL     1      44.136 -18.552   5.135  1.00  0.00     0.091 A 
HETATM    3  C   UNL     1      44.333 -19.929   4.965  1.00  0.00     0.038 A 
HETATM    4  C   UNL     1      44.127 -20.808   6.031  1.00  0.00     0.003 A 
HETATM    5  C   UNL     1      43.741 -20.318   7.276  1.00  0.00     0.001 A 
HETATM    6  C   UNL     1      43.566 -18.946   7.461  1.00  0.00     0.020 A 
ENDROOT
BRANCH   1   7
HETATM    7  C   UNL     1      43.567 -16.603   6.614  1.00  0.00     0.255 C 
HETATM    8  N   UNL     1      44.632 -15.797   6.270  1.00  0.00    -0.348 N 
HETATM    9  H   UNL     1      45.406 -16.194   5.752  1.00  0.00     0.163 HD
HETATM   10  O   UNL     1      42.521 -16.180   7.089  1.00  0.00    -0.268 OA
BRANCH   8  11
HETATM   11  C   UNL     1      44.560 -14.344   6.370  1.00  0.00     0.115 C 
HETATM   12  C   UNL     1      44.317 -13.960   7.833  1.00  0.00     0.037 C 
BRANCH  11  13
HETATM   13  C   UNL     1      43.547 -13.813   5.374  1.00  0.00    -0.018 A 
HETATM   14  C   UNL     1      42.427 -13.067   5.728  1.00  0.00     0.125 A 
HETATM   15  N   UNL     1      41.526 -12.565   4.849  1.00  0.00    -0.273 NA
HETATM   16  C   UNL     1      41.753 -12.802   3.541  1.00  0.00     0.116 A 
HETATM   17  C   UNL     1      42.837 -13.519   3.070  1.00  0.00     0.020 A 
HETATM   18  C   UNL     1      43.743 -14.022   3.999  1.00  0.00     0.012 A 
ENDBRANCH  11  13
ENDBRANCH   8  11
ENDBRANCH   1   7
BRANCH   2  19
HETATM   19  O   UNL     1      44.401 -17.668   4.111  1.00  0.00    -0.310 OA
BRANCH  19  20
HETATM   20  C   UNL     1      43.441 -17.534   3.133  1.00  0.00     0.076 A 
HETATM   21  C   UNL     1      42.080 -17.414   3.424  1.00  0.00     0.037 A 
HETATM   22  C   UNL     1      41.161 -17.264   2.385  1.00  0.00     0.003 A 
HETATM   23  C   UNL     1      41.603 -17.212   1.062  1.00  0.00     0.000 A 
HETATM   24  C   UNL     1      42.966 -17.299   0.777  1.00  0.00     0.003 A 
HETATM   25  C   UNL     1      43.887 -17.452   1.813  1.00  0.00     0.037 A 
ENDBRANCH  19  20
ENDBRANCH   2  19
TORSDOF 5
ENDMDL
MODEL 8
REMARK VINA RESULT:      -6.9      2.190      3.116
REMARK  5 active torsions:
REMARK  status: ('A' for Active; 'I' for Inactive)
REMARK    1  A    between atoms: C_2  and  N_3 
REMARK    2  A    between atoms: C_2  and  C_19 
REMARK       I    between atoms: N_3  and  C_4 
REMARK    3  A    between atoms: C_4  and  C_5 
REMARK    4  A    between atoms: C_6  and  O_7 
REMARK    5  A    between atoms: O_7  and  C_8 
ROOT
HETATM    1  C   UNL     1      43.517 -18.510   6.065  1.00  0.00     0.065 A 
HETATM    2  C   UNL     1      44.054 -18.654   4.780  1.00  0.00     0.091 A 
HETATM    3  C   UNL     1      44.600 -19.887   4.393  1.00  0.00     0.038 A 
HETATM    4  C   UNL     1      44.566 -20.977   5.265  1.00  0.00     0.003 A 
HETATM    5  C   UNL     1      44.006 -20.841   6.533  1.00  0.00     0.001 A 
HETATM    6  C   UNL     1      43.482 -19.611   6.935  1.00  0.00     0.020 A 
ENDROOT
BRANCH   1   7
HETATM    7  C   UNL     1      42.939 -17.218   6.511  1.00  0.00     0.255 C 
HETATM    8  N   UNL     1      43.742 -16.114   6.314  1.00  0.00    -0.348 N 
HETATM    9  H   UNL     1      44.577 -16.205   5.748  1.00  0.00     0.163 HD
HETATM   10  O   UNL     1      41.833 -17.168   7.035  1.00  0.00    -0.268 OA
BRANCH   8  11
HETATM   11  C   UNL     1      43.292 -14.767   6.644  1.00  0.00     0.115 C 
HETATM   12  C   UNL     1      42.544 -14.186   5.441  1.00  0.00     0.037 C 
BRANCH  11  13
HETATM   13  C   UNL     1      44.464 -13.946   7.149  1.00  0.00    -0.018 A 
HETATM   14  C   UNL     1      44.514 -13.358   8.410  1.00  0.00     0.125 A 
HETATM   15  N   UNL     1      45.562 -12.643   8.884  1.00  0.00    -0.273 NA
HETATM   16  C   UNL     1      46.629 -12.511   8.070  1.00  0.00     0.116 A 
HETATM   17  C   UNL     1      46.697 -13.059   6.803  1.00  0.00     0.020 A 
HETATM   18  C   UNL     1      45.604 -13.788   6.345  1.00  0.00     0.012 A 
ENDBRANCH  11  13
ENDBRANCH   8  11
ENDBRANCH   1   7
BRANCH   2  19
HETATM   19  O   UNL     1      44.142 -17.553   3.955  1.00  0.00    -0.310 OA
BRANCH  19  20
HETATM   20  C   UNL     1      43.221 -17.457   2.935  1.00  0.00     0.076 A 
HETATM   21  C   UNL     1      41.846 -17.575   3.149  1.00  0.00     0.037 A 
HETATM   22  C   UNL     1      40.965 -17.451   2.072  1.00  0.00     0.003 A 
HETATM   23  C   UNL     1      41.457 -17.188   0.793  1.00  0.00     0.000 A 
HETATM   24  C   UNL     1      42.830 -17.039   0.589  1.00  0.00     0.003 A 
HETATM   25  C   UNL     1      43.712 -17.165   1.662  1.00  0.00     0.037 A 
ENDBRANCH  19  20
ENDBRANCH   2  19
TORSDOF 5
ENDMDL
MODEL 9
REMARK VINA RESULT:      -6.9      2.071      6.147
REMARK  5 active torsions:
REMARK  status: ('A' for Active; 'I' for Inactive)
REMARK    1  A    between atoms: C_2  and  N_3 
REMARK    2  A    between atoms: C_2  and  C_19 
REMARK       I    between atoms: N_3  and  C_4 
REMARK    3  A    between atoms: C_4  and  C_5 
REMARK    4  A    between atoms: C_6  and  O_7 
REMARK    5  A    between atoms: O_7  and  C_8 
ROOT
HETATM    1  C   UNL     1      42.124 -16.560   2.914  1.00  0.00     0.065 A 
HETATM    2  C   UNL     1      42.179 -15.184   3.168  1.00  0.00     0.091 A 
HETATM    3  C   UNL     1      41.958 -14.278   2.120  1.00  0.00     0.038 A 
HETATM    4  C   UNL     1      41.638 -14.743   0.843  1.00  0.00     0.003 A 
HETATM    5  C   UNL     1      41.555 -16.111   0.597  1.00  0.00     0.001 A 
HETATM    6  C   UNL     1      41.797 -17.020   1.628  1.00  0.00     0.020 A 
ENDROOT
BRANCH   1   7
HETATM    7  C   UNL     1      42.360 -17.547   3.997  1.00  0.00     0.255 C 
HETATM    8  N   UNL     1      43.677 -17.912   4.183  1.00  0.00    -0.348 N 
HETATM    9  H   UNL     1      44.406 -17.390   3.712  1.00  0.00     0.163 HD
HETATM   10  O   UNL     1      41.430 -18.007   4.647  1.00  0.00    -0.268 OA
BRANCH   8  11
HETATM   11  C   UNL     1      44.078 -18.826   5.246  1.00  0.00     0.115 C 
HETATM   12  C   UNL     1      45.234 -18.196   6.030  1.00  0.00     0.037 C 
BRANCH  11  13
HETATM   13  C   UNL     1      44.350 -20.200   4.664  1.00  0.00    -0.018 A 
HETATM   14  C   UNL     1      44.592 -21.335   5.433  1.00  0.00     0.125 A 
HETATM   15  N   UNL     1      44.812 -22.573   4.929  1.00  0.00    -0.273 NA
HETATM   16  C   UNL     1      44.778 -22.701   3.587  1.00  0.00     0.116 A 
HETATM   17  C   UNL     1      44.537 -21.648   2.724  1.00  0.00     0.020 A 
HETATM   18  C   UNL     1      44.315 -20.389   3.273  1.00  0.00     0.012 A 
ENDBRANCH  11  13
ENDBRANCH   8  11
ENDBRANCH   1   7
BRANCH   2  19
HETATM   19  O   UNL     1      42.561 -14.740   4.416  1.00  0.00    -0.310 OA
BRANCH  19  20
HETATM   20  C   UNL     1      41.695 -13.896   5.075  1.00  0.00     0.076 A 
HETATM   21  C   UNL     1      40.379 -14.253   5.378  1.00  0.00     0.037 A 
HETATM   22  C   UNL     1      39.558 -13.356   6.063  1.00  0.00     0.003 A 
HETATM   23  C   UNL     1      40.059 -12.117   6.464  1.00  0.00     0.000 A 
HETATM   24  C   UNL     1      41.384 -11.776   6.189  1.00  0.00     0.003 A 
HETATM   25  C   UNL     1      42.205 -12.670   5.501  1.00  0.00     0.037 A 
ENDBRANCH  19  20
ENDBRANCH   2  19
TORSDOF 5
ENDMDL
MODEL 10
REMARK VINA RESULT:      -6.9      2.331      4.948
REMARK  5 active torsions:
REMARK  status: ('A' for Active; 'I' for Inactive)
REMARK    1  A    between atoms: C_2  and  N_3 
REMARK    2  A    between atoms: C_2  and  C_19 
REMARK       I    between atoms: N_3  and  C_4 
REMARK    3  A    between atoms: C_4  and  C_5 
REMARK    4  A    between atoms: C_6  and  O_7 
REMARK    5  A    between atoms: O_7  and  C_8 
ROOT
HETATM    1  C   UNL     1      42.374 -18.035   2.630  1.00  0.00     0.065 A 
HETATM    2  C   UNL     1      42.782 -18.000   3.970  1.00  0.00     0.091 A 
HETATM    3  C   UNL     1      43.727 -18.929   4.429  1.00  0.00     0.038 A 
HETATM    4  C   UNL     1      44.294 -19.852   3.547  1.00  0.00     0.003 A 
HETATM    5  C   UNL     1      43.909 -19.867   2.209  1.00  0.00     0.001 A 
HETATM    6  C   UNL     1      42.951 -18.963   1.748  1.00  0.00     0.020 A 
ENDROOT
BRANCH   1   7
HETATM    7  C   UNL     1      41.370 -17.072   2.112  1.00  0.00     0.255 C 
HETATM    8  N   UNL     1      41.874 -15.847   1.728  1.00  0.00    -0.348 N 
HETATM    9  H   UNL     1      42.876 -15.723   1.659  1.00  0.00     0.163 HD
HETATM   10  O   UNL     1      40.182 -17.364   2.062  1.00  0.00    -0.268 OA
BRANCH   8  11
HETATM   11  C   UNL     1      41.024 -14.817   1.142  1.00  0.00     0.115 C 
HETATM   12  C   UNL     1      41.668 -14.324  -0.158  1.00  0.00     0.037 C 
BRANCH  11  13
HETATM   13  C   UNL     1      40.731 -13.747   2.177  1.00  0.00    -0.018 A 
HETATM   14  C   UNL     1      39.766 -13.874   3.172  1.00  0.00     0.125 A 
HETATM   15  N   UNL     1      39.509 -12.938   4.118  1.00  0.00    -0.273 NA
HETATM   16  C   UNL     1      40.257 -11.817   4.087  1.00  0.00     0.116 A 
HETATM   17  C   UNL     1      41.250 -11.586   3.153  1.00  0.00     0.020 A 
HETATM   18  C   UNL     1      41.490 -12.566   2.195  1.00  0.00     0.012 A 
ENDBRANCH  11  13
ENDBRANCH   8  11
ENDBRANCH   1   7
BRANCH   2  19
HETATM   19  O   UNL     1      42.166 -17.129   4.842  1.00  0.00    -0.310 OA
BRANCH  19  20
HETATM   20  C   UNL     1      42.930 -16.101   5.349  1.00  0.00     0.076 A 
HETATM   21  C   UNL     1      43.162 -14.917   4.645  1.00  0.00     0.037 A 
HETATM   22  C   UNL     1      43.933 -13.908   5.223  1.00  0.00     0.003 A 
HETATM   23  C   UNL     1      44.451 -14.073   6.509  1.00  0.00     0.000 A 
HETATM   24  C   UNL     1      44.190 -15.244   7.222  1.00  0.00     0.003 A 
HETATM   25  C   UNL     1      43.422 -16.255   6.645  1.00  0.00     0.037 A 
ENDBRANCH  19  20
ENDBRANCH   2  19
TORSDOF 5
ENDMDL
