MODEL 1
REMARK VINA RESULT:      -9.6      0.000      0.000
REMARK  6 active torsions:
REMARK  status: ('A' for Active; 'I' for Inactive)
REMARK    1  A    between atoms: O_2  and  C_3 
REMARK    2  A    between atoms: C_5  and  C_6 
REMARK    3  A    between atoms: C_12  and  C_13 
REMARK       I    between atoms: C_13  and  N_14 
REMARK    4  A    between atoms: N_14  and  C_15 
REMARK    5  A    between atoms: C_15  and  C_16 
REMARK    6  A    between atoms: C_23  and  C_24 
ROOT
HETATM    1  C   UNL     1      42.293 -17.237   3.326  1.00  0.00     0.118 C 
HETATM    2  N   UNL     1      42.943 -16.438   4.367  1.00  0.00    -0.365 N 
HETATM    3  C   UNL     1      42.764 -15.091   4.427  1.00  0.00     0.138 A 
HETATM    4  N   UNL     1      42.046 -14.436   3.452  1.00  0.00    -0.240 N 
HETATM    5  N   UNL     1      42.067 -13.100   3.559  1.00  0.00    -0.181 NA
HETATM    6  C   UNL     1      42.753 -12.900   4.687  1.00  0.00     0.160 A 
HETATM    7  C   UNL     1      43.202 -14.103   5.290  1.00  0.00     0.096 A 
HETATM    8  C   UNL     1      41.448 -15.081   2.298  1.00  0.00     0.221 C 
HETATM    9  C   UNL     1      42.160 -16.418   2.031  1.00  0.00     0.066 C 
HETATM   10  H   UNL     1      43.769 -16.872   4.782  1.00  0.00     0.161 HD
ENDROOT
BRANCH   7  11
HETATM   11  C   UNL     1      43.957 -14.189   6.526  1.00  0.00     0.257 C 
HETATM   12  N   UNL     1      43.905 -13.074   7.327  1.00  0.00    -0.352 N 
HETATM   13  H   UNL     1      43.493 -12.234   6.943  1.00  0.00     0.163 HD
HETATM   14  O   UNL     1      44.618 -15.184   6.804  1.00  0.00    -0.267 OA
BRANCH  12  15
HETATM   15  C   UNL     1      44.698 -12.967   8.531  1.00  0.00     0.161 C 
BRANCH  15  16
HETATM   16  C   UNL     1      44.240 -11.851   9.436  1.00  0.00    -0.041 A 
HETATM   17  C   UNL     1      43.121 -11.063   9.126  1.00  0.00     0.009 A 
HETATM   18  C   UNL     1      42.667 -10.088  10.016  1.00  0.00     0.001 A 
HETATM   19  C   UNL     1      43.315  -9.899  11.234  1.00  0.00     0.000 A 
HETATM   20  C   UNL     1      44.417 -10.684  11.564  1.00  0.00     0.001 A 
HETATM   21  C   UNL     1      44.875 -11.656  10.673  1.00  0.00     0.009 A 
ENDBRANCH  15  16
ENDBRANCH  12  15
ENDBRANCH   7  11
BRANCH   1  22
HETATM   22  C   UNL     1      43.036 -18.549   3.155  1.00  0.00    -0.033 A 
HETATM   23  C   UNL     1      43.732 -19.161   4.210  1.00  0.00     0.046 A 
HETATM   24  C   UNL     1      44.411 -20.372   4.028  1.00  0.00     0.068 A 
HETATM   25  C   UNL     1      44.378 -20.996   2.782  1.00  0.00     0.037 A 
HETATM   26  C   UNL     1      43.671 -20.414   1.729  1.00  0.00     0.003 A 
HETATM   27  C   UNL     1      43.002 -19.203   1.914  1.00  0.00     0.009 A 
BRANCH  24  28
HETATM   28  O   UNL     1      45.060 -20.833   5.141  1.00  0.00    -0.356 OA
HETATM   29  C   UNL     1      45.138 -22.245   5.300  1.00  0.00     0.210 C 
ENDBRANCH  24  28
ENDBRANCH   1  22
BRANCH   8  30
HETATM   30  C   UNL     1      39.959 -15.236   2.509  1.00  0.00     0.409 C 
HETATM   31  F   UNL     1      39.480 -16.421   2.073  1.00  0.00    -0.169 F 
HETATM   32  F   UNL     1      39.594 -15.096   3.801  1.00  0.00    -0.169 F 
HETATM   33  F   UNL     1      39.295 -14.273   1.816  1.00  0.00    -0.169 F 
ENDBRANCH   8  30
TORSDOF 6
ENDMDL
MODEL 2
REMARK VINA RESULT:      -9.2      2.956      7.257
REMARK  6 active torsions:
REMARK  status: ('A' for Active; 'I' for Inactive)
REMARK    1  A    between atoms: O_2  and  C_3 
REMARK    2  A    between atoms: C_5  and  C_6 
REMARK    3  A    between atoms: C_12  and  C_13 
REMARK       I    between atoms: C_13  and  N_14 
REMARK    4  A    between atoms: N_14  and  C_15 
REMARK    5  A    between atoms: C_15  and  C_16 
REMARK    6  A    between atoms: C_23  and  C_24 
ROOT
HETATM    1  C   UNL     1      41.767 -14.680   3.516  1.00  0.00     0.118 C 
HETATM    2  N   UNL     1      42.497 -15.664   4.319  1.00  0.00    -0.365 N 
HETATM    3  C   UNL     1      43.147 -15.293   5.454  1.00  0.00     0.138 A 
HETATM    4  N   UNL     1      43.216 -13.969   5.821  1.00  0.00    -0.240 N 
HETATM    5  N   UNL     1      44.003 -13.732   6.880  1.00  0.00    -0.181 NA
HETATM    6  C   UNL     1      44.382 -14.958   7.252  1.00  0.00     0.160 A 
HETATM    7  C   UNL     1      43.869 -15.981   6.413  1.00  0.00     0.096 A 
HETATM    8  C   UNL     1      42.646 -12.873   5.059  1.00  0.00     0.221 C 
HETATM    9  C   UNL     1      42.459 -13.308   3.596  1.00  0.00     0.066 C 
HETATM   10  H   UNL     1      42.775 -16.506   3.811  1.00  0.00     0.161 HD
ENDROOT
BRANCH   7  11
HETATM   11  C   UNL     1      44.104 -17.402   6.585  1.00  0.00     0.257 C 
HETATM   12  N   UNL     1      44.685 -18.037   5.514  1.00  0.00    -0.352 N 
HETATM   13  H   UNL     1      44.759 -17.526   4.644  1.00  0.00     0.163 HD
HETATM   14  O   UNL     1      43.770 -17.987   7.610  1.00  0.00    -0.267 OA
BRANCH  12  15
HETATM   15  C   UNL     1      44.873 -19.470   5.492  1.00  0.00     0.161 C 
BRANCH  15  16
HETATM   16  C   UNL     1      44.525 -20.086   4.160  1.00  0.00    -0.041 A 
HETATM   17  C   UNL     1      44.752 -21.446   3.896  1.00  0.00     0.009 A 
HETATM   18  C   UNL     1      44.349 -22.013   2.686  1.00  0.00     0.001 A 
HETATM   19  C   UNL     1      43.700 -21.234   1.731  1.00  0.00     0.000 A 
HETATM   20  C   UNL     1      43.452 -19.887   1.985  1.00  0.00     0.001 A 
HETATM   21  C   UNL     1      43.859 -19.317   3.193  1.00  0.00     0.009 A 
ENDBRANCH  15  16
ENDBRANCH  12  15
ENDBRANCH   7  11
BRANCH   1  22
HETATM   22  C   UNL     1      41.597 -15.204   2.102  1.00  0.00    -0.033 A 
HETATM   23  C   UNL     1      41.569 -14.355   0.984  1.00  0.00     0.046 A 
HETATM   24  C   UNL     1      41.410 -14.861  -0.312  1.00  0.00     0.068 A 
HETATM   25  C   UNL     1      41.302 -16.238  -0.501  1.00  0.00     0.037 A 
HETATM   26  C   UNL     1      41.353 -17.099   0.596  1.00  0.00     0.003 A 
HETATM   27  C   UNL     1      41.503 -16.588   1.886  1.00  0.00     0.009 A 
BRANCH  24  28
HETATM   28  O   UNL     1      41.380 -13.910  -1.295  1.00  0.00    -0.356 OA
HETATM   29  C   UNL     1      41.286 -14.375  -2.636  1.00  0.00     0.210 C 
ENDBRANCH  24  28
ENDBRANCH   1  22
BRANCH   8  30
HETATM   30  C   UNL     1      41.361 -12.411   5.707  1.00  0.00     0.409 C 
HETATM   31  F   UNL     1      40.633 -13.422   6.228  1.00  0.00    -0.169 F 
HETATM   32  F   UNL     1      41.563 -11.504   6.687  1.00  0.00    -0.169 F 
HETATM   33  F   UNL     1      40.572 -11.804   4.781  1.00  0.00    -0.169 F 
ENDBRANCH   8  30
TORSDOF 6
ENDMDL
MODEL 3
REMARK VINA RESULT:      -9.1      3.861      7.907
REMARK  6 active torsions:
REMARK  status: ('A' for Active; 'I' for Inactive)
REMARK    1  A    between atoms: O_2  and  C_3 
REMARK    2  A    between atoms: C_5  and  C_6 
REMARK    3  A    between atoms: C_12  and  C_13 
REMARK       I    between atoms: C_13  and  N_14 
REMARK    4  A    between atoms: N_14  and  C_15 
REMARK    5  A    between atoms: C_15  and  C_16 
REMARK    6  A    between atoms: C_23  and  C_24 
ROOT
HETATM    1  C   UNL     1      42.725 -17.415   3.487  1.00  0.00     0.118 C 
HETATM    2  N   UNL     1      42.260 -16.847   2.220  1.00  0.00    -0.365 N 
HETATM    3  C   UNL     1      41.323 -15.861   2.199  1.00  0.00     0.138 A 
HETATM    4  N   UNL     1      40.721 -15.443   3.363  1.00  0.00    -0.240 N 
HETATM    5  N   UNL     1      39.722 -14.568   3.181  1.00  0.00    -0.181 NA
HETATM    6  C   UNL     1      39.743 -14.358   1.863  1.00  0.00     0.160 A 
HETATM    7  C   UNL     1      40.732 -15.122   1.190  1.00  0.00     0.096 A 
HETATM    8  C   UNL     1      40.993 -16.000   4.676  1.00  0.00     0.221 C 
HETATM    9  C   UNL     1      41.587 -17.409   4.523  1.00  0.00     0.066 C 
HETATM   10  H   UNL     1      42.399 -17.450   1.407  1.00  0.00     0.161 HD
ENDROOT
BRANCH   7  11
HETATM   11  C   UNL     1      40.991 -15.086  -0.237  1.00  0.00     0.257 C 
HETATM   12  N   UNL     1      40.778 -13.873  -0.845  1.00  0.00    -0.352 N 
HETATM   13  H   UNL     1      40.314 -13.150  -0.309  1.00  0.00     0.163 HD
HETATM   14  O   UNL     1      41.341 -16.090  -0.849  1.00  0.00    -0.267 OA
BRANCH  12  15
HETATM   15  C   UNL     1      40.880 -13.713  -2.277  1.00  0.00     0.161 C 
BRANCH  15  16
HETATM   16  C   UNL     1      39.617 -14.105  -3.002  1.00  0.00    -0.041 A 
HETATM   17  C   UNL     1      39.502 -15.335  -3.669  1.00  0.00     0.009 A 
HETATM   18  C   UNL     1      38.298 -15.713  -4.265  1.00  0.00     0.001 A 
HETATM   19  C   UNL     1      37.188 -14.874  -4.190  1.00  0.00     0.000 A 
HETATM   20  C   UNL     1      37.281 -13.659  -3.517  1.00  0.00     0.001 A 
HETATM   21  C   UNL     1      38.486 -13.277  -2.924  1.00  0.00     0.009 A 
ENDBRANCH  15  16
ENDBRANCH  12  15
ENDBRANCH   7  11
BRANCH   1  22
HETATM   22  C   UNL     1      43.327 -18.785   3.239  1.00  0.00    -0.033 A 
HETATM   23  C   UNL     1      44.104 -19.450   4.201  1.00  0.00     0.046 A 
HETATM   24  C   UNL     1      44.650 -20.715   3.949  1.00  0.00     0.068 A 
HETATM   25  C   UNL     1      44.399 -21.339   2.729  1.00  0.00     0.037 A 
HETATM   26  C   UNL     1      43.608 -20.703   1.770  1.00  0.00     0.003 A 
HETATM   27  C   UNL     1      43.074 -19.440   2.023  1.00  0.00     0.009 A 
BRANCH  24  28
HETATM   28  O   UNL     1      45.401 -21.224   4.974  1.00  0.00    -0.356 OA
HETATM   29  C   UNL     1      45.308 -22.625   5.203  1.00  0.00     0.210 C 
ENDBRANCH  24  28
ENDBRANCH   1  22
BRANCH   8  30
HETATM   30  C   UNL     1      41.886 -15.062   5.456  1.00  0.00     0.409 C 
HETATM   31  F   UNL     1      42.571 -15.679   6.444  1.00  0.00    -0.169 F 
HETATM   32  F   UNL     1      42.781 -14.418   4.677  1.00  0.00    -0.169 F 
HETATM   33  F   UNL     1      41.133 -14.100   6.052  1.00  0.00    -0.169 F 
ENDBRANCH   8  30
TORSDOF 6
ENDMDL
MODEL 4
REMARK VINA RESULT:      -9.0      3.546      6.911
REMARK  6 active torsions:
REMARK  status: ('A' for Active; 'I' for Inactive)
REMARK    1  A    between atoms: O_2  and  C_3 
REMARK    2  A    between atoms: C_5  and  C_6 
REMARK    3  A    between atoms: C_12  and  C_13 
REMARK       I    between atoms: C_13  and  N_14 
REMARK    4  A    between atoms: N_14  and  C_15 
REMARK    5  A    between atoms: C_15  and  C_16 
REMARK    6  A    between atoms: C_23  and  C_24 
ROOT
HETATM    1  C   UNL     1      43.315 -16.969   4.029  1.00  0.00     0.118 C 
HETATM    2  N   UNL     1      42.201 -16.450   3.232  1.00  0.00    -0.365 N 
HETATM    3  C   UNL     1      41.419 -15.440   3.700  1.00  0.00     0.138 A 
HETATM    4  N   UNL     1      41.597 -14.949   4.974  1.00  0.00    -0.240 N 
HETATM    5  N   UNL     1      40.672 -14.057   5.352  1.00  0.00    -0.181 NA
HETATM    6  C   UNL     1      39.927 -13.912   4.254  1.00  0.00     0.160 A 
HETATM    7  C   UNL     1      40.350 -14.734   3.178  1.00  0.00     0.096 A 
HETATM    8  C   UNL     1      42.579 -15.449   5.918  1.00  0.00     0.221 C 
HETATM    9  C   UNL     1      42.983 -16.881   5.529  1.00  0.00     0.066 C 
HETATM   10  H   UNL     1      41.848 -17.096   2.524  1.00  0.00     0.161 HD
ENDROOT
BRANCH   7  11
HETATM   11  C   UNL     1      39.738 -14.775   1.863  1.00  0.00     0.257 C 
HETATM   12  N   UNL     1      40.572 -14.474   0.814  1.00  0.00    -0.352 N 
HETATM   13  H   UNL     1      41.486 -14.097   1.030  1.00  0.00     0.163 HD
HETATM   14  O   UNL     1      38.547 -15.029   1.720  1.00  0.00    -0.267 OA
BRANCH  12  15
HETATM   15  C   UNL     1      40.080 -14.359  -0.539  1.00  0.00     0.161 C 
BRANCH  15  16
HETATM   16  C   UNL     1      40.990 -13.547  -1.427  1.00  0.00    -0.041 A 
HETATM   17  C   UNL     1      40.804 -13.491  -2.817  1.00  0.00     0.009 A 
HETATM   18  C   UNL     1      41.608 -12.671  -3.611  1.00  0.00     0.001 A 
HETATM   19  C   UNL     1      42.596 -11.884  -3.025  1.00  0.00     0.000 A 
HETATM   20  C   UNL     1      42.781 -11.915  -1.645  1.00  0.00     0.001 A 
HETATM   21  C   UNL     1      41.982 -12.739  -0.850  1.00  0.00     0.009 A 
ENDBRANCH  15  16
ENDBRANCH  12  15
ENDBRANCH   7  11
BRANCH   1  22
HETATM   22  C   UNL     1      43.669 -18.366   3.556  1.00  0.00    -0.033 A 
HETATM   23  C   UNL     1      44.415 -19.259   4.343  1.00  0.00     0.046 A 
HETATM   24  C   UNL     1      44.731 -20.544   3.886  1.00  0.00     0.068 A 
HETATM   25  C   UNL     1      44.278 -20.956   2.634  1.00  0.00     0.037 A 
HETATM   26  C   UNL     1      43.515 -20.091   1.849  1.00  0.00     0.003 A 
HETATM   27  C   UNL     1      43.210 -18.809   2.306  1.00  0.00     0.009 A 
BRANCH  24  28
HETATM   28  O   UNL     1      45.481 -21.289   4.755  1.00  0.00    -0.356 OA
HETATM   29  C   UNL     1      44.935 -22.536   5.168  1.00  0.00     0.210 C 
ENDBRANCH  24  28
ENDBRANCH   1  22
BRANCH   8  30
HETATM   30  C   UNL     1      43.755 -14.501   5.987  1.00  0.00     0.409 C 
HETATM   31  F   UNL     1      44.869 -15.070   6.496  1.00  0.00    -0.169 F 
HETATM   32  F   UNL     1      44.076 -13.974   4.786  1.00  0.00    -0.169 F 
HETATM   33  F   UNL     1      43.452 -13.452   6.797  1.00  0.00    -0.169 F 
ENDBRANCH   8  30
TORSDOF 6
ENDMDL
MODEL 5
REMARK VINA RESULT:      -9.0      4.013      6.933
REMARK  6 active torsions:
REMARK  status: ('A' for Active; 'I' for Inactive)
REMARK    1  A    between atoms: O_2  and  C_3 
REMARK    2  A    between atoms: C_5  and  C_6 
REMARK    3  A    between atoms: C_12  and  C_13 
REMARK       I    between atoms: C_13  and  N_14 
REMARK    4  A    between atoms: N_14  and  C_15 
REMARK    5  A    between atoms: C_15  and  C_16 
REMARK    6  A    between atoms: C_23  and  C_24 
ROOT
HETATM    1  C   UNL     1      43.759 -18.090   4.469  1.00  0.00     0.118 C 
HETATM    2  N   UNL     1      43.324 -16.960   3.646  1.00  0.00    -0.365 N 
HETATM    3  C   UNL     1      42.725 -15.876   4.209  1.00  0.00     0.138 A 
HETATM    4  N   UNL     1      42.426 -15.861   5.552  1.00  0.00    -0.240 N 
HETATM    5  N   UNL     1      41.714 -14.795   5.944  1.00  0.00    -0.181 NA
HETATM    6  C   UNL     1      41.627 -14.065   4.829  1.00  0.00     0.160 A 
HETATM    7  C   UNL     1      42.253 -14.675   3.711  1.00  0.00     0.096 A 
HETATM    8  C   UNL     1      42.688 -16.957   6.466  1.00  0.00     0.221 C 
HETATM    9  C   UNL     1      42.816 -18.268   5.672  1.00  0.00     0.066 C 
HETATM   10  H   UNL     1      43.174 -17.184   2.661  1.00  0.00     0.161 HD
ENDROOT
BRANCH   7  11
HETATM   11  C   UNL     1      42.326 -14.106   2.378  1.00  0.00     0.257 C 
HETATM   12  N   UNL     1      41.693 -14.827   1.395  1.00  0.00    -0.352 N 
HETATM   13  H   UNL     1      41.368 -15.757   1.624  1.00  0.00     0.163 HD
HETATM   14  O   UNL     1      42.945 -13.071   2.157  1.00  0.00    -0.267 OA
BRANCH  12  15
HETATM   15  C   UNL     1      41.779 -14.449   0.003  1.00  0.00     0.161 C 
BRANCH  15  16
HETATM   16  C   UNL     1      40.429 -14.358  -0.664  1.00  0.00    -0.041 A 
HETATM   17  C   UNL     1      39.290 -13.927   0.034  1.00  0.00     0.009 A 
HETATM   18  C   UNL     1      38.067 -13.775  -0.622  1.00  0.00     0.001 A 
HETATM   19  C   UNL     1      37.970 -14.034  -1.987  1.00  0.00     0.000 A 
HETATM   20  C   UNL     1      39.095 -14.446  -2.697  1.00  0.00     0.001 A 
HETATM   21  C   UNL     1      40.317 -14.604  -2.042  1.00  0.00     0.009 A 
ENDBRANCH  15  16
ENDBRANCH  12  15
ENDBRANCH   7  11
BRANCH   1  22
HETATM   22  C   UNL     1      43.894 -19.328   3.602  1.00  0.00    -0.033 A 
HETATM   23  C   UNL     1      44.349 -20.556   4.111  1.00  0.00     0.046 A 
HETATM   24  C   UNL     1      44.466 -21.685   3.291  1.00  0.00     0.068 A 
HETATM   25  C   UNL     1      44.102 -21.598   1.949  1.00  0.00     0.037 A 
HETATM   26  C   UNL     1      43.624 -20.392   1.432  1.00  0.00     0.003 A 
HETATM   27  C   UNL     1      43.517 -19.268   2.252  1.00  0.00     0.009 A 
BRANCH  24  28
HETATM   28  O   UNL     1      44.943 -22.800   3.924  1.00  0.00    -0.356 OA
HETATM   29  C   UNL     1      45.317 -22.653   5.289  1.00  0.00     0.210 C 
ENDBRANCH  24  28
ENDBRANCH   1  22
BRANCH   8  30
HETATM   30  C   UNL     1      43.910 -16.650   7.302  1.00  0.00     0.409 C 
HETATM   31  F   UNL     1      44.721 -17.716   7.471  1.00  0.00    -0.169 F 
HETATM   32  F   UNL     1      44.655 -15.645   6.794  1.00  0.00    -0.169 F 
HETATM   33  F   UNL     1      43.528 -16.254   8.545  1.00  0.00    -0.169 F 
ENDBRANCH   8  30
TORSDOF 6
ENDMDL
MODEL 6
REMARK VINA RESULT:      -8.7      2.824      5.037
REMARK  6 active torsions:
REMARK  status: ('A' for Active; 'I' for Inactive)
REMARK    1  A    between atoms: O_2  and  C_3 
REMARK    2  A    between atoms: C_5  and  C_6 
REMARK    3  A    between atoms: C_12  and  C_13 
REMARK       I    between atoms: C_13  and  N_14 
REMARK    4  A    between atoms: N_14  and  C_15 
REMARK    5  A    between atoms: C_15  and  C_16 
REMARK    6  A    between atoms: C_23  and  C_24 
ROOT
HETATM    1  C   UNL     1      42.831 -15.606   3.240  1.00  0.00     0.118 C 
HETATM    2  N   UNL     1      43.445 -14.900   4.367  1.00  0.00    -0.365 N 
HETATM    3  C   UNL     1      43.529 -15.483   5.593  1.00  0.00     0.138 A 
HETATM    4  N   UNL     1      42.951 -16.710   5.826  1.00  0.00    -0.240 N 
HETATM    5  N   UNL     1      42.989 -17.100   7.108  1.00  0.00    -0.181 NA
HETATM    6  C   UNL     1      43.687 -16.127   7.698  1.00  0.00     0.160 A 
HETATM    7  C   UNL     1      44.071 -15.093   6.804  1.00  0.00     0.096 A 
HETATM    8  C   UNL     1      42.206 -17.469   4.839  1.00  0.00     0.221 C 
HETATM    9  C   UNL     1      41.700 -16.523   3.738  1.00  0.00     0.066 C 
HETATM   10  H   UNL     1      43.466 -13.884   4.271  1.00  0.00     0.161 HD
ENDROOT
BRANCH   7  11
HETATM   11  C   UNL     1      44.846 -13.921   7.163  1.00  0.00     0.257 C 
HETATM   12  N   UNL     1      44.520 -13.344   8.367  1.00  0.00    -0.352 N 
HETATM   13  H   UNL     1      43.682 -13.665   8.834  1.00  0.00     0.163 HD
HETATM   14  O   UNL     1      45.706 -13.468   6.415  1.00  0.00    -0.267 OA
BRANCH  12  15
HETATM   15  C   UNL     1      45.123 -12.106   8.804  1.00  0.00     0.161 C 
BRANCH  15  16
HETATM   16  C   UNL     1      44.231 -11.314   9.728  1.00  0.00    -0.041 A 
HETATM   17  C   UNL     1      44.645 -10.951  11.019  1.00  0.00     0.009 A 
HETATM   18  C   UNL     1      43.836 -10.151  11.828  1.00  0.00     0.001 A 
HETATM   19  C   UNL     1      42.612  -9.689  11.352  1.00  0.00     0.000 A 
HETATM   20  C   UNL     1      42.195 -10.026  10.066  1.00  0.00     0.001 A 
HETATM   21  C   UNL     1      43.000 -10.831   9.258  1.00  0.00     0.009 A 
ENDBRANCH  15  16
ENDBRANCH  12  15
ENDBRANCH   7  11
BRANCH   1  22
HETATM   22  C   UNL     1      42.395 -14.603   2.189  1.00  0.00    -0.033 A 
HETATM   23  C   UNL     1      41.961 -14.993   0.911  1.00  0.00     0.046 A 
HETATM   24  C   UNL     1      41.564 -14.049  -0.043  1.00  0.00     0.068 A 
HETATM   25  C   UNL     1      41.576 -12.695   0.287  1.00  0.00     0.037 A 
HETATM   26  C   UNL     1      41.981 -12.290   1.560  1.00  0.00     0.003 A 
HETATM   27  C   UNL     1      42.383 -13.235   2.504  1.00  0.00     0.009 A 
BRANCH  24  28
HETATM   28  O   UNL     1      41.189 -14.580  -1.247  1.00  0.00    -0.356 OA
HETATM   29  C   UNL     1      39.861 -14.312  -1.681  1.00  0.00     0.210 C 
ENDBRANCH  24  28
ENDBRANCH   1  22
BRANCH   8  30
HETATM   30  C   UNL     1      43.062 -18.595   4.304  1.00  0.00     0.409 C 
HETATM   31  F   UNL     1      43.145 -19.647   5.146  1.00  0.00    -0.169 F 
HETATM   32  F   UNL     1      42.634 -19.059   3.110  1.00  0.00    -0.169 F 
HETATM   33  F   UNL     1      44.333 -18.154   4.110  1.00  0.00    -0.169 F 
ENDBRANCH   8  30
TORSDOF 6
ENDMDL
MODEL 7
REMARK VINA RESULT:      -8.7      3.863      7.527
REMARK  6 active torsions:
REMARK  status: ('A' for Active; 'I' for Inactive)
REMARK    1  A    between atoms: O_2  and  C_3 
REMARK    2  A    between atoms: C_5  and  C_6 
REMARK    3  A    between atoms: C_12  and  C_13 
REMARK       I    between atoms: C_13  and  N_14 
REMARK    4  A    between atoms: N_14  and  C_15 
REMARK    5  A    between atoms: C_15  and  C_16 
REMARK    6  A    between atoms: C_23  and  C_24 
ROOT
HETATM    1  C   UNL     1      42.678 -17.163   3.564  1.00  0.00     0.118 C 
HETATM    2  N   UNL     1      42.110 -16.735   2.283  1.00  0.00    -0.365 N 
HETATM    3  C   UNL     1      41.128 -15.795   2.235  1.00  0.00     0.138 A 
HETATM    4  N   UNL     1      40.579 -15.296   3.394  1.00  0.00    -0.240 N 
HETATM    5  N   UNL     1      39.530 -14.485   3.199  1.00  0.00    -0.181 NA
HETATM    6  C   UNL     1      39.460 -14.398   1.868  1.00  0.00     0.160 A 
HETATM    7  C   UNL     1      40.442 -15.178   1.205  1.00  0.00     0.096 A 
HETATM    8  C   UNL     1      40.956 -15.717   4.730  1.00  0.00     0.221 C 
HETATM    9  C   UNL     1      41.607 -17.108   4.667  1.00  0.00     0.066 C 
HETATM   10  H   UNL     1      42.228 -17.404   1.521  1.00  0.00     0.161 HD
ENDROOT
BRANCH   7  11
HETATM   11  C   UNL     1      40.611 -15.265  -0.234  1.00  0.00     0.257 C 
HETATM   12  N   UNL     1      39.774 -14.467  -0.975  1.00  0.00    -0.352 N 
HETATM   13  H   UNL     1      39.009 -14.010  -0.496  1.00  0.00     0.163 HD
HETATM   14  O   UNL     1      41.428 -16.029  -0.737  1.00  0.00    -0.267 OA
BRANCH  12  15
HETATM   15  C   UNL     1      39.744 -14.532  -2.418  1.00  0.00     0.161 C 
BRANCH  15  16
HETATM   16  C   UNL     1      40.418 -13.350  -3.072  1.00  0.00    -0.041 A 
HETATM   17  C   UNL     1      39.677 -12.294  -3.625  1.00  0.00     0.009 A 
HETATM   18  C   UNL     1      40.321 -11.174  -4.153  1.00  0.00     0.001 A 
HETATM   19  C   UNL     1      41.711 -11.086  -4.121  1.00  0.00     0.000 A 
HETATM   20  C   UNL     1      42.458 -12.118  -3.559  1.00  0.00     0.001 A 
HETATM   21  C   UNL     1      41.817 -13.242  -3.035  1.00  0.00     0.009 A 
ENDBRANCH  15  16
ENDBRANCH  12  15
ENDBRANCH   7  11
BRANCH   1  22
HETATM   22  C   UNL     1      43.329 -18.523   3.401  1.00  0.00    -0.033 A 
HETATM   23  C   UNL     1      43.780 -19.277   4.498  1.00  0.00     0.046 A 
HETATM   24  C   UNL     1      44.377 -20.531   4.323  1.00  0.00     0.068 A 
HETATM   25  C   UNL     1      44.508 -21.055   3.039  1.00  0.00     0.037 A 
HETATM   26  C   UNL     1      44.043 -20.331   1.939  1.00  0.00     0.003 A 
HETATM   27  C   UNL     1      43.455 -19.079   2.119  1.00  0.00     0.009 A 
BRANCH  24  28
HETATM   28  O   UNL     1      44.784 -21.133   5.483  1.00  0.00    -0.356 OA
HETATM   29  C   UNL     1      43.950 -20.962   6.622  1.00  0.00     0.210 C 
ENDBRANCH  24  28
ENDBRANCH   1  22
BRANCH   8  30
HETATM   30  C   UNL     1      41.849 -14.674   5.364  1.00  0.00     0.409 C 
HETATM   31  F   UNL     1      42.721 -15.191   6.257  1.00  0.00    -0.169 F 
HETATM   32  F   UNL     1      42.561 -13.971   4.457  1.00  0.00    -0.169 F 
HETATM   33  F   UNL     1      41.093 -13.771   6.042  1.00  0.00    -0.169 F 
ENDBRANCH   8  30
TORSDOF 6
ENDMDL
MODEL 8
REMARK VINA RESULT:      -8.7      3.566      7.161
REMARK  6 active torsions:
REMARK  status: ('A' for Active; 'I' for Inactive)
REMARK    1  A    between atoms: O_2  and  C_3 
REMARK    2  A    between atoms: C_5  and  C_6 
REMARK    3  A    between atoms: C_12  and  C_13 
REMARK       I    between atoms: C_13  and  N_14 
REMARK    4  A    between atoms: N_14  and  C_15 
REMARK    5  A    between atoms: C_15  and  C_16 
REMARK    6  A    between atoms: C_23  and  C_24 
ROOT
HETATM    1  C   UNL     1      43.546 -16.872   4.704  1.00  0.00     0.118 C 
HETATM    2  N   UNL     1      42.432 -16.489   3.834  1.00  0.00    -0.365 N 
HETATM    3  C   UNL     1      41.626 -15.441   4.155  1.00  0.00     0.138 A 
HETATM    4  N   UNL     1      41.779 -14.781   5.352  1.00  0.00    -0.240 N 
HETATM    5  N   UNL     1      40.832 -13.865   5.599  1.00  0.00    -0.181 NA
HETATM    6  C   UNL     1      40.097 -13.884   4.484  1.00  0.00     0.160 A 
HETATM    7  C   UNL     1      40.550 -14.834   3.532  1.00  0.00     0.096 A 
HETATM    8  C   UNL     1      42.759 -15.129   6.364  1.00  0.00     0.221 C 
HETATM    9  C   UNL     1      43.195 -16.591   6.175  1.00  0.00     0.066 C 
HETATM   10  H   UNL     1      42.100 -17.231   3.215  1.00  0.00     0.161 HD
ENDROOT
BRANCH   7  11
HETATM   11  C   UNL     1      39.954 -15.064   2.230  1.00  0.00     0.257 C 
HETATM   12  N   UNL     1      39.679 -13.934   1.499  1.00  0.00    -0.352 N 
HETATM   13  H   UNL     1      39.755 -13.039   1.966  1.00  0.00     0.163 HD
HETATM   14  O   UNL     1      39.688 -16.196   1.838  1.00  0.00    -0.267 OA
BRANCH  12  15
HETATM   15  C   UNL     1      38.980 -13.997   0.236  1.00  0.00     0.161 C 
BRANCH  15  16
HETATM   16  C   UNL     1      39.911 -13.977  -0.951  1.00  0.00    -0.041 A 
HETATM   17  C   UNL     1      39.500 -14.425  -2.216  1.00  0.00     0.009 A 
HETATM   18  C   UNL     1      40.351 -14.325  -3.318  1.00  0.00     0.001 A 
HETATM   19  C   UNL     1      41.616 -13.759  -3.174  1.00  0.00     0.000 A 
HETATM   20  C   UNL     1      42.031 -13.293  -1.929  1.00  0.00     0.001 A 
HETATM   21  C   UNL     1      41.183 -13.399  -0.824  1.00  0.00     0.009 A 
ENDBRANCH  15  16
ENDBRANCH  12  15
ENDBRANCH   7  11
BRANCH   1  22
HETATM   22  C   UNL     1      43.934 -18.313   4.426  1.00  0.00    -0.033 A 
HETATM   23  C   UNL     1      43.795 -18.897   3.156  1.00  0.00     0.046 A 
HETATM   24  C   UNL     1      44.160 -20.228   2.924  1.00  0.00     0.068 A 
HETATM   25  C   UNL     1      44.692 -20.985   3.965  1.00  0.00     0.037 A 
HETATM   26  C   UNL     1      44.860 -20.414   5.228  1.00  0.00     0.003 A 
HETATM   27  C   UNL     1      44.488 -19.089   5.456  1.00  0.00     0.009 A 
BRANCH  24  28
HETATM   28  O   UNL     1      43.946 -20.661   1.643  1.00  0.00    -0.356 OA
HETATM   29  C   UNL     1      44.040 -22.062   1.415  1.00  0.00     0.210 C 
ENDBRANCH  24  28
ENDBRANCH   1  22
BRANCH   8  30
HETATM   30  C   UNL     1      43.915 -14.155   6.316  1.00  0.00     0.409 C 
HETATM   31  F   UNL     1      44.190 -13.717   5.068  1.00  0.00    -0.169 F 
HETATM   32  F   UNL     1      43.723 -13.072   7.098  1.00  0.00    -0.169 F 
HETATM   33  F   UNL     1      45.044 -14.760   6.770  1.00  0.00    -0.169 F 
ENDBRANCH   8  30
TORSDOF 6
ENDMDL
MODEL 9
REMARK VINA RESULT:      -8.7      3.021      4.810
REMARK  6 active torsions:
REMARK  status: ('A' for Active; 'I' for Inactive)
REMARK    1  A    between atoms: O_2  and  C_3 
REMARK    2  A    between atoms: C_5  and  C_6 
REMARK    3  A    between atoms: C_12  and  C_13 
REMARK       I    between atoms: C_13  and  N_14 
REMARK    4  A    between atoms: N_14  and  C_15 
REMARK    5  A    between atoms: C_15  and  C_16 
REMARK    6  A    between atoms: C_23  and  C_24 
ROOT
HETATM    1  C   UNL     1      42.978 -16.972   3.534  1.00  0.00     0.118 C 
HETATM    2  N   UNL     1      43.355 -15.926   4.487  1.00  0.00    -0.365 N 
HETATM    3  C   UNL     1      43.542 -16.216   5.803  1.00  0.00     0.138 A 
HETATM    4  N   UNL     1      43.286 -17.479   6.285  1.00  0.00    -0.240 N 
HETATM    5  N   UNL     1      43.377 -17.587   7.618  1.00  0.00    -0.181 NA
HETATM    6  C   UNL     1      43.787 -16.372   7.990  1.00  0.00     0.160 A 
HETATM    7  C   UNL     1      43.927 -15.471   6.903  1.00  0.00     0.096 A 
HETATM    8  C   UNL     1      42.790 -18.581   5.481  1.00  0.00     0.221 C 
HETATM    9  C   UNL     1      42.099 -18.030   4.224  1.00  0.00     0.066 C 
HETATM   10  H   UNL     1      43.122 -14.977   4.191  1.00  0.00     0.161 HD
ENDROOT
BRANCH   7  11
HETATM   11  C   UNL     1      44.369 -14.093   7.008  1.00  0.00     0.257 C 
HETATM   12  N   UNL     1      44.244 -13.527   8.254  1.00  0.00    -0.352 N 
HETATM   13  H   UNL     1      43.720 -14.036   8.955  1.00  0.00     0.163 HD
HETATM   14  O   UNL     1      44.788 -13.479   6.033  1.00  0.00    -0.267 OA
BRANCH  12  15
HETATM   15  C   UNL     1      44.531 -12.130   8.486  1.00  0.00     0.161 C 
BRANCH  15  16
HETATM   16  C   UNL     1      44.067 -11.654   9.840  1.00  0.00    -0.041 A 
HETATM   17  C   UNL     1      43.383 -10.438   9.999  1.00  0.00     0.009 A 
HETATM   18  C   UNL     1      42.893 -10.054  11.248  1.00  0.00     0.001 A 
HETATM   19  C   UNL     1      43.065 -10.886  12.352  1.00  0.00     0.000 A 
HETATM   20  C   UNL     1      43.725 -12.104  12.207  1.00  0.00     0.001 A 
HETATM   21  C   UNL     1      44.221 -12.487  10.959  1.00  0.00     0.009 A 
ENDBRANCH  15  16
ENDBRANCH  12  15
ENDBRANCH   7  11
BRANCH   1  22
HETATM   22  C   UNL     1      42.338 -16.339   2.312  1.00  0.00    -0.033 A 
HETATM   23  C   UNL     1      41.937 -14.993   2.287  1.00  0.00     0.046 A 
HETATM   24  C   UNL     1      41.348 -14.430   1.148  1.00  0.00     0.068 A 
HETATM   25  C   UNL     1      41.177 -15.212   0.008  1.00  0.00     0.037 A 
HETATM   26  C   UNL     1      41.593 -16.545   0.007  1.00  0.00     0.003 A 
HETATM   27  C   UNL     1      42.172 -17.102   1.147  1.00  0.00     0.009 A 
BRANCH  24  28
HETATM   28  O   UNL     1      40.991 -13.116   1.283  1.00  0.00    -0.356 OA
HETATM   29  C   UNL     1      41.959 -12.243   1.853  1.00  0.00     0.210 C 
ENDBRANCH  24  28
ENDBRANCH   1  22
BRANCH   8  30
HETATM   30  C   UNL     1      43.920 -19.535   5.166  1.00  0.00     0.409 C 
HETATM   31  F   UNL     1      43.828 -20.079   3.933  1.00  0.00    -0.169 F 
HETATM   32  F   UNL     1      45.137 -18.961   5.270  1.00  0.00    -0.169 F 
HETATM   33  F   UNL     1      43.907 -20.570   6.046  1.00  0.00    -0.169 F 
ENDBRANCH   8  30
TORSDOF 6
ENDMDL
MODEL 10
REMARK VINA RESULT:      -8.6      4.027      6.373
REMARK  6 active torsions:
REMARK  status: ('A' for Active; 'I' for Inactive)
REMARK    1  A    between atoms: O_2  and  C_3 
REMARK    2  A    between atoms: C_5  and  C_6 
REMARK    3  A    between atoms: C_12  and  C_13 
REMARK       I    between atoms: C_13  and  N_14 
REMARK    4  A    between atoms: N_14  and  C_15 
REMARK    5  A    between atoms: C_15  and  C_16 
REMARK    6  A    between atoms: C_23  and  C_24 
ROOT
HETATM    1  C   UNL     1      43.511 -18.140   4.282  1.00  0.00     0.118 C 
HETATM    2  N   UNL     1      42.516 -17.324   3.584  1.00  0.00    -0.365 N 
HETATM    3  C   UNL     1      41.798 -16.379   4.249  1.00  0.00     0.138 A 
HETATM    4  N   UNL     1      41.920 -16.237   5.612  1.00  0.00    -0.240 N 
HETATM    5  N   UNL     1      41.055 -15.368   6.153  1.00  0.00    -0.181 NA
HETATM    6  C   UNL     1      40.415 -14.879   5.089  1.00  0.00     0.160 A 
HETATM    7  C   UNL     1      40.843 -15.455   3.865  1.00  0.00     0.096 A 
HETATM    8  C   UNL     1      42.775 -17.057   6.451  1.00  0.00     0.221 C 
HETATM    9  C   UNL     1      43.073 -18.386   5.737  1.00  0.00     0.066 C 
HETATM   10  H   UNL     1      42.161 -17.734   2.718  1.00  0.00     0.161 HD
ENDROOT
BRANCH   7  11
HETATM   11  C   UNL     1      40.334 -15.107   2.551  1.00  0.00     0.257 C 
HETATM   12  N   UNL     1      39.029 -14.678   2.520  1.00  0.00    -0.352 N 
HETATM   13  H   UNL     1      38.475 -14.784   3.360  1.00  0.00     0.163 HD
HETATM   14  O   UNL     1      41.024 -15.227   1.545  1.00  0.00    -0.267 OA
BRANCH  12  15
HETATM   15  C   UNL     1      38.349 -14.408   1.274  1.00  0.00     0.161 C 
BRANCH  15  16
HETATM   16  C   UNL     1      37.801 -13.004   1.197  1.00  0.00    -0.041 A 
HETATM   17  C   UNL     1      36.748 -12.671   0.331  1.00  0.00     0.009 A 
HETATM   18  C   UNL     1      36.203 -11.386   0.333  1.00  0.00     0.001 A 
HETATM   19  C   UNL     1      36.691 -10.422   1.212  1.00  0.00     0.000 A 
HETATM   20  C   UNL     1      37.723 -10.742   2.091  1.00  0.00     0.001 A 
HETATM   21  C   UNL     1      38.273 -12.026   2.086  1.00  0.00     0.009 A 
ENDBRANCH  15  16
ENDBRANCH  12  15
ENDBRANCH   7  11
BRANCH   1  22
HETATM   22  C   UNL     1      43.771 -19.410   3.493  1.00  0.00    -0.033 A 
HETATM   23  C   UNL     1      44.332 -20.557   4.079  1.00  0.00     0.046 A 
HETATM   24  C   UNL     1      44.563 -21.717   3.330  1.00  0.00     0.068 A 
HETATM   25  C   UNL     1      44.208 -21.746   1.983  1.00  0.00     0.037 A 
HETATM   26  C   UNL     1      43.626 -20.624   1.391  1.00  0.00     0.003 A 
HETATM   27  C   UNL     1      43.405 -19.467   2.140  1.00  0.00     0.009 A 
BRANCH  24  28
HETATM   28  O   UNL     1      45.135 -22.743   4.033  1.00  0.00    -0.356 OA
HETATM   29  C   UNL     1      45.190 -22.599   5.447  1.00  0.00     0.210 C 
ENDBRANCH  24  28
ENDBRANCH   1  22
BRANCH   8  30
HETATM   30  C   UNL     1      44.024 -16.288   6.817  1.00  0.00     0.409 C 
HETATM   31  F   UNL     1      43.950 -15.697   8.029  1.00  0.00    -0.169 F 
HETATM   32  F   UNL     1      45.136 -17.054   6.803  1.00  0.00    -0.169 F 
HETATM   33  F   UNL     1      44.233 -15.293   5.915  1.00  0.00    -0.169 F 
ENDBRANCH   8  30
TORSDOF 6
ENDMDL
