MODEL 1
REMARK VINA RESULT:      -9.8      0.000      0.000
REMARK  6 active torsions:
REMARK  status: ('A' for Active; 'I' for Inactive)
REMARK    1  A    between atoms: C_8  and  C_9 
REMARK    2  A    between atoms: C_9  and  C_10 
REMARK    3  A    between atoms: C_10  and  N_11 
REMARK       I    between atoms: N_11  and  C_12 
REMARK    4  A    between atoms: C_12  and  C_13 
REMARK    5  A    between atoms: C_18  and  C_19 
REMARK    6  A    between atoms: C_29  and  C_30 
ROOT
HETATM    1  C   UNL     1      40.612 -12.728   6.266  1.00  0.00     0.148 A 
HETATM    2  N   UNL     1      41.932 -12.524   6.049  1.00  0.00    -0.165 NA
HETATM    3  N   UNL     1      42.344 -13.692   5.514  1.00  0.00    -0.240 N 
HETATM    4  C   UNL     1      41.333 -14.574   5.272  1.00  0.00     0.123 A 
HETATM    5  N   UNL     1      41.542 -15.752   4.661  1.00  0.00    -0.366 N 
HETATM    6  C   UNL     1      42.835 -16.171   4.143  1.00  0.00     0.118 C 
HETATM    7  C   UNL     1      43.878 -15.039   4.127  1.00  0.00     0.066 C 
HETATM    8  C   UNL     1      43.735 -13.952   5.210  1.00  0.00     0.221 C 
HETATM    9  C   UNL     1      40.201 -14.000   5.782  1.00  0.00     0.088 A 
HETATM   10  H   UNL     1      40.785 -16.424   4.540  1.00  0.00     0.161 HD
ENDROOT
BRANCH   1  11
HETATM   11  C   UNL     1      39.738 -11.744   6.920  1.00  0.00     0.272 C 
HETATM   12  N   UNL     1      39.766 -11.781   8.297  1.00  0.00    -0.355 N 
HETATM   13  H   UNL     1      40.491 -12.360   8.713  1.00  0.00     0.162 HD
HETATM   14  O   UNL     1      39.048 -10.951   6.285  1.00  0.00    -0.266 OA
BRANCH  12  15
HETATM   15  C   UNL     1      39.030 -10.811   9.079  1.00  0.00     0.127 C 
BRANCH  15  16
HETATM   16  C   UNL     1      39.918  -9.874   9.894  1.00  0.00     0.060 C 
BRANCH  16  17
HETATM   17  C   UNL     1      40.911 -10.604  10.745  1.00  0.00    -0.029 A 
HETATM   18  C   UNL     1      42.249 -10.973  10.395  1.00  0.00    -0.002 A 
HETATM   19  C   UNL     1      43.046 -10.803   9.244  1.00  0.00     0.014 A 
HETATM   20  C   UNL     1      42.798 -11.641  11.490  1.00  0.00     0.042 A 
HETATM   21  C   UNL     1      44.351 -11.307   9.229  1.00  0.00     0.001 A 
HETATM   22  C   UNL     1      44.869 -11.972  10.338  1.00  0.00     0.002 A 
HETATM   23  C   UNL     1      44.102 -12.150  11.492  1.00  0.00     0.030 A 
HETATM   24  N   UNL     1      41.834 -11.676  12.469  1.00  0.00    -0.365 N 
HETATM   25  H   UNL     1      41.955 -12.102  13.378  1.00  0.00     0.165 HD
HETATM   26  C   UNL     1      40.693 -11.061  12.031  1.00  0.00     0.096 A 
ENDBRANCH  16  17
ENDBRANCH  15  16
ENDBRANCH  12  15
ENDBRANCH   1  11
BRANCH   8  27
HETATM   27  C   UNL     1      44.503 -14.258   6.475  1.00  0.00     0.409 C 
HETATM   28  F   UNL     1      45.472 -13.366   6.752  1.00  0.00    -0.169 F 
HETATM   29  F   UNL     1      43.658 -14.268   7.540  1.00  0.00    -0.169 F 
HETATM   30  F   UNL     1      45.077 -15.484   6.444  1.00  0.00    -0.169 F 
ENDBRANCH   8  27
BRANCH   6  31
HETATM   31  C   UNL     1      43.271 -17.474   4.791  1.00  0.00    -0.033 A 
HETATM   32  C   UNL     1      43.998 -18.409   4.027  1.00  0.00     0.049 A 
HETATM   33  C   UNL     1      44.295 -19.633   4.590  1.00  0.00     0.105 A 
HETATM   34  C   UNL     1      43.929 -19.949   5.876  1.00  0.00     0.105 A 
HETATM   35  O   UNL     1      44.937 -20.658   3.968  1.00  0.00    -0.323 OA
HETATM   36  O   UNL     1      44.298 -21.211   6.226  1.00  0.00    -0.323 OA
HETATM   37  C   UNL     1      43.244 -19.059   6.670  1.00  0.00     0.040 A 
HETATM   38  C   UNL     1      44.885 -21.673   4.993  1.00  0.00     0.352 A 
HETATM   39  C   UNL     1      42.905 -17.820   6.115  1.00  0.00     0.012 A 
ENDBRANCH   6  31
TORSDOF 6
ENDMDL
MODEL 2
REMARK VINA RESULT:      -9.8      5.393      8.661
REMARK  6 active torsions:
REMARK  status: ('A' for Active; 'I' for Inactive)
REMARK    1  A    between atoms: C_8  and  C_9 
REMARK    2  A    between atoms: C_9  and  C_10 
REMARK    3  A    between atoms: C_10  and  N_11 
REMARK       I    between atoms: N_11  and  C_12 
REMARK    4  A    between atoms: C_12  and  C_13 
REMARK    5  A    between atoms: C_18  and  C_19 
REMARK    6  A    between atoms: C_29  and  C_30 
ROOT
HETATM    1  C   UNL     1      40.088 -14.980   1.860  1.00  0.00     0.148 A 
HETATM    2  N   UNL     1      40.424 -15.000   3.172  1.00  0.00    -0.165 NA
HETATM    3  N   UNL     1      41.489 -15.826   3.209  1.00  0.00    -0.240 N 
HETATM    4  C   UNL     1      41.914 -16.232   1.979  1.00  0.00     0.123 A 
HETATM    5  N   UNL     1      43.014 -16.987   1.815  1.00  0.00    -0.366 N 
HETATM    6  C   UNL     1      43.886 -17.385   2.908  1.00  0.00     0.118 C 
HETATM    7  C   UNL     1      43.581 -16.649   4.225  1.00  0.00     0.066 C 
HETATM    8  C   UNL     1      42.121 -16.214   4.452  1.00  0.00     0.221 C 
HETATM    9  C   UNL     1      41.007 -15.737   1.083  1.00  0.00     0.088 A 
HETATM   10  H   UNL     1      43.284 -17.330   0.894  1.00  0.00     0.161 HD
ENDROOT
BRANCH   1  11
HETATM   11  C   UNL     1      38.918 -14.262   1.335  1.00  0.00     0.272 C 
HETATM   12  N   UNL     1      39.192 -13.005   0.843  1.00  0.00    -0.355 N 
HETATM   13  H   UNL     1      40.177 -12.769   0.747  1.00  0.00     0.162 HD
HETATM   14  O   UNL     1      37.792 -14.753   1.331  1.00  0.00    -0.266 OA
BRANCH  12  15
HETATM   15  C   UNL     1      38.158 -12.217   0.210  1.00  0.00     0.127 C 
BRANCH  15  16
HETATM   16  C   UNL     1      38.508 -11.765  -1.206  1.00  0.00     0.060 C 
BRANCH  16  17
HETATM   17  C   UNL     1      38.137 -12.773  -2.250  1.00  0.00    -0.029 A 
HETATM   18  C   UNL     1      38.865 -13.950  -2.616  1.00  0.00    -0.002 A 
HETATM   19  C   UNL     1      40.071 -14.537  -2.178  1.00  0.00     0.014 A 
HETATM   20  C   UNL     1      38.151 -14.583  -3.635  1.00  0.00     0.042 A 
HETATM   21  C   UNL     1      40.515 -15.723  -2.772  1.00  0.00     0.001 A 
HETATM   22  C   UNL     1      39.780 -16.329  -3.788  1.00  0.00     0.002 A 
HETATM   23  C   UNL     1      38.581 -15.770  -4.238  1.00  0.00     0.030 A 
HETATM   24  N   UNL     1      37.032 -13.823  -3.878  1.00  0.00    -0.365 N 
HETATM   25  H   UNL     1      36.328 -14.043  -4.570  1.00  0.00     0.165 HD
HETATM   26  C   UNL     1      37.015 -12.729  -3.056  1.00  0.00     0.096 A 
ENDBRANCH  16  17
ENDBRANCH  15  16
ENDBRANCH  12  15
ENDBRANCH   1  11
BRANCH   8  27
HETATM   27  C   UNL     1      41.287 -17.251   5.167  1.00  0.00     0.409 C 
HETATM   28  F   UNL     1      40.618 -18.075   4.340  1.00  0.00    -0.169 F 
HETATM   29  F   UNL     1      42.085 -18.033   5.944  1.00  0.00    -0.169 F 
HETATM   30  F   UNL     1      40.383 -16.694   6.006  1.00  0.00    -0.169 F 
ENDBRANCH   8  27
BRANCH   6  31
HETATM   31  C   UNL     1      43.979 -18.899   2.991  1.00  0.00    -0.033 A 
HETATM   32  C   UNL     1      44.424 -19.492   4.189  1.00  0.00     0.049 A 
HETATM   33  C   UNL     1      44.608 -20.860   4.220  1.00  0.00     0.105 A 
HETATM   34  C   UNL     1      44.343 -21.652   3.130  1.00  0.00     0.105 A 
HETATM   35  O   UNL     1      45.084 -21.573   5.276  1.00  0.00    -0.323 OA
HETATM   36  O   UNL     1      44.613 -22.965   3.363  1.00  0.00    -0.323 OA
HETATM   37  C   UNL     1      43.879 -21.122   1.949  1.00  0.00     0.040 A 
HETATM   38  C   UNL     1      45.136 -22.898   4.705  1.00  0.00     0.352 A 
HETATM   39  C   UNL     1      43.710 -19.735   1.880  1.00  0.00     0.012 A 
ENDBRANCH   6  31
TORSDOF 6
ENDMDL
MODEL 3
REMARK VINA RESULT:      -9.7      5.096      8.037
REMARK  6 active torsions:
REMARK  status: ('A' for Active; 'I' for Inactive)
REMARK    1  A    between atoms: C_8  and  C_9 
REMARK    2  A    between atoms: C_9  and  C_10 
REMARK    3  A    between atoms: C_10  and  N_11 
REMARK       I    between atoms: N_11  and  C_12 
REMARK    4  A    between atoms: C_12  and  C_13 
REMARK    5  A    between atoms: C_18  and  C_19 
REMARK    6  A    between atoms: C_29  and  C_30 
ROOT
HETATM    1  C   UNL     1      40.242 -14.690   2.444  1.00  0.00     0.148 A 
HETATM    2  N   UNL     1      40.564 -14.841   3.750  1.00  0.00    -0.165 NA
HETATM    3  N   UNL     1      41.605 -15.698   3.717  1.00  0.00    -0.240 N 
HETATM    4  C   UNL     1      42.031 -15.999   2.458  1.00  0.00     0.123 A 
HETATM    5  N   UNL     1      43.111 -16.767   2.232  1.00  0.00    -0.366 N 
HETATM    6  C   UNL     1      43.961 -17.290   3.289  1.00  0.00     0.118 C 
HETATM    7  C   UNL     1      43.664 -16.672   4.668  1.00  0.00     0.066 C 
HETATM    8  C   UNL     1      42.214 -16.218   4.923  1.00  0.00     0.221 C 
HETATM    9  C   UNL     1      41.148 -15.396   1.606  1.00  0.00     0.088 A 
HETATM   10  H   UNL     1      43.381 -17.029   1.285  1.00  0.00     0.161 HD
ENDROOT
BRANCH   1  11
HETATM   11  C   UNL     1      39.098 -13.893   1.980  1.00  0.00     0.272 C 
HETATM   12  N   UNL     1      38.406 -14.446   0.925  1.00  0.00    -0.355 N 
HETATM   13  H   UNL     1      38.651 -15.403   0.684  1.00  0.00     0.162 HD
HETATM   14  O   UNL     1      38.785 -12.825   2.500  1.00  0.00    -0.266 OA
BRANCH  12  15
HETATM   15  C   UNL     1      37.202 -13.822   0.421  1.00  0.00     0.127 C 
BRANCH  15  16
HETATM   16  C   UNL     1      37.461 -12.721  -0.605  1.00  0.00     0.060 C 
BRANCH  16  17
HETATM   17  C   UNL     1      38.317 -13.176  -1.746  1.00  0.00    -0.029 A 
HETATM   18  C   UNL     1      39.737 -13.050  -1.870  1.00  0.00    -0.002 A 
HETATM   19  C   UNL     1      40.751 -12.510  -1.051  1.00  0.00     0.014 A 
HETATM   20  C   UNL     1      40.101 -13.605  -3.097  1.00  0.00     0.042 A 
HETATM   21  C   UNL     1      42.080 -12.542  -1.489  1.00  0.00     0.001 A 
HETATM   22  C   UNL     1      42.410 -13.102  -2.721  1.00  0.00     0.002 A 
HETATM   23  C   UNL     1      41.425 -13.647  -3.549  1.00  0.00     0.030 A 
HETATM   24  N   UNL     1      38.948 -14.054  -3.697  1.00  0.00    -0.365 N 
HETATM   25  H   UNL     1      38.910 -14.504  -4.601  1.00  0.00     0.165 HD
HETATM   26  C   UNL     1      37.868 -13.797  -2.897  1.00  0.00     0.096 A 
ENDBRANCH  16  17
ENDBRANCH  15  16
ENDBRANCH  12  15
ENDBRANCH   1  11
BRANCH   8  27
HETATM   27  C   UNL     1      41.344 -17.294   5.532  1.00  0.00     0.409 C 
HETATM   28  F   UNL     1      40.729 -18.074   4.624  1.00  0.00    -0.169 F 
HETATM   29  F   UNL     1      42.099 -18.114   6.312  1.00  0.00    -0.169 F 
HETATM   30  F   UNL     1      40.389 -16.783   6.344  1.00  0.00    -0.169 F 
ENDBRANCH   8  27
BRANCH   6  31
HETATM   31  C   UNL     1      44.011 -18.807   3.231  1.00  0.00    -0.033 A 
HETATM   32  C   UNL     1      44.450 -19.521   4.363  1.00  0.00     0.049 A 
HETATM   33  C   UNL     1      44.594 -20.891   4.265  1.00  0.00     0.105 A 
HETATM   34  C   UNL     1      44.296 -21.571   3.110  1.00  0.00     0.105 A 
HETATM   35  O   UNL     1      45.059 -21.712   5.244  1.00  0.00    -0.323 OA
HETATM   36  O   UNL     1      44.530 -22.906   3.217  1.00  0.00    -0.323 OA
HETATM   37  C   UNL     1      43.836 -20.920   1.988  1.00  0.00     0.040 A 
HETATM   38  C   UNL     1      45.067 -22.979   4.553  1.00  0.00     0.352 A 
HETATM   39  C   UNL     1      43.707 -19.528   2.051  1.00  0.00     0.012 A 
ENDBRANCH   6  31
TORSDOF 6
ENDMDL
MODEL 4
REMARK VINA RESULT:      -9.7      2.620      3.900
REMARK  6 active torsions:
REMARK  status: ('A' for Active; 'I' for Inactive)
REMARK    1  A    between atoms: C_8  and  C_9 
REMARK    2  A    between atoms: C_9  and  C_10 
REMARK    3  A    between atoms: C_10  and  N_11 
REMARK       I    between atoms: N_11  and  C_12 
REMARK    4  A    between atoms: C_12  and  C_13 
REMARK    5  A    between atoms: C_18  and  C_19 
REMARK    6  A    between atoms: C_29  and  C_30 
ROOT
HETATM    1  C   UNL     1      44.154 -13.990   7.257  1.00  0.00     0.148 A 
HETATM    2  N   UNL     1      43.429 -13.520   6.215  1.00  0.00    -0.165 NA
HETATM    3  N   UNL     1      42.900 -14.637   5.674  1.00  0.00    -0.240 N 
HETATM    4  C   UNL     1      43.156 -15.769   6.389  1.00  0.00     0.123 A 
HETATM    5  N   UNL     1      42.636 -16.962   6.051  1.00  0.00    -0.366 N 
HETATM    6  C   UNL     1      41.710 -17.151   4.946  1.00  0.00     0.118 C 
HETATM    7  C   UNL     1      41.179 -15.828   4.366  1.00  0.00     0.066 C 
HETATM    8  C   UNL     1      42.116 -14.608   4.457  1.00  0.00     0.221 C 
HETATM    9  C   UNL     1      43.998 -15.396   7.400  1.00  0.00     0.088 A 
HETATM   10  H   UNL     1      42.884 -17.807   6.562  1.00  0.00     0.161 HD
ENDROOT
BRANCH   1  11
HETATM   11  C   UNL     1      44.987 -13.134   8.114  1.00  0.00     0.272 C 
HETATM   12  N   UNL     1      44.402 -12.780   9.309  1.00  0.00    -0.355 N 
HETATM   13  H   UNL     1      43.540 -13.265   9.544  1.00  0.00     0.162 HD
HETATM   14  O   UNL     1      46.116 -12.775   7.787  1.00  0.00    -0.266 OA
BRANCH  12  15
HETATM   15  C   UNL     1      45.137 -12.018  10.295  1.00  0.00     0.127 C 
BRANCH  15  16
HETATM   16  C   UNL     1      44.856 -10.517  10.249  1.00  0.00     0.060 C 
BRANCH  16  17
HETATM   17  C   UNL     1      43.456 -10.172  10.652  1.00  0.00    -0.029 A 
HETATM   18  C   UNL     1      42.989  -9.831  11.961  1.00  0.00    -0.002 A 
HETATM   19  C   UNL     1      43.606  -9.705  13.224  1.00  0.00     0.014 A 
HETATM   20  C   UNL     1      41.617  -9.594  11.868  1.00  0.00     0.042 A 
HETATM   21  C   UNL     1      42.834  -9.353  14.336  1.00  0.00     0.001 A 
HETATM   22  C   UNL     1      41.466  -9.125  14.209  1.00  0.00     0.002 A 
HETATM   23  C   UNL     1      40.830  -9.240  12.970  1.00  0.00     0.030 A 
HETATM   24  N   UNL     1      41.262  -9.781  10.553  1.00  0.00    -0.365 N 
HETATM   25  H   UNL     1      40.324  -9.676  10.192  1.00  0.00     0.165 HD
HETATM   26  C   UNL     1      42.358 -10.135   9.813  1.00  0.00     0.096 A 
ENDBRANCH  16  17
ENDBRANCH  15  16
ENDBRANCH  12  15
ENDBRANCH   1  11
BRANCH   8  27
HETATM   27  C   UNL     1      43.015 -14.447   3.254  1.00  0.00     0.409 C 
HETATM   28  F   UNL     1      43.980 -15.380   3.167  1.00  0.00    -0.169 F 
HETATM   29  F   UNL     1      42.280 -14.531   2.112  1.00  0.00    -0.169 F 
HETATM   30  F   UNL     1      43.617 -13.235   3.221  1.00  0.00    -0.169 F 
ENDBRANCH   8  27
BRANCH   6  31
HETATM   31  C   UNL     1      42.273 -18.144   3.944  1.00  0.00    -0.033 A 
HETATM   32  C   UNL     1      43.121 -19.172   4.401  1.00  0.00     0.049 A 
HETATM   33  C   UNL     1      43.712 -20.004   3.471  1.00  0.00     0.105 A 
HETATM   34  C   UNL     1      43.473 -19.872   2.125  1.00  0.00     0.105 A 
HETATM   35  O   UNL     1      44.595 -21.001   3.745  1.00  0.00    -0.323 OA
HETATM   36  O   UNL     1      44.171 -20.773   1.382  1.00  0.00    -0.323 OA
HETATM   37  C   UNL     1      42.630 -18.903   1.633  1.00  0.00     0.040 A 
HETATM   38  C   UNL     1      44.922 -21.447   2.412  1.00  0.00     0.352 A 
HETATM   39  C   UNL     1      42.039 -18.029   2.552  1.00  0.00     0.012 A 
ENDBRANCH   6  31
TORSDOF 6
ENDMDL
MODEL 5
REMARK VINA RESULT:      -9.7      2.355      3.175
REMARK  6 active torsions:
REMARK  status: ('A' for Active; 'I' for Inactive)
REMARK    1  A    between atoms: C_8  and  C_9 
REMARK    2  A    between atoms: C_9  and  C_10 
REMARK    3  A    between atoms: C_10  and  N_11 
REMARK       I    between atoms: N_11  and  C_12 
REMARK    4  A    between atoms: C_12  and  C_13 
REMARK    5  A    between atoms: C_18  and  C_19 
REMARK    6  A    between atoms: C_29  and  C_30 
ROOT
HETATM    1  C   UNL     1      40.361 -12.890   5.627  1.00  0.00     0.148 A 
HETATM    2  N   UNL     1      40.591 -12.702   4.307  1.00  0.00    -0.165 NA
HETATM    3  N   UNL     1      40.687 -13.958   3.826  1.00  0.00    -0.240 N 
HETATM    4  C   UNL     1      40.412 -14.924   4.748  1.00  0.00     0.123 A 
HETATM    5  N   UNL     1      40.373 -16.229   4.428  1.00  0.00    -0.366 N 
HETATM    6  C   UNL     1      40.550 -16.730   3.075  1.00  0.00     0.118 C 
HETATM    7  C   UNL     1      40.527 -15.621   2.009  1.00  0.00     0.066 C 
HETATM    8  C   UNL     1      41.030 -14.232   2.446  1.00  0.00     0.221 C 
HETATM    9  C   UNL     1      40.234 -14.271   5.936  1.00  0.00     0.088 A 
HETATM   10  H   UNL     1      40.223 -16.941   5.141  1.00  0.00     0.161 HD
ENDROOT
BRANCH   1  11
HETATM   11  C   UNL     1      40.259 -11.788   6.595  1.00  0.00     0.272 C 
HETATM   12  N   UNL     1      41.458 -11.414   7.163  1.00  0.00    -0.355 N 
HETATM   13  H   UNL     1      42.293 -11.818   6.747  1.00  0.00     0.162 HD
HETATM   14  O   UNL     1      39.191 -11.244   6.865  1.00  0.00    -0.266 OA
BRANCH  12  15
HETATM   15  C   UNL     1      41.529 -10.284   8.063  1.00  0.00     0.127 C 
BRANCH  15  16
HETATM   16  C   UNL     1      42.452 -10.506   9.259  1.00  0.00     0.060 C 
BRANCH  16  17
HETATM   17  C   UNL     1      41.709 -10.643  10.552  1.00  0.00    -0.029 A 
HETATM   18  C   UNL     1      42.160 -10.263  11.857  1.00  0.00    -0.002 A 
HETATM   19  C   UNL     1      43.344  -9.680  12.356  1.00  0.00     0.014 A 
HETATM   20  C   UNL     1      41.145 -10.581  12.759  1.00  0.00     0.042 A 
HETATM   21  C   UNL     1      43.467  -9.441  13.730  1.00  0.00     0.001 A 
HETATM   22  C   UNL     1      42.435  -9.772  14.605  1.00  0.00     0.002 A 
HETATM   23  C   UNL     1      41.252 -10.348  14.135  1.00  0.00     0.030 A 
HETATM   24  N   UNL     1      40.115 -11.130  12.034  1.00  0.00    -0.365 N 
HETATM   25  H   UNL     1      39.244 -11.455  12.430  1.00  0.00     0.165 HD
HETATM   26  C   UNL     1      40.444 -11.179  10.706  1.00  0.00     0.096 A 
ENDBRANCH  16  17
ENDBRANCH  15  16
ENDBRANCH  12  15
ENDBRANCH   1  11
BRANCH   8  27
HETATM   27  C   UNL     1      42.510 -14.028   2.219  1.00  0.00     0.409 C 
HETATM   28  F   UNL     1      43.255 -14.173   3.330  1.00  0.00    -0.169 F 
HETATM   29  F   UNL     1      42.969 -14.933   1.314  1.00  0.00    -0.169 F 
HETATM   30  F   UNL     1      42.787 -12.809   1.701  1.00  0.00    -0.169 F 
ENDBRANCH   8  27
BRANCH   6  31
HETATM   31  C   UNL     1      41.722 -17.695   3.014  1.00  0.00    -0.033 A 
HETATM   32  C   UNL     1      42.273 -18.180   4.217  1.00  0.00     0.049 A 
HETATM   33  C   UNL     1      43.403 -18.970   4.154  1.00  0.00     0.105 A 
HETATM   34  C   UNL     1      43.983 -19.314   2.957  1.00  0.00     0.105 A 
HETATM   35  O   UNL     1      44.084 -19.467   5.222  1.00  0.00    -0.323 OA
HETATM   36  O   UNL     1      45.098 -20.075   3.120  1.00  0.00    -0.323 OA
HETATM   37  C   UNL     1      43.465 -18.888   1.757  1.00  0.00     0.040 A 
HETATM   38  C   UNL     1      45.188 -20.119   4.558  1.00  0.00     0.352 A 
HETATM   39  C   UNL     1      42.335 -18.064   1.792  1.00  0.00     0.012 A 
ENDBRANCH   6  31
TORSDOF 6
ENDMDL
MODEL 6
REMARK VINA RESULT:      -9.0      1.794      2.083
REMARK  6 active torsions:
REMARK  status: ('A' for Active; 'I' for Inactive)
REMARK    1  A    between atoms: C_8  and  C_9 
REMARK    2  A    between atoms: C_9  and  C_10 
REMARK    3  A    between atoms: C_10  and  N_11 
REMARK       I    between atoms: N_11  and  C_12 
REMARK    4  A    between atoms: C_12  and  C_13 
REMARK    5  A    between atoms: C_18  and  C_19 
REMARK    6  A    between atoms: C_29  and  C_30 
ROOT
HETATM    1  C   UNL     1      39.868 -12.405   5.611  1.00  0.00     0.148 A 
HETATM    2  N   UNL     1      40.368 -12.414   4.353  1.00  0.00    -0.165 NA
HETATM    3  N   UNL     1      40.615 -13.720   4.125  1.00  0.00    -0.240 N 
HETATM    4  C   UNL     1      40.187 -14.544   5.123  1.00  0.00     0.123 A 
HETATM    5  N   UNL     1      40.268 -15.882   5.031  1.00  0.00    -0.366 N 
HETATM    6  C   UNL     1      40.751 -16.579   3.849  1.00  0.00     0.118 C 
HETATM    7  C   UNL     1      40.914 -15.658   2.626  1.00  0.00     0.066 C 
HETATM    8  C   UNL     1      41.256 -14.183   2.912  1.00  0.00     0.221 C 
HETATM    9  C   UNL     1      39.733 -13.725   6.120  1.00  0.00     0.088 A 
HETATM   10  H   UNL     1      39.997 -16.481   5.810  1.00  0.00     0.161 HD
ENDROOT
BRANCH   1  11
HETATM   11  C   UNL     1      39.518 -11.174   6.334  1.00  0.00     0.272 C 
HETATM   12  N   UNL     1      39.918 -11.152   7.652  1.00  0.00    -0.355 N 
HETATM   13  H   UNL     1      40.540 -11.902   7.941  1.00  0.00     0.162 HD
HETATM   14  O   UNL     1      38.925 -10.241   5.798  1.00  0.00    -0.266 OA
BRANCH  12  15
HETATM   15  C   UNL     1      39.726  -9.970   8.464  1.00  0.00     0.127 C 
BRANCH  15  16
HETATM   16  C   UNL     1      41.015  -9.428   9.078  1.00  0.00     0.060 C 
BRANCH  16  17
HETATM   17  C   UNL     1      41.593 -10.337  10.119  1.00  0.00    -0.029 A 
HETATM   18  C   UNL     1      42.925 -10.856  10.175  1.00  0.00    -0.002 A 
HETATM   19  C   UNL     1      44.068 -10.719   9.360  1.00  0.00     0.014 A 
HETATM   20  C   UNL     1      43.013 -11.660  11.312  1.00  0.00     0.042 A 
HETATM   21  C   UNL     1      45.247 -11.389   9.707  1.00  0.00     0.001 A 
HETATM   22  C   UNL     1      45.301 -12.187  10.848  1.00  0.00     0.002 A 
HETATM   23  C   UNL     1      44.184 -12.336  11.674  1.00  0.00     0.030 A 
HETATM   24  N   UNL     1      41.784 -11.631  11.925  1.00  0.00    -0.365 N 
HETATM   25  H   UNL     1      41.556 -12.127  12.776  1.00  0.00     0.165 HD
HETATM   26  C   UNL     1      40.919 -10.844  11.215  1.00  0.00     0.096 A 
ENDBRANCH  16  17
ENDBRANCH  15  16
ENDBRANCH  12  15
ENDBRANCH   1  11
BRANCH   8  27
HETATM   27  C   UNL     1      42.741 -13.908   2.962  1.00  0.00     0.409 C 
HETATM   28  F   UNL     1      43.499 -14.942   2.553  1.00  0.00    -0.169 F 
HETATM   29  F   UNL     1      43.044 -12.853   2.160  1.00  0.00    -0.169 F 
HETATM   30  F   UNL     1      43.158 -13.564   4.203  1.00  0.00    -0.169 F 
ENDBRANCH   8  27
BRANCH   6  31
HETATM   31  C   UNL     1      41.946 -17.450   4.196  1.00  0.00    -0.033 A 
HETATM   32  C   UNL     1      42.546 -18.224   3.183  1.00  0.00     0.049 A 
HETATM   33  C   UNL     1      43.561 -19.093   3.529  1.00  0.00     0.105 A 
HETATM   34  C   UNL     1      44.016 -19.199   4.821  1.00  0.00     0.105 A 
HETATM   35  O   UNL     1      44.200 -19.945   2.683  1.00  0.00    -0.323 OA
HETATM   36  O   UNL     1      45.002 -20.127   4.950  1.00  0.00    -0.323 OA
HETATM   37  C   UNL     1      43.482 -18.443   5.838  1.00  0.00     0.040 A 
HETATM   38  C   UNL     1      45.072 -20.635   3.602  1.00  0.00     0.352 A 
HETATM   39  C   UNL     1      42.433 -17.573   5.520  1.00  0.00     0.012 A 
ENDBRANCH   6  31
TORSDOF 6
ENDMDL
MODEL 7
REMARK VINA RESULT:      -9.0      7.323     10.673
REMARK  6 active torsions:
REMARK  status: ('A' for Active; 'I' for Inactive)
REMARK    1  A    between atoms: C_8  and  C_9 
REMARK    2  A    between atoms: C_9  and  C_10 
REMARK    3  A    between atoms: C_10  and  N_11 
REMARK       I    between atoms: N_11  and  C_12 
REMARK    4  A    between atoms: C_12  and  C_13 
REMARK    5  A    between atoms: C_18  and  C_19 
REMARK    6  A    between atoms: C_29  and  C_30 
ROOT
HETATM    1  C   UNL     1      41.729 -13.516   1.275  1.00  0.00     0.148 A 
HETATM    2  N   UNL     1      42.225 -12.791   0.245  1.00  0.00    -0.165 NA
HETATM    3  N   UNL     1      41.133 -12.515  -0.496  1.00  0.00    -0.240 N 
HETATM    4  C   UNL     1      39.963 -12.923   0.073  1.00  0.00     0.123 A 
HETATM    5  N   UNL     1      38.767 -12.656  -0.478  1.00  0.00    -0.366 N 
HETATM    6  C   UNL     1      38.597 -11.859  -1.682  1.00  0.00     0.118 C 
HETATM    7  C   UNL     1      39.884 -11.136  -2.118  1.00  0.00     0.066 C 
HETATM    8  C   UNL     1      41.217 -11.825  -1.766  1.00  0.00     0.221 C 
HETATM    9  C   UNL     1      40.313 -13.611   1.203  1.00  0.00     0.088 A 
HETATM   10  H   UNL     1      37.907 -13.018  -0.069  1.00  0.00     0.161 HD
ENDROOT
BRANCH   1  11
HETATM   11  C   UNL     1      42.570 -14.117   2.320  1.00  0.00     0.272 C 
HETATM   12  N   UNL     1      42.556 -15.495   2.343  1.00  0.00    -0.355 N 
HETATM   13  H   UNL     1      42.104 -15.949   1.553  1.00  0.00     0.162 HD
HETATM   14  O   UNL     1      43.235 -13.441   3.100  1.00  0.00    -0.266 OA
BRANCH  12  15
HETATM   15  C   UNL     1      43.406 -16.228   3.255  1.00  0.00     0.127 C 
BRANCH  15  16
HETATM   16  C   UNL     1      43.861 -17.584   2.718  1.00  0.00     0.060 C 
BRANCH  16  17
HETATM   17  C   UNL     1      44.193 -18.560   3.804  1.00  0.00    -0.029 A 
HETATM   18  C   UNL     1      44.334 -19.979   3.682  1.00  0.00    -0.002 A 
HETATM   19  C   UNL     1      44.226 -20.889   2.608  1.00  0.00     0.014 A 
HETATM   20  C   UNL     1      44.639 -20.480   4.948  1.00  0.00     0.042 A 
HETATM   21  C   UNL     1      44.423 -22.255   2.841  1.00  0.00     0.001 A 
HETATM   22  C   UNL     1      44.725 -22.723   4.117  1.00  0.00     0.002 A 
HETATM   23  C   UNL     1      44.840 -21.842   5.197  1.00  0.00     0.030 A 
HETATM   24  N   UNL     1      44.685 -19.409   5.807  1.00  0.00    -0.365 N 
HETATM   25  H   UNL     1      44.886 -19.475   6.796  1.00  0.00     0.165 HD
HETATM   26  C   UNL     1      44.412 -18.250   5.133  1.00  0.00     0.096 A 
ENDBRANCH  16  17
ENDBRANCH  15  16
ENDBRANCH  12  15
ENDBRANCH   1  11
BRANCH   8  27
HETATM   27  C   UNL     1      41.714 -12.761  -2.843  1.00  0.00     0.409 C 
HETATM   28  F   UNL     1      42.989 -12.538  -3.211  1.00  0.00    -0.169 F 
HETATM   29  F   UNL     1      41.647 -14.047  -2.407  1.00  0.00    -0.169 F 
HETATM   30  F   UNL     1      40.954 -12.707  -3.962  1.00  0.00    -0.169 F 
ENDBRANCH   8  27
BRANCH   6  31
HETATM   31  C   UNL     1      37.882 -12.662  -2.756  1.00  0.00    -0.033 A 
HETATM   32  C   UNL     1      37.089 -11.985  -3.702  1.00  0.00     0.049 A 
HETATM   33  C   UNL     1      36.359 -12.730  -4.606  1.00  0.00     0.105 A 
HETATM   34  C   UNL     1      36.409 -14.102  -4.623  1.00  0.00     0.105 A 
HETATM   35  O   UNL     1      35.506 -12.231  -5.541  1.00  0.00    -0.323 OA
HETATM   36  O   UNL     1      35.599 -14.641  -5.574  1.00  0.00    -0.323 OA
HETATM   37  C   UNL     1      37.192 -14.806  -3.738  1.00  0.00     0.040 A 
HETATM   38  C   UNL     1      34.987 -13.451  -6.112  1.00  0.00     0.352 A 
HETATM   39  C   UNL     1      37.921 -14.077  -2.793  1.00  0.00     0.012 A 
ENDBRANCH   6  31
TORSDOF 6
ENDMDL
MODEL 8
REMARK VINA RESULT:      -8.7      5.859      7.657
REMARK  6 active torsions:
REMARK  status: ('A' for Active; 'I' for Inactive)
REMARK    1  A    between atoms: C_8  and  C_9 
REMARK    2  A    between atoms: C_9  and  C_10 
REMARK    3  A    between atoms: C_10  and  N_11 
REMARK       I    between atoms: N_11  and  C_12 
REMARK    4  A    between atoms: C_12  and  C_13 
REMARK    5  A    between atoms: C_18  and  C_19 
REMARK    6  A    between atoms: C_29  and  C_30 
ROOT
HETATM    1  C   UNL     1      40.466 -14.712   0.176  1.00  0.00     0.148 A 
HETATM    2  N   UNL     1      40.680 -14.495   1.495  1.00  0.00    -0.165 NA
HETATM    3  N   UNL     1      41.681 -15.348   1.793  1.00  0.00    -0.240 N 
HETATM    4  C   UNL     1      42.189 -16.001   0.710  1.00  0.00     0.123 A 
HETATM    5  N   UNL     1      43.248 -16.824   0.801  1.00  0.00    -0.366 N 
HETATM    6  C   UNL     1      43.990 -17.044   2.032  1.00  0.00     0.118 C 
HETATM    7  C   UNL     1      43.616 -16.056   3.152  1.00  0.00     0.066 C 
HETATM    8  C   UNL     1      42.172 -15.518   3.144  1.00  0.00     0.221 C 
HETATM    9  C   UNL     1      41.401 -15.645  -0.350  1.00  0.00     0.088 A 
HETATM   10  H   UNL     1      43.578 -17.349  -0.007  1.00  0.00     0.161 HD
ENDROOT
BRANCH   1  11
HETATM   11  C   UNL     1      39.397 -14.055  -0.590  1.00  0.00     0.272 C 
HETATM   12  N   UNL     1      38.858 -12.943   0.020  1.00  0.00    -0.355 N 
HETATM   13  H   UNL     1      39.350 -12.603   0.842  1.00  0.00     0.162 HD
HETATM   14  O   UNL     1      39.026 -14.464  -1.687  1.00  0.00    -0.266 OA
BRANCH  12  15
HETATM   15  C   UNL     1      37.862 -12.139  -0.654  1.00  0.00     0.127 C 
BRANCH  15  16
HETATM   16  C   UNL     1      38.449 -11.126  -1.635  1.00  0.00     0.060 C 
BRANCH  16  17
HETATM   17  C   UNL     1      39.481 -10.239  -1.011  1.00  0.00    -0.029 A 
HETATM   18  C   UNL     1      40.899 -10.289  -1.202  1.00  0.00    -0.002 A 
HETATM   19  C   UNL     1      41.760 -11.103  -1.967  1.00  0.00     0.014 A 
HETATM   20  C   UNL     1      41.462  -9.281  -0.419  1.00  0.00     0.042 A 
HETATM   21  C   UNL     1      43.141 -10.883  -1.919  1.00  0.00     0.001 A 
HETATM   22  C   UNL     1      43.671  -9.868  -1.126  1.00  0.00     0.002 A 
HETATM   23  C   UNL     1      42.840  -9.045  -0.360  1.00  0.00     0.030 A 
HETATM   24  N   UNL     1      40.429  -8.640   0.222  1.00  0.00    -0.365 N 
HETATM   25  H   UNL     1      40.543  -7.863   0.858  1.00  0.00     0.165 HD
HETATM   26  C   UNL     1      39.233  -9.211  -0.121  1.00  0.00     0.096 A 
ENDBRANCH  16  17
ENDBRANCH  15  16
ENDBRANCH  12  15
ENDBRANCH   1  11
BRANCH   8  27
HETATM   27  C   UNL     1      41.211 -16.359   3.952  1.00  0.00     0.409 C 
HETATM   28  F   UNL     1      40.597 -17.321   3.239  1.00  0.00    -0.169 F 
HETATM   29  F   UNL     1      41.876 -16.981   4.963  1.00  0.00    -0.169 F 
HETATM   30  F   UNL     1      40.248 -15.614   4.543  1.00  0.00    -0.169 F 
ENDBRANCH   8  27
BRANCH   6  31
HETATM   31  C   UNL     1      43.977 -18.517   2.405  1.00  0.00    -0.033 A 
HETATM   32  C   UNL     1      44.385 -18.899   3.699  1.00  0.00     0.049 A 
HETATM   33  C   UNL     1      44.472 -20.244   3.993  1.00  0.00     0.105 A 
HETATM   34  C   UNL     1      44.147 -21.211   3.073  1.00  0.00     0.105 A 
HETATM   35  O   UNL     1      44.902 -20.773   5.171  1.00  0.00    -0.323 OA
HETATM   36  O   UNL     1      44.325 -22.470   3.557  1.00  0.00    -0.323 OA
HETATM   37  C   UNL     1      43.716 -20.887   1.808  1.00  0.00     0.040 A 
HETATM   38  C   UNL     1      44.858 -22.183   4.866  1.00  0.00     0.352 A 
HETATM   39  C   UNL     1      43.644 -19.530   1.474  1.00  0.00     0.012 A 
ENDBRANCH   6  31
TORSDOF 6
ENDMDL
MODEL 9
REMARK VINA RESULT:      -8.6      5.610      8.816
REMARK  6 active torsions:
REMARK  status: ('A' for Active; 'I' for Inactive)
REMARK    1  A    between atoms: C_8  and  C_9 
REMARK    2  A    between atoms: C_9  and  C_10 
REMARK    3  A    between atoms: C_10  and  N_11 
REMARK       I    between atoms: N_11  and  C_12 
REMARK    4  A    between atoms: C_12  and  C_13 
REMARK    5  A    between atoms: C_18  and  C_19 
REMARK    6  A    between atoms: C_29  and  C_30 
ROOT
HETATM    1  C   UNL     1      41.689 -12.659   1.418  1.00  0.00     0.148 A 
HETATM    2  N   UNL     1      40.944 -13.691   0.958  1.00  0.00    -0.165 NA
HETATM    3  N   UNL     1      41.162 -14.662   1.868  1.00  0.00    -0.240 N 
HETATM    4  C   UNL     1      41.906 -14.259   2.936  1.00  0.00     0.123 A 
HETATM    5  N   UNL     1      42.151 -15.066   3.983  1.00  0.00    -0.366 N 
HETATM    6  C   UNL     1      41.599 -16.405   4.113  1.00  0.00     0.118 C 
HETATM    7  C   UNL     1      40.507 -16.714   3.073  1.00  0.00     0.066 C 
HETATM    8  C   UNL     1      40.624 -15.998   1.714  1.00  0.00     0.221 C 
HETATM    9  C   UNL     1      42.299 -12.979   2.661  1.00  0.00     0.088 A 
HETATM   10  H   UNL     1      42.757 -14.768   4.746  1.00  0.00     0.161 HD
ENDROOT
BRANCH   1  11
HETATM   11  C   UNL     1      41.831 -11.382   0.703  1.00  0.00     0.272 C 
HETATM   12  N   UNL     1      42.634 -11.440  -0.415  1.00  0.00    -0.355 N 
HETATM   13  H   UNL     1      42.910 -12.371  -0.718  1.00  0.00     0.162 HD
HETATM   14  O   UNL     1      41.271 -10.354   1.074  1.00  0.00    -0.266 OA
BRANCH  12  15
HETATM   15  C   UNL     1      42.793 -10.285  -1.272  1.00  0.00     0.127 C 
BRANCH  15  16
HETATM   16  C   UNL     1      42.359 -10.525  -2.717  1.00  0.00     0.060 C 
BRANCH  16  17
HETATM   17  C   UNL     1      42.025 -11.958  -2.996  1.00  0.00    -0.029 A 
HETATM   18  C   UNL     1      40.723 -12.531  -3.152  1.00  0.00    -0.002 A 
HETATM   19  C   UNL     1      39.410 -12.016  -3.108  1.00  0.00     0.014 A 
HETATM   20  C   UNL     1      40.893 -13.895  -3.393  1.00  0.00     0.042 A 
HETATM   21  C   UNL     1      38.325 -12.878  -3.300  1.00  0.00     0.001 A 
HETATM   22  C   UNL     1      38.529 -14.236  -3.537  1.00  0.00     0.002 A 
HETATM   23  C   UNL     1      39.819 -14.771  -3.589  1.00  0.00     0.030 A 
HETATM   24  N   UNL     1      42.244 -14.143  -3.386  1.00  0.00    -0.365 N 
HETATM   25  H   UNL     1      42.662 -15.052  -3.535  1.00  0.00     0.165 HD
HETATM   26  C   UNL     1      42.936 -12.987  -3.143  1.00  0.00     0.096 A 
ENDBRANCH  16  17
ENDBRANCH  15  16
ENDBRANCH  12  15
ENDBRANCH   1  11
BRANCH   8  27
HETATM   27  C   UNL     1      41.421 -16.773   0.690  1.00  0.00     0.409 C 
HETATM   28  F   UNL     1      42.753 -16.677   0.852  1.00  0.00    -0.169 F 
HETATM   29  F   UNL     1      41.108 -18.095   0.764  1.00  0.00    -0.169 F 
HETATM   30  F   UNL     1      41.137 -16.393  -0.577  1.00  0.00    -0.169 F 
ENDBRANCH   8  27
BRANCH   6  31
HETATM   31  C   UNL     1      42.714 -17.430   4.240  1.00  0.00    -0.033 A 
HETATM   32  C   UNL     1      42.753 -18.513   3.340  1.00  0.00     0.049 A 
HETATM   33  C   UNL     1      43.704 -19.495   3.531  1.00  0.00     0.105 A 
HETATM   34  C   UNL     1      44.623 -19.428   4.549  1.00  0.00     0.105 A 
HETATM   35  O   UNL     1      43.836 -20.627   2.788  1.00  0.00    -0.323 OA
HETATM   36  O   UNL     1      45.453 -20.505   4.572  1.00  0.00    -0.323 OA
HETATM   37  C   UNL     1      44.644 -18.375   5.433  1.00  0.00     0.040 A 
HETATM   38  C   UNL     1      44.911 -21.287   3.490  1.00  0.00     0.352 A 
HETATM   39  C   UNL     1      43.673 -17.378   5.280  1.00  0.00     0.012 A 
ENDBRANCH   6  31
TORSDOF 6
ENDMDL
MODEL 10
REMARK VINA RESULT:      -8.6      5.231      6.427
REMARK  6 active torsions:
REMARK  status: ('A' for Active; 'I' for Inactive)
REMARK    1  A    between atoms: C_8  and  C_9 
REMARK    2  A    between atoms: C_9  and  C_10 
REMARK    3  A    between atoms: C_10  and  N_11 
REMARK       I    between atoms: N_11  and  C_12 
REMARK    4  A    between atoms: C_12  and  C_13 
REMARK    5  A    between atoms: C_18  and  C_19 
REMARK    6  A    between atoms: C_29  and  C_30 
ROOT
HETATM    1  C   UNL     1      39.855 -12.625   3.869  1.00  0.00     0.148 A 
HETATM    2  N   UNL     1      40.492 -13.818   3.812  1.00  0.00    -0.165 NA
HETATM    3  N   UNL     1      40.777 -13.957   2.501  1.00  0.00    -0.240 N 
HETATM    4  C   UNL     1      40.462 -12.864   1.750  1.00  0.00     0.123 A 
HETATM    5  N   UNL     1      40.755 -12.786   0.441  1.00  0.00    -0.366 N 
HETATM    6  C   UNL     1      41.486 -13.815  -0.282  1.00  0.00     0.118 C 
HETATM    7  C   UNL     1      42.117 -14.873   0.642  1.00  0.00     0.066 C 
HETATM    8  C   UNL     1      41.385 -15.158   1.967  1.00  0.00     0.221 C 
HETATM    9  C   UNL     1      39.827 -11.996   2.595  1.00  0.00     0.088 A 
HETATM   10  H   UNL     1      40.461 -11.986  -0.118  1.00  0.00     0.161 HD
ENDROOT
BRANCH   1  11
HETATM   11  C   UNL     1      39.277 -12.075   5.103  1.00  0.00     0.272 C 
HETATM   12  N   UNL     1      39.887 -12.505   6.261  1.00  0.00    -0.355 N 
HETATM   13  H   UNL     1      40.755 -13.020   6.143  1.00  0.00     0.162 HD
HETATM   14  O   UNL     1      38.332 -11.290   5.095  1.00  0.00    -0.266 OA
BRANCH  12  15
HETATM   15  C   UNL     1      39.487 -11.978   7.548  1.00  0.00     0.127 C 
BRANCH  15  16
HETATM   16  C   UNL     1      40.241 -10.714   7.957  1.00  0.00     0.060 C 
BRANCH  16  17
HETATM   17  C   UNL     1      40.690 -10.739   9.385  1.00  0.00    -0.029 A 
HETATM   18  C   UNL     1      42.036 -10.749   9.871  1.00  0.00    -0.002 A 
HETATM   19  C   UNL     1      43.304 -10.740   9.254  1.00  0.00     0.014 A 
HETATM   20  C   UNL     1      41.977 -10.779  11.265  1.00  0.00     0.042 A 
HETATM   21  C   UNL     1      44.457 -10.764  10.047  1.00  0.00     0.001 A 
HETATM   22  C   UNL     1      44.364 -10.796  11.436  1.00  0.00     0.002 A 
HETATM   23  C   UNL     1      43.120 -10.803  12.073  1.00  0.00     0.030 A 
HETATM   24  N   UNL     1      40.648 -10.785  11.615  1.00  0.00    -0.365 N 
HETATM   25  H   UNL     1      40.305 -10.805  12.566  1.00  0.00     0.165 HD
HETATM   26  C   UNL     1      39.864 -10.766  10.493  1.00  0.00     0.096 A 
ENDBRANCH  16  17
ENDBRANCH  15  16
ENDBRANCH  12  15
ENDBRANCH   1  11
BRANCH   8  27
HETATM   27  C   UNL     1      40.363 -16.266   1.865  1.00  0.00     0.409 C 
HETATM   28  F   UNL     1      39.101 -15.829   1.696  1.00  0.00    -0.169 F 
HETATM   29  F   UNL     1      40.650 -17.065   0.802  1.00  0.00    -0.169 F 
HETATM   30  F   UNL     1      40.371 -17.074   2.951  1.00  0.00    -0.169 F 
ENDBRANCH   8  27
BRANCH   6  31
HETATM   31  C   UNL     1      40.657 -14.344  -1.439  1.00  0.00    -0.033 A 
HETATM   32  C   UNL     1      39.427 -13.726  -1.739  1.00  0.00     0.049 A 
HETATM   33  C   UNL     1      38.631 -14.280  -2.722  1.00  0.00     0.105 A 
HETATM   34  C   UNL     1      39.019 -15.392  -3.428  1.00  0.00     0.105 A 
HETATM   35  O   UNL     1      37.398 -13.838  -3.088  1.00  0.00    -0.323 OA
HETATM   36  O   UNL     1      38.082 -15.788  -4.331  1.00  0.00    -0.323 OA
HETATM   37  C   UNL     1      40.223 -16.013  -3.191  1.00  0.00     0.040 A 
HETATM   38  C   UNL     1      37.034 -14.832  -4.068  1.00  0.00     0.352 A 
HETATM   39  C   UNL     1      41.038 -15.488  -2.181  1.00  0.00     0.012 A 
ENDBRANCH   6  31
TORSDOF 6
ENDMDL
