MODEL 1
REMARK VINA RESULT:      -7.7      0.000      0.000
REMARK  5 active torsions:
REMARK  status: ('A' for Active; 'I' for Inactive)
REMARK    1  A    between atoms: C_4  and  O_5 
REMARK    2  A    between atoms: O_5  and  C_6 
REMARK    3  A    between atoms: C_6  and  C_7 
REMARK    4  A    between atoms: C_11  and  N_12 
REMARK       I    between atoms: N_12  and  C_13 
REMARK       I    between atoms: C_13  and  N_14 
REMARK    5  A    between atoms: N_14  and  C_15 
ROOT
HETATM    1  N   UNL     1      44.115 -16.688   4.222  1.00  0.00    -0.306 N 
HETATM    2  C   UNL     1      43.174 -15.905   3.613  1.00  0.00     0.325 C 
HETATM    3  N   UNL     1      41.877 -16.316   3.701  1.00  0.00    -0.305 N 
HETATM    4  O   UNL     1      43.587 -14.943   2.972  1.00  0.00    -0.247 OA
HETATM    5  H   UNL     1      45.021 -16.540   3.791  1.00  0.00     0.171 HD
HETATM    6  H   UNL     1      41.692 -17.142   4.242  1.00  0.00     0.171 HD
ENDROOT
BRANCH   1   7
HETATM    7  C   UNL     1      44.044 -17.742   5.150  1.00  0.00     0.069 A 
HETATM    8  C   UNL     1      44.048 -19.051   4.645  1.00  0.00     0.096 A 
HETATM    9  C   UNL     1      43.879 -20.152   5.486  1.00  0.00     0.046 A 
HETATM   10  C   UNL     1      43.788 -19.963   6.869  1.00  0.00    -0.059 A 
HETATM   11  C   UNL     1      43.544 -21.127   7.783  1.00  0.00     0.048 C 
HETATM   12  C   UNL     1      43.873 -18.664   7.384  1.00  0.00     0.009 A 
HETATM   13  C   UNL     1      44.014 -17.561   6.533  1.00  0.00     0.033 A 
BRANCH   8  14
HETATM   14  O   UNL     1      44.116 -19.266   3.290  1.00  0.00    -0.340 OA
BRANCH  14  15
HETATM   15  C   UNL     1      44.928 -20.418   2.991  1.00  0.00     0.293 C 
BRANCH  15  16
HETATM   16  C   UNL     1      44.127 -21.486   2.266  1.00  0.00     0.408 C 
HETATM   17  F   UNL     1      42.931 -21.019   1.844  1.00  0.00    -0.169 F 
HETATM   18  F   UNL     1      44.800 -21.919   1.174  1.00  0.00    -0.169 F 
HETATM   19  F   UNL     1      43.903 -22.560   3.054  1.00  0.00    -0.169 F 
ENDBRANCH  15  16
ENDBRANCH  14  15
ENDBRANCH   8  14
ENDBRANCH   1   7
BRANCH   3  20
HETATM   20  C   UNL     1      40.781 -15.800   3.030  1.00  0.00     0.086 A 
HETATM   21  C   UNL     1      39.910 -14.694   3.262  1.00  0.00     0.079 A 
HETATM   22  C   UNL     1      39.926 -13.656   4.324  1.00  0.00     0.075 C 
HETATM   23  N   UNL     1      38.982 -14.594   2.298  1.00  0.00    -0.177 NA
HETATM   24  N   UNL     1      39.258 -15.602   1.466  1.00  0.00    -0.280 N 
HETATM   25  H   UNL     1      38.668 -15.717   0.649  1.00  0.00     0.189 HD
HETATM   26  C   UNL     1      40.335 -16.350   1.842  1.00  0.00     0.052 A 
HETATM   27  C   UNL     1      40.783 -17.516   1.045  1.00  0.00     0.072 C 
ENDBRANCH   3  20
TORSDOF 5
ENDMDL
MODEL 2
REMARK VINA RESULT:      -7.6      2.895      3.832
REMARK  5 active torsions:
REMARK  status: ('A' for Active; 'I' for Inactive)
REMARK    1  A    between atoms: C_4  and  O_5 
REMARK    2  A    between atoms: O_5  and  C_6 
REMARK    3  A    between atoms: C_6  and  C_7 
REMARK    4  A    between atoms: C_11  and  N_12 
REMARK       I    between atoms: N_12  and  C_13 
REMARK       I    between atoms: C_13  and  N_14 
REMARK    5  A    between atoms: N_14  and  C_15 
ROOT
HETATM    1  N   UNL     1      44.064 -17.032   4.064  1.00  0.00    -0.306 N 
HETATM    2  C   UNL     1      43.071 -16.126   3.818  1.00  0.00     0.325 C 
HETATM    3  N   UNL     1      42.006 -16.559   3.086  1.00  0.00    -0.305 N 
HETATM    4  O   UNL     1      43.263 -14.977   4.209  1.00  0.00    -0.247 OA
HETATM    5  H   UNL     1      44.937 -16.550   4.249  1.00  0.00     0.171 HD
HETATM    6  H   UNL     1      41.999 -17.525   2.813  1.00  0.00     0.171 HD
ENDROOT
BRANCH   1   7
HETATM    7  C   UNL     1      44.153 -18.429   3.932  1.00  0.00     0.069 A 
HETATM    8  C   UNL     1      44.534 -19.164   5.065  1.00  0.00     0.096 A 
HETATM    9  C   UNL     1      44.745 -20.542   4.997  1.00  0.00     0.046 A 
HETATM   10  C   UNL     1      44.492 -21.226   3.803  1.00  0.00    -0.059 A 
HETATM   11  C   UNL     1      44.771 -22.696   3.693  1.00  0.00     0.048 C 
HETATM   12  C   UNL     1      44.024 -20.509   2.695  1.00  0.00     0.009 A 
HETATM   13  C   UNL     1      43.842 -19.122   2.761  1.00  0.00     0.033 A 
BRANCH   8  14
HETATM   14  O   UNL     1      44.810 -18.517   6.244  1.00  0.00    -0.340 OA
BRANCH  14  15
HETATM   15  C   UNL     1      43.706 -18.630   7.164  1.00  0.00     0.293 C 
BRANCH  15  16
HETATM   16  C   UNL     1      43.276 -17.268   7.681  1.00  0.00     0.408 C 
HETATM   17  F   UNL     1      43.317 -17.205   9.030  1.00  0.00    -0.169 F 
HETATM   18  F   UNL     1      44.098 -16.303   7.206  1.00  0.00    -0.169 F 
HETATM   19  F   UNL     1      42.021 -16.960   7.285  1.00  0.00    -0.169 F 
ENDBRANCH  15  16
ENDBRANCH  14  15
ENDBRANCH   8  14
ENDBRANCH   1   7
BRANCH   3  20
HETATM   20  C   UNL     1      40.976 -15.795   2.563  1.00  0.00     0.086 A 
HETATM   21  C   UNL     1      40.027 -14.893   3.129  1.00  0.00     0.079 A 
HETATM   22  C   UNL     1      39.857 -14.418   4.525  1.00  0.00     0.075 C 
HETATM   23  N   UNL     1      39.221 -14.380   2.187  1.00  0.00    -0.177 NA
HETATM   24  N   UNL     1      39.649 -14.929   1.048  1.00  0.00    -0.280 N 
HETATM   25  H   UNL     1      39.171 -14.675   0.189  1.00  0.00     0.189 HD
HETATM   26  C   UNL     1      40.709 -15.774   1.206  1.00  0.00     0.052 A 
HETATM   27  C   UNL     1      41.312 -16.482   0.052  1.00  0.00     0.072 C 
ENDBRANCH   3  20
TORSDOF 5
ENDMDL
MODEL 3
REMARK VINA RESULT:      -7.5      1.200      2.134
REMARK  5 active torsions:
REMARK  status: ('A' for Active; 'I' for Inactive)
REMARK    1  A    between atoms: C_4  and  O_5 
REMARK    2  A    between atoms: O_5  and  C_6 
REMARK    3  A    between atoms: C_6  and  C_7 
REMARK    4  A    between atoms: C_11  and  N_12 
REMARK       I    between atoms: N_12  and  C_13 
REMARK       I    between atoms: C_13  and  N_14 
REMARK    5  A    between atoms: N_14  and  C_15 
ROOT
HETATM    1  N   UNL     1      43.881 -15.759   5.376  1.00  0.00    -0.306 N 
HETATM    2  C   UNL     1      42.951 -15.065   4.653  1.00  0.00     0.325 C 
HETATM    3  N   UNL     1      41.849 -15.752   4.240  1.00  0.00    -0.305 N 
HETATM    4  O   UNL     1      43.230 -13.903   4.369  1.00  0.00    -0.247 OA
HETATM    5  H   UNL     1      44.787 -15.313   5.296  1.00  0.00     0.171 HD
HETATM    6  H   UNL     1      41.770 -16.710   4.530  1.00  0.00     0.171 HD
ENDROOT
BRANCH   1   7
HETATM    7  C   UNL     1      43.868 -17.010   6.020  1.00  0.00     0.069 A 
HETATM    8  C   UNL     1      43.968 -18.154   5.213  1.00  0.00     0.096 A 
HETATM    9  C   UNL     1      43.863 -19.434   5.758  1.00  0.00     0.046 A 
HETATM   10  C   UNL     1      43.741 -19.593   7.142  1.00  0.00    -0.059 A 
HETATM   11  C   UNL     1      43.564 -20.958   7.740  1.00  0.00     0.048 C 
HETATM   12  C   UNL     1      43.732 -18.456   7.958  1.00  0.00     0.009 A 
HETATM   13  C   UNL     1      43.809 -17.172   7.404  1.00  0.00     0.033 A 
BRANCH   8  14
HETATM   14  O   UNL     1      44.068 -18.028   3.850  1.00  0.00    -0.340 OA
BRANCH  14  15
HETATM   15  C   UNL     1      43.063 -18.819   3.185  1.00  0.00     0.293 C 
BRANCH  15  16
HETATM   16  C   UNL     1      43.659 -19.617   2.037  1.00  0.00     0.408 C 
HETATM   17  F   UNL     1      43.846 -18.855   0.937  1.00  0.00    -0.169 F 
HETATM   18  F   UNL     1      44.864 -20.121   2.390  1.00  0.00    -0.169 F 
HETATM   19  F   UNL     1      42.869 -20.659   1.696  1.00  0.00    -0.169 F 
ENDBRANCH  15  16
ENDBRANCH  14  15
ENDBRANCH   8  14
ENDBRANCH   1   7
BRANCH   3  20
HETATM   20  C   UNL     1      40.870 -15.325   3.360  1.00  0.00     0.086 A 
HETATM   21  C   UNL     1      40.545 -15.647   2.009  1.00  0.00     0.079 A 
HETATM   22  C   UNL     1      41.151 -16.631   1.076  1.00  0.00     0.075 C 
HETATM   23  N   UNL     1      39.472 -14.959   1.587  1.00  0.00    -0.177 NA
HETATM   24  N   UNL     1      39.114 -14.225   2.643  1.00  0.00    -0.280 N 
HETATM   25  H   UNL     1      38.308 -13.616   2.546  1.00  0.00     0.189 HD
HETATM   26  C   UNL     1      39.903 -14.412   3.741  1.00  0.00     0.052 A 
HETATM   27  C   UNL     1      39.660 -13.674   5.002  1.00  0.00     0.072 C 
ENDBRANCH   3  20
TORSDOF 5
ENDMDL
MODEL 4
REMARK VINA RESULT:      -7.4      2.977      4.273
REMARK  5 active torsions:
REMARK  status: ('A' for Active; 'I' for Inactive)
REMARK    1  A    between atoms: C_4  and  O_5 
REMARK    2  A    between atoms: O_5  and  C_6 
REMARK    3  A    between atoms: C_6  and  C_7 
REMARK    4  A    between atoms: C_11  and  N_12 
REMARK       I    between atoms: N_12  and  C_13 
REMARK       I    between atoms: C_13  and  N_14 
REMARK    5  A    between atoms: N_14  and  C_15 
ROOT
HETATM    1  N   UNL     1      43.904 -15.786   2.506  1.00  0.00    -0.306 N 
HETATM    2  C   UNL     1      43.177 -14.879   3.226  1.00  0.00     0.325 C 
HETATM    3  N   UNL     1      41.987 -15.306   3.736  1.00  0.00    -0.305 N 
HETATM    4  O   UNL     1      43.621 -13.735   3.282  1.00  0.00    -0.247 OA
HETATM    5  H   UNL     1      44.528 -15.304   1.869  1.00  0.00     0.171 HD
HETATM    6  H   UNL     1      41.742 -16.268   3.588  1.00  0.00     0.171 HD
ENDROOT
BRANCH   1   7
HETATM    7  C   UNL     1      43.825 -17.181   2.347  1.00  0.00     0.069 A 
HETATM    8  C   UNL     1      43.879 -17.969   3.507  1.00  0.00     0.096 A 
HETATM    9  C   UNL     1      43.909 -19.362   3.434  1.00  0.00     0.046 A 
HETATM   10  C   UNL     1      43.798 -19.996   2.192  1.00  0.00    -0.059 A 
HETATM   11  C   UNL     1      43.891 -21.490   2.088  1.00  0.00     0.048 C 
HETATM   12  C   UNL     1      43.654 -19.214   1.040  1.00  0.00     0.009 A 
HETATM   13  C   UNL     1      43.654 -17.815   1.117  1.00  0.00     0.033 A 
BRANCH   8  14
HETATM   14  O   UNL     1      44.008 -17.374   4.737  1.00  0.00    -0.340 OA
BRANCH  14  15
HETATM   15  C   UNL     1      43.635 -18.283   5.791  1.00  0.00     0.293 C 
BRANCH  15  16
HETATM   16  C   UNL     1      44.414 -18.002   7.065  1.00  0.00     0.408 C 
HETATM   17  F   UNL     1      45.748 -18.090   6.870  1.00  0.00    -0.169 F 
HETATM   18  F   UNL     1      44.151 -16.751   7.510  1.00  0.00    -0.169 F 
HETATM   19  F   UNL     1      44.077 -18.861   8.052  1.00  0.00    -0.169 F 
ENDBRANCH  15  16
ENDBRANCH  14  15
ENDBRANCH   8  14
ENDBRANCH   1   7
BRANCH   3  20
HETATM   20  C   UNL     1      41.005 -14.539   4.339  1.00  0.00     0.086 A 
HETATM   21  C   UNL     1      40.361 -13.311   4.001  1.00  0.00     0.079 A 
HETATM   22  C   UNL     1      40.507 -12.439   2.808  1.00  0.00     0.075 C 
HETATM   23  N   UNL     1      39.443 -12.972   4.920  1.00  0.00    -0.177 NA
HETATM   24  N   UNL     1      39.491 -13.961   5.815  1.00  0.00    -0.280 N 
HETATM   25  H   UNL     1      38.866 -13.908   6.614  1.00  0.00     0.189 HD
HETATM   26  C   UNL     1      40.395 -14.937   5.515  1.00  0.00     0.052 A 
HETATM   27  C   UNL     1      40.592 -16.108   6.401  1.00  0.00     0.072 C 
ENDBRANCH   3  20
TORSDOF 5
ENDMDL
MODEL 5
REMARK VINA RESULT:      -7.4      2.664      5.828
REMARK  5 active torsions:
REMARK  status: ('A' for Active; 'I' for Inactive)
REMARK    1  A    between atoms: C_4  and  O_5 
REMARK    2  A    between atoms: O_5  and  C_6 
REMARK    3  A    between atoms: C_6  and  C_7 
REMARK    4  A    between atoms: C_11  and  N_12 
REMARK       I    between atoms: N_12  and  C_13 
REMARK       I    between atoms: C_13  and  N_14 
REMARK    5  A    between atoms: N_14  and  C_15 
ROOT
HETATM    1  N   UNL     1      40.596 -16.810   3.720  1.00  0.00    -0.306 N 
HETATM    2  C   UNL     1      41.166 -16.407   4.895  1.00  0.00     0.325 C 
HETATM    3  N   UNL     1      42.152 -15.470   4.816  1.00  0.00    -0.305 N 
HETATM    4  O   UNL     1      40.796 -16.986   5.914  1.00  0.00    -0.247 OA
HETATM    5  H   UNL     1      40.192 -17.733   3.828  1.00  0.00     0.171 HD
HETATM    6  H   UNL     1      42.366 -15.104   3.905  1.00  0.00     0.171 HD
ENDROOT
BRANCH   1   7
HETATM    7  C   UNL     1      40.625 -16.304   2.408  1.00  0.00     0.069 A 
HETATM    8  C   UNL     1      41.194 -17.114   1.414  1.00  0.00     0.096 A 
HETATM    9  C   UNL     1      41.355 -16.651   0.108  1.00  0.00     0.046 A 
HETATM   10  C   UNL     1      40.865 -15.390  -0.249  1.00  0.00    -0.059 A 
HETATM   11  C   UNL     1      41.084 -14.850  -1.631  1.00  0.00     0.048 C 
HETATM   12  C   UNL     1      40.216 -14.616   0.719  1.00  0.00     0.009 A 
HETATM   13  C   UNL     1      40.083 -15.073   2.036  1.00  0.00     0.033 A 
BRANCH   8  14
HETATM   14  O   UNL     1      41.702 -18.348   1.739  1.00  0.00    -0.340 OA
BRANCH  14  15
HETATM   15  C   UNL     1      43.140 -18.352   1.651  1.00  0.00     0.293 C 
BRANCH  15  16
HETATM   16  C   UNL     1      43.775 -18.649   3.000  1.00  0.00     0.408 C 
HETATM   17  F   UNL     1      44.740 -19.590   2.906  1.00  0.00    -0.169 F 
HETATM   18  F   UNL     1      44.346 -17.531   3.507  1.00  0.00    -0.169 F 
HETATM   19  F   UNL     1      42.858 -19.077   3.896  1.00  0.00    -0.169 F 
ENDBRANCH  15  16
ENDBRANCH  14  15
ENDBRANCH   8  14
ENDBRANCH   1   7
BRANCH   3  20
HETATM   20  C   UNL     1      42.991 -15.039   5.830  1.00  0.00     0.086 A 
HETATM   21  C   UNL     1      43.979 -15.679   6.635  1.00  0.00     0.079 A 
HETATM   22  C   UNL     1      44.491 -17.073   6.614  1.00  0.00     0.075 C 
HETATM   23  N   UNL     1      44.543 -14.815   7.494  1.00  0.00    -0.177 NA
HETATM   24  N   UNL     1      43.940 -13.652   7.237  1.00  0.00    -0.280 N 
HETATM   25  H   UNL     1      44.219 -12.843   7.783  1.00  0.00     0.189 HD
HETATM   26  C   UNL     1      43.012 -13.718   6.239  1.00  0.00     0.052 A 
HETATM   27  C   UNL     1      42.235 -12.526   5.825  1.00  0.00     0.072 C 
ENDBRANCH   3  20
TORSDOF 5
ENDMDL
MODEL 6
REMARK VINA RESULT:      -7.4      3.202      4.387
REMARK  5 active torsions:
REMARK  status: ('A' for Active; 'I' for Inactive)
REMARK    1  A    between atoms: C_4  and  O_5 
REMARK    2  A    between atoms: O_5  and  C_6 
REMARK    3  A    between atoms: C_6  and  C_7 
REMARK    4  A    between atoms: C_11  and  N_12 
REMARK       I    between atoms: N_12  and  C_13 
REMARK       I    between atoms: C_13  and  N_14 
REMARK    5  A    between atoms: N_14  and  C_15 
ROOT
HETATM    1  N   UNL     1      43.589 -15.388   2.659  1.00  0.00    -0.306 N 
HETATM    2  C   UNL     1      42.679 -14.500   2.156  1.00  0.00     0.325 C 
HETATM    3  N   UNL     1      41.800 -14.974   1.228  1.00  0.00    -0.305 N 
HETATM    4  O   UNL     1      42.785 -13.333   2.524  1.00  0.00    -0.247 OA
HETATM    5  H   UNL     1      44.401 -14.892   3.009  1.00  0.00     0.171 HD
HETATM    6  H   UNL     1      41.849 -15.952   1.006  1.00  0.00     0.171 HD
ENDROOT
BRANCH   1   7
HETATM    7  C   UNL     1      43.698 -16.789   2.617  1.00  0.00     0.069 A 
HETATM    8  C   UNL     1      43.682 -17.477   3.839  1.00  0.00     0.096 A 
HETATM    9  C   UNL     1      43.886 -18.856   3.896  1.00  0.00     0.046 A 
HETATM   10  C   UNL     1      44.025 -19.588   2.712  1.00  0.00    -0.059 A 
HETATM   11  C   UNL     1      44.307 -21.061   2.755  1.00  0.00     0.048 C 
HETATM   12  C   UNL     1      43.951 -18.917   1.486  1.00  0.00     0.009 A 
HETATM   13  C   UNL     1      43.775 -17.528   1.436  1.00  0.00     0.033 A 
BRANCH   8  14
HETATM   14  O   UNL     1      43.569 -16.782   5.018  1.00  0.00    -0.340 OA
BRANCH  14  15
HETATM   15  C   UNL     1      42.604 -17.403   5.890  1.00  0.00     0.293 C 
BRANCH  15  16
HETATM   16  C   UNL     1      41.188 -16.983   5.535  1.00  0.00     0.408 C 
HETATM   17  F   UNL     1      41.151 -15.747   4.990  1.00  0.00    -0.169 F 
HETATM   18  F   UNL     1      40.655 -17.839   4.632  1.00  0.00    -0.169 F 
HETATM   19  F   UNL     1      40.382 -16.987   6.620  1.00  0.00    -0.169 F 
ENDBRANCH  15  16
ENDBRANCH  14  15
ENDBRANCH   8  14
ENDBRANCH   1   7
BRANCH   3  20
HETATM   20  C   UNL     1      40.915 -14.242   0.454  1.00  0.00     0.086 A 
HETATM   21  C   UNL     1      41.061 -13.404  -0.691  1.00  0.00     0.079 A 
HETATM   22  C   UNL     1      42.263 -13.066  -1.495  1.00  0.00     0.075 C 
HETATM   23  N   UNL     1      39.877 -12.918  -1.094  1.00  0.00    -0.177 NA
HETATM   24  N   UNL     1      38.996 -13.440  -0.238  1.00  0.00    -0.280 N 
HETATM   25  H   UNL     1      38.017 -13.200  -0.360  1.00  0.00     0.189 HD
HETATM   26  C   UNL     1      39.555 -14.255   0.703  1.00  0.00     0.052 A 
HETATM   27  C   UNL     1      38.731 -14.914   1.743  1.00  0.00     0.072 C 
ENDBRANCH   3  20
TORSDOF 5
ENDMDL
MODEL 7
REMARK VINA RESULT:      -7.3      2.969      4.118
REMARK  5 active torsions:
REMARK  status: ('A' for Active; 'I' for Inactive)
REMARK    1  A    between atoms: C_4  and  O_5 
REMARK    2  A    between atoms: O_5  and  C_6 
REMARK    3  A    between atoms: C_6  and  C_7 
REMARK    4  A    between atoms: C_11  and  N_12 
REMARK       I    between atoms: N_12  and  C_13 
REMARK       I    between atoms: C_13  and  N_14 
REMARK    5  A    between atoms: N_14  and  C_15 
ROOT
HETATM    1  N   UNL     1      43.588 -15.439   2.536  1.00  0.00    -0.306 N 
HETATM    2  C   UNL     1      42.561 -14.651   2.095  1.00  0.00     0.325 C 
HETATM    3  N   UNL     1      41.546 -15.271   1.431  1.00  0.00    -0.305 N 
HETATM    4  O   UNL     1      42.683 -13.440   2.266  1.00  0.00    -0.247 OA
HETATM    5  H   UNL     1      44.429 -14.884   2.648  1.00  0.00     0.171 HD
HETATM    6  H   UNL     1      41.596 -16.270   1.346  1.00  0.00     0.171 HD
ENDROOT
BRANCH   1   7
HETATM    7  C   UNL     1      43.749 -16.829   2.673  1.00  0.00     0.069 A 
HETATM    8  C   UNL     1      43.705 -17.360   3.971  1.00  0.00     0.096 A 
HETATM    9  C   UNL     1      43.955 -18.713   4.208  1.00  0.00     0.046 A 
HETATM   10  C   UNL     1      44.172 -19.579   3.132  1.00  0.00    -0.059 A 
HETATM   11  C   UNL     1      44.505 -21.022   3.370  1.00  0.00     0.048 C 
HETATM   12  C   UNL     1      44.128 -19.068   1.829  1.00  0.00     0.009 A 
HETATM   13  C   UNL     1      43.905 -17.705   1.599  1.00  0.00     0.033 A 
BRANCH   8  14
HETATM   14  O   UNL     1      43.514 -16.531   5.048  1.00  0.00    -0.340 OA
BRANCH  14  15
HETATM   15  C   UNL     1      42.587 -17.110   5.987  1.00  0.00     0.293 C 
BRANCH  15  16
HETATM   16  C   UNL     1      41.148 -16.898   5.544  1.00  0.00     0.408 C 
HETATM   17  F   UNL     1      40.691 -17.934   4.807  1.00  0.00    -0.169 F 
HETATM   18  F   UNL     1      40.337 -16.778   6.621  1.00  0.00    -0.169 F 
HETATM   19  F   UNL     1      41.016 -15.771   4.811  1.00  0.00    -0.169 F 
ENDBRANCH  15  16
ENDBRANCH  14  15
ENDBRANCH   8  14
ENDBRANCH   1   7
BRANCH   3  20
HETATM   20  C   UNL     1      40.500 -14.677   0.745  1.00  0.00     0.086 A 
HETATM   21  C   UNL     1      39.435 -13.808   1.125  1.00  0.00     0.079 A 
HETATM   22  C   UNL     1      39.113 -13.187   2.435  1.00  0.00     0.075 C 
HETATM   23  N   UNL     1      38.666 -13.490   0.072  1.00  0.00    -0.177 NA
HETATM   24  N   UNL     1      39.230 -14.129  -0.955  1.00  0.00    -0.280 N 
HETATM   25  H   UNL     1      38.802 -14.027  -1.870  1.00  0.00     0.189 HD
HETATM   26  C   UNL     1      40.342 -14.845  -0.619  1.00  0.00     0.052 A 
HETATM   27  C   UNL     1      41.093 -15.626  -1.628  1.00  0.00     0.072 C 
ENDBRANCH   3  20
TORSDOF 5
ENDMDL
MODEL 8
REMARK VINA RESULT:      -7.2      3.768      5.234
REMARK  5 active torsions:
REMARK  status: ('A' for Active; 'I' for Inactive)
REMARK    1  A    between atoms: C_4  and  O_5 
REMARK    2  A    between atoms: O_5  and  C_6 
REMARK    3  A    between atoms: C_6  and  C_7 
REMARK    4  A    between atoms: C_11  and  N_12 
REMARK       I    between atoms: N_12  and  C_13 
REMARK       I    between atoms: C_13  and  N_14 
REMARK    5  A    between atoms: N_14  and  C_15 
ROOT
HETATM    1  N   UNL     1      40.731 -16.619   2.531  1.00  0.00    -0.306 N 
HETATM    2  C   UNL     1      40.464 -15.718   1.538  1.00  0.00     0.325 C 
HETATM    3  N   UNL     1      41.445 -15.504   0.617  1.00  0.00    -0.305 N 
HETATM    4  O   UNL     1      39.394 -15.119   1.609  1.00  0.00    -0.247 OA
HETATM    5  H   UNL     1      40.151 -16.426   3.340  1.00  0.00     0.171 HD
HETATM    6  H   UNL     1      42.282 -16.053   0.701  1.00  0.00     0.171 HD
ENDROOT
BRANCH   1   7
HETATM    7  C   UNL     1      41.732 -17.590   2.713  1.00  0.00     0.069 A 
HETATM    8  C   UNL     1      42.425 -17.584   3.933  1.00  0.00     0.096 A 
HETATM    9  C   UNL     1      43.500 -18.446   4.158  1.00  0.00     0.046 A 
HETATM   10  C   UNL     1      43.845 -19.394   3.190  1.00  0.00    -0.059 A 
HETATM   11  C   UNL     1      45.035 -20.287   3.388  1.00  0.00     0.048 C 
HETATM   12  C   UNL     1      43.097 -19.463   2.009  1.00  0.00     0.009 A 
HETATM   13  C   UNL     1      42.038 -18.576   1.776  1.00  0.00     0.033 A 
BRANCH   8  14
HETATM   14  O   UNL     1      42.122 -16.650   4.893  1.00  0.00    -0.340 OA
BRANCH  14  15
HETATM   15  C   UNL     1      43.250 -15.793   5.152  1.00  0.00     0.293 C 
BRANCH  15  16
HETATM   16  C   UNL     1      43.216 -14.555   4.271  1.00  0.00     0.408 C 
HETATM   17  F   UNL     1      43.701 -14.803   3.035  1.00  0.00    -0.169 F 
HETATM   18  F   UNL     1      41.945 -14.114   4.127  1.00  0.00    -0.169 F 
HETATM   19  F   UNL     1      43.935 -13.544   4.809  1.00  0.00    -0.169 F 
ENDBRANCH  15  16
ENDBRANCH  14  15
ENDBRANCH   8  14
ENDBRANCH   1   7
BRANCH   3  20
HETATM   20  C   UNL     1      41.483 -14.528  -0.364  1.00  0.00     0.086 A 
HETATM   21  C   UNL     1      41.269 -14.534  -1.775  1.00  0.00     0.079 A 
HETATM   22  C   UNL     1      40.867 -15.634  -2.687  1.00  0.00     0.075 C 
HETATM   23  N   UNL     1      41.411 -13.305  -2.295  1.00  0.00    -0.177 NA
HETATM   24  N   UNL     1      41.698 -12.532  -1.244  1.00  0.00    -0.280 N 
HETATM   25  H   UNL     1      41.849 -11.542  -1.411  1.00  0.00     0.189 HD
HETATM   26  C   UNL     1      41.739 -13.204  -0.058  1.00  0.00     0.052 A 
HETATM   27  C   UNL     1      42.053 -12.510   1.213  1.00  0.00     0.072 C 
ENDBRANCH   3  20
TORSDOF 5
ENDMDL
MODEL 9
REMARK VINA RESULT:      -7.2      3.031      6.415
REMARK  5 active torsions:
REMARK  status: ('A' for Active; 'I' for Inactive)
REMARK    1  A    between atoms: C_4  and  O_5 
REMARK    2  A    between atoms: O_5  and  C_6 
REMARK    3  A    between atoms: C_6  and  C_7 
REMARK    4  A    between atoms: C_11  and  N_12 
REMARK       I    between atoms: N_12  and  C_13 
REMARK       I    between atoms: C_13  and  N_14 
REMARK    5  A    between atoms: N_14  and  C_15 
ROOT
HETATM    1  N   UNL     1      43.212 -15.556   2.653  1.00  0.00    -0.306 N 
HETATM    2  C   UNL     1      43.708 -16.829   2.585  1.00  0.00     0.325 C 
HETATM    3  N   UNL     1      43.487 -17.637   3.660  1.00  0.00    -0.305 N 
HETATM    4  O   UNL     1      44.379 -17.107   1.594  1.00  0.00    -0.247 OA
HETATM    5  H   UNL     1      43.735 -14.946   2.035  1.00  0.00     0.171 HD
HETATM    6  H   UNL     1      42.939 -17.261   4.412  1.00  0.00     0.171 HD
ENDROOT
BRANCH   1   7
HETATM    7  C   UNL     1      42.294 -14.921   3.507  1.00  0.00     0.069 A 
HETATM    8  C   UNL     1      40.928 -15.088   3.230  1.00  0.00     0.096 A 
HETATM    9  C   UNL     1      39.953 -14.413   3.964  1.00  0.00     0.046 A 
HETATM   10  C   UNL     1      40.327 -13.618   5.053  1.00  0.00    -0.059 A 
HETATM   11  C   UNL     1      39.299 -12.836   5.815  1.00  0.00     0.048 C 
HETATM   12  C   UNL     1      41.683 -13.521   5.388  1.00  0.00     0.009 A 
HETATM   13  C   UNL     1      42.660 -14.178   4.630  1.00  0.00     0.033 A 
BRANCH   8  14
HETATM   14  O   UNL     1      40.532 -15.845   2.155  1.00  0.00    -0.340 OA
BRANCH  14  15
HETATM   15  C   UNL     1      40.141 -15.007   1.051  1.00  0.00     0.293 C 
BRANCH  15  16
HETATM   16  C   UNL     1      41.049 -15.215  -0.150  1.00  0.00     0.408 C 
HETATM   17  F   UNL     1      42.069 -14.329  -0.170  1.00  0.00    -0.169 F 
HETATM   18  F   UNL     1      41.592 -16.455  -0.120  1.00  0.00    -0.169 F 
HETATM   19  F   UNL     1      40.370 -15.099  -1.312  1.00  0.00    -0.169 F 
ENDBRANCH  15  16
ENDBRANCH  14  15
ENDBRANCH   8  14
ENDBRANCH   1   7
BRANCH   3  20
HETATM   20  C   UNL     1      44.032 -18.887   3.901  1.00  0.00     0.086 A 
HETATM   21  C   UNL     1      44.046 -20.116   3.177  1.00  0.00     0.079 A 
HETATM   22  C   UNL     1      43.496 -20.459   1.841  1.00  0.00     0.075 C 
HETATM   23  N   UNL     1      44.732 -21.062   3.837  1.00  0.00    -0.177 NA
HETATM   24  N   UNL     1      45.155 -20.452   4.946  1.00  0.00    -0.280 N 
HETATM   25  H   UNL     1      45.707 -20.994   5.604  1.00  0.00     0.189 HD
HETATM   26  C   UNL     1      44.782 -19.143   5.035  1.00  0.00     0.052 A 
HETATM   27  C   UNL     1      45.153 -18.310   6.202  1.00  0.00     0.072 C 
ENDBRANCH   3  20
TORSDOF 5
ENDMDL
MODEL 10
REMARK VINA RESULT:      -7.2      3.503      7.000
REMARK  5 active torsions:
REMARK  status: ('A' for Active; 'I' for Inactive)
REMARK    1  A    between atoms: C_4  and  O_5 
REMARK    2  A    between atoms: O_5  and  C_6 
REMARK    3  A    between atoms: C_6  and  C_7 
REMARK    4  A    between atoms: C_11  and  N_12 
REMARK       I    between atoms: N_12  and  C_13 
REMARK       I    between atoms: C_13  and  N_14 
REMARK    5  A    between atoms: N_14  and  C_15 
ROOT
HETATM    1  N   UNL     1      40.880 -16.862   3.305  1.00  0.00    -0.306 N 
HETATM    2  C   UNL     1      41.708 -17.682   4.018  1.00  0.00     0.325 C 
HETATM    3  N   UNL     1      42.891 -18.026   3.434  1.00  0.00    -0.305 N 
HETATM    4  O   UNL     1      41.279 -18.105   5.089  1.00  0.00    -0.247 OA
HETATM    5  H   UNL     1      39.922 -16.980   3.615  1.00  0.00     0.171 HD
HETATM    6  H   UNL     1      43.097 -17.621   2.539  1.00  0.00     0.171 HD
ENDROOT
BRANCH   1   7
HETATM    7  C   UNL     1      41.058 -16.067   2.158  1.00  0.00     0.069 A 
HETATM    8  C   UNL     1      41.101 -14.676   2.334  1.00  0.00     0.096 A 
HETATM    9  C   UNL     1      41.173 -13.810   1.242  1.00  0.00     0.046 A 
HETATM   10  C   UNL     1      41.292 -14.330  -0.051  1.00  0.00    -0.059 A 
HETATM   11  C   UNL     1      41.308 -13.417  -1.241  1.00  0.00     0.048 C 
HETATM   12  C   UNL     1      41.340 -15.719  -0.223  1.00  0.00     0.009 A 
HETATM   13  C   UNL     1      41.238 -16.583   0.874  1.00  0.00     0.033 A 
BRANCH   8  14
HETATM   14  O   UNL     1      40.966 -14.137   3.590  1.00  0.00    -0.340 OA
BRANCH  14  15
HETATM   15  C   UNL     1      42.191 -13.509   4.015  1.00  0.00     0.293 C 
BRANCH  15  16
HETATM   16  C   UNL     1      42.832 -14.270   5.164  1.00  0.00     0.408 C 
HETATM   17  F   UNL     1      43.671 -15.233   4.724  1.00  0.00    -0.169 F 
HETATM   18  F   UNL     1      43.552 -13.428   5.942  1.00  0.00    -0.169 F 
HETATM   19  F   UNL     1      41.902 -14.853   5.953  1.00  0.00    -0.169 F 
ENDBRANCH  15  16
ENDBRANCH  14  15
ENDBRANCH   8  14
ENDBRANCH   1   7
BRANCH   3  20
HETATM   20  C   UNL     1      43.804 -18.971   3.871  1.00  0.00     0.086 A 
HETATM   21  C   UNL     1      44.635 -19.084   5.026  1.00  0.00     0.079 A 
HETATM   22  C   UNL     1      44.760 -18.207   6.217  1.00  0.00     0.075 C 
HETATM   23  N   UNL     1      45.353 -20.217   5.001  1.00  0.00    -0.177 NA
HETATM   24  N   UNL     1      44.985 -20.818   3.867  1.00  0.00    -0.280 N 
HETATM   25  H   UNL     1      45.413 -21.710   3.642  1.00  0.00     0.189 HD
HETATM   26  C   UNL     1      44.047 -20.128   3.155  1.00  0.00     0.052 A 
HETATM   27  C   UNL     1      43.527 -20.638   1.864  1.00  0.00     0.072 C 
ENDBRANCH   3  20
TORSDOF 5
ENDMDL
