MODEL 1
REMARK VINA RESULT:      -8.3      0.000      0.000
REMARK  12 active torsions:
REMARK  status: ('A' for Active; 'I' for Inactive)
REMARK    1  A    between atoms: C_2  and  C_3 
REMARK    2  A    between atoms: C_3  and  N_4 
REMARK    3  A    between atoms: C_3  and  C_25 
REMARK    4  A    between atoms: N_4  and  C_6 
REMARK    5  A    between atoms: N_4  and  C_21 
REMARK    6  A    between atoms: C_6  and  C_7 
REMARK    7  A    between atoms: C_8  and  O_9 
REMARK    8  A    between atoms: C_21  and  C_22 
REMARK    9  A    between atoms: C_22  and  C_23 
REMARK   10  A    between atoms: C_23  and  O_24 
REMARK   11  A    between atoms: N_26  and  C_27 
REMARK   12  A    between atoms: C_27  and  C_28 
ROOT
HETATM    1  N   UNL     1      41.428 -14.181   3.091  1.00  0.00    -0.055 N 
HETATM    2  H   UNL     1      40.934 -14.905   3.620  1.00  0.00     0.281 HD
ENDROOT
BRANCH   1   3
HETATM    3  C   UNL     1      40.761 -14.184   1.699  1.00  0.00     0.263 C 
BRANCH   3   4
HETATM    4  C   UNL     1      40.565 -15.608   1.085  1.00  0.00     0.016 C 
HETATM    5  C   UNL     1      40.097 -16.646   2.113  1.00  0.00     0.012 C 
HETATM    6  C   UNL     1      41.725 -16.186   0.269  1.00  0.00     0.012 C 
ENDBRANCH   3   4
BRANCH   3   7
HETATM    7  C   UNL     1      41.267 -13.199   0.695  1.00  0.00     0.168 A 
HETATM    8  N   UNL     1      40.579 -12.731  -0.401  1.00  0.00    -0.257 N 
HETATM    9  N   UNL     1      41.368 -11.909  -1.110  1.00  0.00    -0.003 NA
HETATM   10  N   UNL     1      42.516 -11.869  -0.458  1.00  0.00     0.018 NA
HETATM   11  N   UNL     1      42.471 -12.667   0.648  1.00  0.00    -0.145 NA
BRANCH   8  12
HETATM   12  C   UNL     1      39.224 -12.986  -0.855  1.00  0.00     0.186 C 
BRANCH  12  13
HETATM   13  C   UNL     1      39.169 -13.957  -2.012  1.00  0.00    -0.039 A 
HETATM   14  C   UNL     1      40.314 -14.624  -2.480  1.00  0.00     0.009 A 
HETATM   15  C   UNL     1      40.221 -15.577  -3.495  1.00  0.00     0.001 A 
HETATM   16  C   UNL     1      38.983 -15.894  -4.045  1.00  0.00     0.000 A 
HETATM   17  C   UNL     1      37.833 -15.259  -3.579  1.00  0.00     0.001 A 
HETATM   18  C   UNL     1      37.924 -14.301  -2.565  1.00  0.00     0.009 A 
ENDBRANCH  12  13
ENDBRANCH   8  12
ENDBRANCH   3   7
ENDBRANCH   1   3
BRANCH   1  19
HETATM   19  C   UNL     1      42.881 -14.660   3.226  1.00  0.00     0.278 C 
BRANCH  19  20
HETATM   20  C   UNL     1      43.206 -15.970   3.872  1.00  0.00     0.021 A 
HETATM   21  C   UNL     1      43.226 -16.087   5.255  1.00  0.00     0.170 A 
HETATM   22  N   UNL     1      43.506 -17.192   5.960  1.00  0.00    -0.224 NA
HETATM   23  C   UNL     1      43.792 -18.308   5.273  1.00  0.00     0.072 A 
HETATM   24  C   UNL     1      43.854 -18.316   3.852  1.00  0.00    -0.004 A 
HETATM   25  C   UNL     1      44.044 -19.487   5.965  1.00  0.00     0.072 A 
HETATM   26  C   UNL     1      43.576 -17.120   3.171  1.00  0.00     0.027 A 
HETATM   27  C   UNL     1      44.177 -19.492   3.153  1.00  0.00     0.053 A 
HETATM   28  C   UNL     1      44.412 -20.633   3.886  1.00  0.00     0.106 A 
HETATM   29  C   UNL     1      44.346 -20.630   5.255  1.00  0.00     0.107 A 
HETATM   30  O   UNL     1      44.721 -21.854   3.379  1.00  0.00    -0.323 OA
HETATM   31  O   UNL     1      44.605 -21.853   5.787  1.00  0.00    -0.323 OA
HETATM   32  C   UNL     1      44.829 -22.632   4.593  1.00  0.00     0.352 A 
BRANCH  21  33
HETATM   33  O   UNL     1      42.954 -15.023   6.049  1.00  0.00    -0.344 OA
HETATM   34  H   UNL     1      43.225 -15.394   6.914  1.00  0.00     0.219 HD
ENDBRANCH  21  33
ENDBRANCH  19  20
ENDBRANCH   1  19
BRANCH   1  35
HETATM   35  C   UNL     1      41.163 -12.912   3.892  1.00  0.00     0.238 C 
BRANCH  35  36
HETATM   36  C   UNL     1      39.790 -12.961   4.564  1.00  0.00     0.054 C 
BRANCH  36  37
HETATM   37  C   UNL     1      39.845 -13.781   5.846  1.00  0.00     0.165 C 
BRANCH  37  38
HETATM   38  O   UNL     1      39.846 -15.155   5.492  1.00  0.00    -0.401 OA
HETATM   39  H   UNL     1      39.446 -15.227   4.604  1.00  0.00     0.209 HD
ENDBRANCH  37  38
ENDBRANCH  36  37
ENDBRANCH  35  36
ENDBRANCH   1  35
TORSDOF 12
ENDMDL
MODEL 2
REMARK VINA RESULT:      -8.3      3.454      8.888
REMARK  12 active torsions:
REMARK  status: ('A' for Active; 'I' for Inactive)
REMARK    1  A    between atoms: C_2  and  C_3 
REMARK    2  A    between atoms: C_3  and  N_4 
REMARK    3  A    between atoms: C_3  and  C_25 
REMARK    4  A    between atoms: N_4  and  C_6 
REMARK    5  A    between atoms: N_4  and  C_21 
REMARK    6  A    between atoms: C_6  and  C_7 
REMARK    7  A    between atoms: C_8  and  O_9 
REMARK    8  A    between atoms: C_21  and  C_22 
REMARK    9  A    between atoms: C_22  and  C_23 
REMARK   10  A    between atoms: C_23  and  O_24 
REMARK   11  A    between atoms: N_26  and  C_27 
REMARK   12  A    between atoms: C_27  and  C_28 
ROOT
HETATM    1  N   UNL     1      43.022 -14.897   2.870  1.00  0.00    -0.055 N 
HETATM    2  H   UNL     1      43.698 -14.926   2.101  1.00  0.00     0.281 HD
ENDROOT
BRANCH   1   3
HETATM    3  C   UNL     1      43.232 -16.224   3.630  1.00  0.00     0.263 C 
BRANCH   3   4
HETATM    4  C   UNL     1      43.343 -17.481   2.709  1.00  0.00     0.016 C 
HETATM    5  C   UNL     1      44.120 -17.210   1.414  1.00  0.00     0.012 C 
HETATM    6  C   UNL     1      42.046 -18.226   2.378  1.00  0.00     0.012 C 
ENDBRANCH   3   4
BRANCH   3   7
HETATM    7  C   UNL     1      42.368 -16.472   4.825  1.00  0.00     0.168 A 
HETATM    8  N   UNL     1      42.748 -17.114   5.981  1.00  0.00    -0.257 N 
HETATM    9  N   UNL     1      41.696 -17.209   6.810  1.00  0.00    -0.003 NA
HETATM   10  N   UNL     1      40.692 -16.630   6.175  1.00  0.00     0.018 NA
HETATM   11  N   UNL     1      41.089 -16.182   4.950  1.00  0.00    -0.145 NA
BRANCH   8  12
HETATM   12  C   UNL     1      44.029 -17.658   6.392  1.00  0.00     0.186 C 
BRANCH  12  13
HETATM   13  C   UNL     1      44.188 -19.118   6.031  1.00  0.00    -0.039 A 
HETATM   14  C   UNL     1      44.903 -19.529   4.893  1.00  0.00     0.009 A 
HETATM   15  C   UNL     1      45.105 -20.884   4.628  1.00  0.00     0.001 A 
HETATM   16  C   UNL     1      44.614 -21.848   5.503  1.00  0.00     0.000 A 
HETATM   17  C   UNL     1      43.921 -21.458   6.647  1.00  0.00     0.001 A 
HETATM   18  C   UNL     1      43.714 -20.103   6.913  1.00  0.00     0.009 A 
ENDBRANCH  12  13
ENDBRANCH   8  12
ENDBRANCH   3   7
ENDBRANCH   1   3
BRANCH   1  19
HETATM   19  C   UNL     1      41.712 -14.675   2.099  1.00  0.00     0.278 C 
BRANCH  19  20
HETATM   20  C   UNL     1      41.721 -14.178   0.688  1.00  0.00     0.021 A 
HETATM   21  C   UNL     1      41.318 -15.003  -0.352  1.00  0.00     0.170 A 
HETATM   22  N   UNL     1      41.283 -14.690  -1.655  1.00  0.00    -0.224 NA
HETATM   23  C   UNL     1      41.669 -13.454  -2.004  1.00  0.00     0.072 A 
HETATM   24  C   UNL     1      42.152 -12.522  -1.043  1.00  0.00    -0.004 A 
HETATM   25  C   UNL     1      41.607 -13.073  -3.339  1.00  0.00     0.072 A 
HETATM   26  C   UNL     1      42.188 -12.919   0.303  1.00  0.00     0.027 A 
HETATM   27  C   UNL     1      42.572 -11.239  -1.434  1.00  0.00     0.053 A 
HETATM   28  C   UNL     1      42.483 -10.911  -2.768  1.00  0.00     0.106 A 
HETATM   29  C   UNL     1      42.012 -11.805  -3.694  1.00  0.00     0.107 A 
HETATM   30  O   UNL     1      42.828  -9.719  -3.318  1.00  0.00    -0.323 OA
HETATM   31  O   UNL     1      41.999 -11.287  -4.951  1.00  0.00    -0.323 OA
HETATM   32  C   UNL     1      42.505  -9.957  -4.707  1.00  0.00     0.352 A 
BRANCH  21  33
HETATM   33  O   UNL     1      40.910 -16.274  -0.115  1.00  0.00    -0.344 OA
HETATM   34  H   UNL     1      41.783 -16.710  -0.031  1.00  0.00     0.219 HD
ENDBRANCH  21  33
ENDBRANCH  19  20
ENDBRANCH   1  19
BRANCH   1  35
HETATM   35  C   UNL     1      43.440 -13.665   3.664  1.00  0.00     0.238 C 
BRANCH  35  36
HETATM   36  C   UNL     1      42.219 -12.895   4.170  1.00  0.00     0.054 C 
BRANCH  36  37
HETATM   37  C   UNL     1      42.223 -12.818   5.691  1.00  0.00     0.165 C 
BRANCH  37  38
HETATM   38  O   UNL     1      41.082 -13.511   6.173  1.00  0.00    -0.401 OA
HETATM   39  H   UNL     1      40.304 -12.947   5.996  1.00  0.00     0.209 HD
ENDBRANCH  37  38
ENDBRANCH  36  37
ENDBRANCH  35  36
ENDBRANCH   1  35
TORSDOF 12
ENDMDL
MODEL 3
REMARK VINA RESULT:      -8.2      1.657      2.242
REMARK  12 active torsions:
REMARK  status: ('A' for Active; 'I' for Inactive)
REMARK    1  A    between atoms: C_2  and  C_3 
REMARK    2  A    between atoms: C_3  and  N_4 
REMARK    3  A    between atoms: C_3  and  C_25 
REMARK    4  A    between atoms: N_4  and  C_6 
REMARK    5  A    between atoms: N_4  and  C_21 
REMARK    6  A    between atoms: C_6  and  C_7 
REMARK    7  A    between atoms: C_8  and  O_9 
REMARK    8  A    between atoms: C_21  and  C_22 
REMARK    9  A    between atoms: C_22  and  C_23 
REMARK   10  A    between atoms: C_23  and  O_24 
REMARK   11  A    between atoms: N_26  and  C_27 
REMARK   12  A    between atoms: C_27  and  C_28 
ROOT
HETATM    1  N   UNL     1      41.951 -14.706   3.003  1.00  0.00    -0.055 N 
HETATM    2  H   UNL     1      41.485 -15.536   3.378  1.00  0.00     0.281 HD
ENDROOT
BRANCH   1   3
HETATM    3  C   UNL     1      40.969 -14.143   1.952  1.00  0.00     0.263 C 
BRANCH   3   4
HETATM    4  C   UNL     1      39.849 -15.144   1.520  1.00  0.00     0.016 C 
HETATM    5  C   UNL     1      38.435 -14.572   1.687  1.00  0.00     0.012 C 
HETATM    6  C   UNL     1      39.901 -16.555   2.115  1.00  0.00     0.012 C 
ENDBRANCH   3   4
BRANCH   3   7
HETATM    7  C   UNL     1      41.557 -13.413   0.788  1.00  0.00     0.168 A 
HETATM    8  N   UNL     1      41.717 -13.911  -0.485  1.00  0.00    -0.257 N 
HETATM    9  N   UNL     1      42.335 -12.998  -1.251  1.00  0.00    -0.003 NA
HETATM   10  N   UNL     1      42.545 -11.959  -0.463  1.00  0.00     0.018 NA
HETATM   11  N   UNL     1      42.081 -12.205   0.796  1.00  0.00    -0.145 NA
BRANCH   8  12
HETATM   12  C   UNL     1      41.336 -15.186  -1.063  1.00  0.00     0.186 C 
BRANCH  12  13
HETATM   13  C   UNL     1      40.238 -15.056  -2.095  1.00  0.00    -0.039 A 
HETATM   14  C   UNL     1      40.165 -15.901  -3.216  1.00  0.00     0.009 A 
HETATM   15  C   UNL     1      39.096 -15.813  -4.108  1.00  0.00     0.001 A 
HETATM   16  C   UNL     1      38.074 -14.896  -3.886  1.00  0.00     0.000 A 
HETATM   17  C   UNL     1      38.118 -14.065  -2.768  1.00  0.00     0.001 A 
HETATM   18  C   UNL     1      39.189 -14.147  -1.875  1.00  0.00     0.009 A 
ENDBRANCH  12  13
ENDBRANCH   8  12
ENDBRANCH   3   7
ENDBRANCH   1   3
BRANCH   1  19
HETATM   19  C   UNL     1      43.285 -15.304   2.534  1.00  0.00     0.278 C 
BRANCH  19  20
HETATM   20  C   UNL     1      43.533 -16.779   2.593  1.00  0.00     0.021 A 
HETATM   21  C   UNL     1      43.479 -17.548   1.440  1.00  0.00     0.170 A 
HETATM   22  N   UNL     1      43.673 -18.872   1.352  1.00  0.00    -0.224 NA
HETATM   23  C   UNL     1      43.953 -19.533   2.484  1.00  0.00     0.072 A 
HETATM   24  C   UNL     1      43.992 -18.874   3.744  1.00  0.00    -0.004 A 
HETATM   25  C   UNL     1      44.205 -20.899   2.430  1.00  0.00     0.072 A 
HETATM   26  C   UNL     1      43.755 -17.490   3.775  1.00  0.00     0.027 A 
HETATM   27  C   UNL     1      44.267 -19.590   4.922  1.00  0.00     0.053 A 
HETATM   28  C   UNL     1      44.515 -20.939   4.812  1.00  0.00     0.106 A 
HETATM   29  C   UNL     1      44.486 -21.575   3.598  1.00  0.00     0.107 A 
HETATM   30  O   UNL     1      44.811 -21.779   5.837  1.00  0.00    -0.323 OA
HETATM   31  O   UNL     1      44.761 -22.902   3.704  1.00  0.00    -0.323 OA
HETATM   32  C   UNL     1      44.981 -23.026   5.125  1.00  0.00     0.352 A 
BRANCH  21  33
HETATM   33  O   UNL     1      43.201 -16.985   0.239  1.00  0.00    -0.344 OA
HETATM   34  H   UNL     1      42.488 -17.588  -0.060  1.00  0.00     0.219 HD
ENDBRANCH  21  33
ENDBRANCH  19  20
ENDBRANCH   1  19
BRANCH   1  35
HETATM   35  C   UNL     1      42.118 -13.810   4.224  1.00  0.00     0.238 C 
BRANCH  35  36
HETATM   36  C   UNL     1      41.096 -14.159   5.308  1.00  0.00     0.054 C 
BRANCH  36  37
HETATM   37  C   UNL     1      41.039 -15.664   5.531  1.00  0.00     0.165 C 
BRANCH  37  38
HETATM   38  O   UNL     1      39.846 -15.962   6.239  1.00  0.00    -0.401 OA
HETATM   39  H   UNL     1      39.443 -16.745   5.815  1.00  0.00     0.209 HD
ENDBRANCH  37  38
ENDBRANCH  36  37
ENDBRANCH  35  36
ENDBRANCH   1  35
TORSDOF 12
ENDMDL
MODEL 4
REMARK VINA RESULT:      -8.2      3.381      4.649
REMARK  12 active torsions:
REMARK  status: ('A' for Active; 'I' for Inactive)
REMARK    1  A    between atoms: C_2  and  C_3 
REMARK    2  A    between atoms: C_3  and  N_4 
REMARK    3  A    between atoms: C_3  and  C_25 
REMARK    4  A    between atoms: N_4  and  C_6 
REMARK    5  A    between atoms: N_4  and  C_21 
REMARK    6  A    between atoms: C_6  and  C_7 
REMARK    7  A    between atoms: C_8  and  O_9 
REMARK    8  A    between atoms: C_21  and  C_22 
REMARK    9  A    between atoms: C_22  and  C_23 
REMARK   10  A    between atoms: C_23  and  O_24 
REMARK   11  A    between atoms: N_26  and  C_27 
REMARK   12  A    between atoms: C_27  and  C_28 
ROOT
HETATM    1  N   UNL     1      43.692 -14.532   6.799  1.00  0.00    -0.055 N 
HETATM    2  H   UNL     1      43.346 -13.842   7.471  1.00  0.00     0.281 HD
ENDROOT
BRANCH   1   3
HETATM    3  C   UNL     1      42.770 -14.383   5.570  1.00  0.00     0.263 C 
BRANCH   3   4
HETATM    4  C   UNL     1      43.504 -13.915   4.271  1.00  0.00     0.016 C 
HETATM    5  C   UNL     1      42.748 -12.813   3.518  1.00  0.00     0.012 C 
HETATM    6  C   UNL     1      43.940 -15.001   3.282  1.00  0.00     0.012 C 
ENDBRANCH   3   4
BRANCH   3   7
HETATM    7  C   UNL     1      41.469 -13.676   5.772  1.00  0.00     0.168 A 
HETATM    8  N   UNL     1      40.220 -14.177   5.482  1.00  0.00    -0.257 N 
HETATM    9  N   UNL     1      39.291 -13.241   5.734  1.00  0.00    -0.003 NA
HETATM   10  N   UNL     1      39.957 -12.190   6.175  1.00  0.00     0.018 NA
HETATM   11  N   UNL     1      41.298 -12.440   6.194  1.00  0.00    -0.145 NA
BRANCH   8  12
HETATM   12  C   UNL     1      39.807 -15.475   4.981  1.00  0.00     0.186 C 
BRANCH  12  13
HETATM   13  C   UNL     1      40.292 -15.740   3.574  1.00  0.00    -0.039 A 
HETATM   14  C   UNL     1      40.947 -16.934   3.225  1.00  0.00     0.009 A 
HETATM   15  C   UNL     1      41.310 -17.189   1.902  1.00  0.00     0.001 A 
HETATM   16  C   UNL     1      41.008 -16.267   0.905  1.00  0.00     0.000 A 
HETATM   17  C   UNL     1      40.340 -15.088   1.228  1.00  0.00     0.001 A 
HETATM   18  C   UNL     1      39.978 -14.829   2.552  1.00  0.00     0.009 A 
ENDBRANCH  12  13
ENDBRANCH   8  12
ENDBRANCH   3   7
ENDBRANCH   1   3
BRANCH   1  19
HETATM   19  C   UNL     1      43.621 -15.817   7.637  1.00  0.00     0.278 C 
BRANCH  19  20
HETATM   20  C   UNL     1      43.821 -17.161   7.010  1.00  0.00     0.021 A 
HETATM   21  C   UNL     1      43.975 -18.291   7.799  1.00  0.00     0.170 A 
HETATM   22  N   UNL     1      44.168 -19.546   7.371  1.00  0.00    -0.224 NA
HETATM   23  C   UNL     1      44.214 -19.747   6.046  1.00  0.00     0.072 A 
HETATM   24  C   UNL     1      44.118 -18.669   5.122  1.00  0.00    -0.004 A 
HETATM   25  C   UNL     1      44.367 -21.039   5.558  1.00  0.00     0.072 A 
HETATM   26  C   UNL     1      43.943 -17.373   5.634  1.00  0.00     0.027 A 
HETATM   27  C   UNL     1      44.190 -18.900   3.738  1.00  0.00     0.053 A 
HETATM   28  C   UNL     1      44.336 -20.199   3.308  1.00  0.00     0.106 A 
HETATM   29  C   UNL     1      44.421 -21.241   4.195  1.00  0.00     0.107 A 
HETATM   30  O   UNL     1      44.408 -20.605   2.015  1.00  0.00    -0.323 OA
HETATM   31  O   UNL     1      44.557 -22.441   3.571  1.00  0.00    -0.323 OA
HETATM   32  C   UNL     1      44.535 -22.035   2.186  1.00  0.00     0.352 A 
BRANCH  21  33
HETATM   33  O   UNL     1      43.948 -18.205   9.152  1.00  0.00    -0.344 OA
HETATM   34  H   UNL     1      44.187 -17.261   9.258  1.00  0.00     0.219 HD
ENDBRANCH  21  33
ENDBRANCH  19  20
ENDBRANCH   1  19
BRANCH   1  35
HETATM   35  C   UNL     1      45.128 -14.090   6.543  1.00  0.00     0.238 C 
BRANCH  35  36
HETATM   36  C   UNL     1      45.636 -13.187   7.668  1.00  0.00     0.054 C 
BRANCH  36  37
HETATM   37  C   UNL     1      44.477 -12.472   8.351  1.00  0.00     0.165 C 
BRANCH  37  38
HETATM   38  O   UNL     1      44.319 -13.025   9.649  1.00  0.00    -0.401 OA
HETATM   39  H   UNL     1      43.379 -13.269   9.748  1.00  0.00     0.209 HD
ENDBRANCH  37  38
ENDBRANCH  36  37
ENDBRANCH  35  36
ENDBRANCH   1  35
TORSDOF 12
ENDMDL
MODEL 5
REMARK VINA RESULT:      -8.2      2.676      3.871
REMARK  12 active torsions:
REMARK  status: ('A' for Active; 'I' for Inactive)
REMARK    1  A    between atoms: C_2  and  C_3 
REMARK    2  A    between atoms: C_3  and  N_4 
REMARK    3  A    between atoms: C_3  and  C_25 
REMARK    4  A    between atoms: N_4  and  C_6 
REMARK    5  A    between atoms: N_4  and  C_21 
REMARK    6  A    between atoms: C_6  and  C_7 
REMARK    7  A    between atoms: C_8  and  O_9 
REMARK    8  A    between atoms: C_21  and  C_22 
REMARK    9  A    between atoms: C_22  and  C_23 
REMARK   10  A    between atoms: C_23  and  O_24 
REMARK   11  A    between atoms: N_26  and  C_27 
REMARK   12  A    between atoms: C_27  and  C_28 
ROOT
HETATM    1  N   UNL     1      40.580 -14.276   0.557  1.00  0.00    -0.055 N 
HETATM    2  H   UNL     1      39.942 -14.107   1.340  1.00  0.00     0.281 HD
ENDROOT
BRANCH   1   3
HETATM    3  C   UNL     1      39.952 -13.522  -0.634  1.00  0.00     0.263 C 
BRANCH   3   4
HETATM    4  C   UNL     1      38.480 -13.055  -0.394  1.00  0.00     0.016 C 
HETATM    5  C   UNL     1      38.366 -11.552  -0.112  1.00  0.00     0.012 C 
HETATM    6  C   UNL     1      37.658 -13.832   0.639  1.00  0.00     0.012 C 
ENDBRANCH   3   4
BRANCH   3   7
HETATM    7  C   UNL     1      40.145 -14.112  -1.995  1.00  0.00     0.168 A 
HETATM    8  N   UNL     1      41.252 -13.956  -2.797  1.00  0.00    -0.257 N 
HETATM    9  N   UNL     1      41.048 -14.573  -3.971  1.00  0.00    -0.003 NA
HETATM   10  N   UNL     1      39.841 -15.103  -3.887  1.00  0.00     0.018 NA
HETATM   11  N   UNL     1      39.270 -14.817  -2.682  1.00  0.00    -0.145 NA
BRANCH   8  12
HETATM   12  C   UNL     1      42.509 -13.270  -2.562  1.00  0.00     0.186 C 
BRANCH  12  13
HETATM   13  C   UNL     1      42.450 -11.802  -2.923  1.00  0.00    -0.039 A 
HETATM   14  C   UNL     1      42.564 -10.792  -1.952  1.00  0.00     0.009 A 
HETATM   15  C   UNL     1      42.590  -9.446  -2.321  1.00  0.00     0.001 A 
HETATM   16  C   UNL     1      42.523  -9.089  -3.664  1.00  0.00     0.000 A 
HETATM   17  C   UNL     1      42.431 -10.077  -4.642  1.00  0.00     0.001 A 
HETATM   18  C   UNL     1      42.402 -11.425  -4.275  1.00  0.00     0.009 A 
ENDBRANCH  12  13
ENDBRANCH   8  12
ENDBRANCH   3   7
ENDBRANCH   1   3
BRANCH   1  19
HETATM   19  C   UNL     1      40.618 -15.812   0.537  1.00  0.00     0.278 C 
BRANCH  19  20
HETATM   20  C   UNL     1      41.235 -16.584   1.659  1.00  0.00     0.021 A 
HETATM   21  C   UNL     1      40.851 -16.349   2.971  1.00  0.00     0.170 A 
HETATM   22  N   UNL     1      41.325 -16.960   4.066  1.00  0.00    -0.224 NA
HETATM   23  C   UNL     1      42.262 -17.903   3.891  1.00  0.00     0.072 A 
HETATM   24  C   UNL     1      42.782 -18.211   2.602  1.00  0.00    -0.004 A 
HETATM   25  C   UNL     1      42.749 -18.592   4.995  1.00  0.00     0.072 A 
HETATM   26  C   UNL     1      42.263 -17.516   1.497  1.00  0.00     0.027 A 
HETATM   27  C   UNL     1      43.780 -19.187   2.444  1.00  0.00     0.053 A 
HETATM   28  C   UNL     1      44.222 -19.844   3.569  1.00  0.00     0.106 A 
HETATM   29  C   UNL     1      43.718 -19.555   4.811  1.00  0.00     0.107 A 
HETATM   30  O   UNL     1      45.164 -20.821   3.600  1.00  0.00    -0.323 OA
HETATM   31  O   UNL     1      44.281 -20.316   5.786  1.00  0.00    -0.323 OA
HETATM   32  C   UNL     1      45.189 -21.129   5.013  1.00  0.00     0.352 A 
BRANCH  21  33
HETATM   33  O   UNL     1      39.912 -15.416   3.266  1.00  0.00    -0.344 OA
HETATM   34  H   UNL     1      40.382 -14.936   3.980  1.00  0.00     0.219 HD
ENDBRANCH  21  33
ENDBRANCH  19  20
ENDBRANCH   1  19
BRANCH   1  35
HETATM   35  C   UNL     1      41.896 -13.674   1.035  1.00  0.00     0.238 C 
BRANCH  35  36
HETATM   36  C   UNL     1      41.723 -12.203   1.418  1.00  0.00     0.054 C 
BRANCH  36  37
HETATM   37  C   UNL     1      41.277 -12.073   2.869  1.00  0.00     0.165 C 
BRANCH  37  38
HETATM   38  O   UNL     1      39.931 -12.514   2.958  1.00  0.00    -0.401 OA
HETATM   39  H   UNL     1      39.360 -11.757   2.726  1.00  0.00     0.209 HD
ENDBRANCH  37  38
ENDBRANCH  36  37
ENDBRANCH  35  36
ENDBRANCH   1  35
TORSDOF 12
ENDMDL
MODEL 6
REMARK VINA RESULT:      -8.1      3.093      4.337
REMARK  12 active torsions:
REMARK  status: ('A' for Active; 'I' for Inactive)
REMARK    1  A    between atoms: C_2  and  C_3 
REMARK    2  A    between atoms: C_3  and  N_4 
REMARK    3  A    between atoms: C_3  and  C_25 
REMARK    4  A    between atoms: N_4  and  C_6 
REMARK    5  A    between atoms: N_4  and  C_21 
REMARK    6  A    between atoms: C_6  and  C_7 
REMARK    7  A    between atoms: C_8  and  O_9 
REMARK    8  A    between atoms: C_21  and  C_22 
REMARK    9  A    between atoms: C_22  and  C_23 
REMARK   10  A    between atoms: C_23  and  O_24 
REMARK   11  A    between atoms: N_26  and  C_27 
REMARK   12  A    between atoms: C_27  and  C_28 
ROOT
HETATM    1  N   UNL     1      41.022 -14.117   1.166  1.00  0.00    -0.055 N 
HETATM    2  H   UNL     1      40.849 -14.990   0.660  1.00  0.00     0.281 HD
ENDROOT
BRANCH   1   3
HETATM    3  C   UNL     1      41.097 -13.033   0.069  1.00  0.00     0.263 C 
BRANCH   3   4
HETATM    4  C   UNL     1      40.291 -11.734   0.395  1.00  0.00     0.016 C 
HETATM    5  C   UNL     1      39.639 -11.105  -0.843  1.00  0.00     0.012 C 
HETATM    6  C   UNL     1      41.009 -10.647   1.201  1.00  0.00     0.012 C 
ENDBRANCH   3   4
BRANCH   3   7
HETATM    7  C   UNL     1      40.909 -13.477  -1.345  1.00  0.00     0.168 A 
HETATM    8  N   UNL     1      41.768 -13.236  -2.393  1.00  0.00    -0.257 N 
HETATM    9  N   UNL     1      41.245 -13.728  -3.527  1.00  0.00    -0.003 NA
HETATM   10  N   UNL     1      40.090 -14.267  -3.180  1.00  0.00     0.018 NA
HETATM   11  N   UNL     1      39.866 -14.110  -1.843  1.00  0.00    -0.145 NA
BRANCH   8  12
HETATM   12  C   UNL     1      43.059 -12.574  -2.432  1.00  0.00     0.186 C 
BRANCH  12  13
HETATM   13  C   UNL     1      42.948 -11.069  -2.337  1.00  0.00    -0.039 A 
HETATM   14  C   UNL     1      43.564 -10.341  -1.304  1.00  0.00     0.009 A 
HETATM   15  C   UNL     1      43.515  -8.946  -1.287  1.00  0.00     0.001 A 
HETATM   16  C   UNL     1      42.869  -8.257  -2.308  1.00  0.00     0.000 A 
HETATM   17  C   UNL     1      42.272  -8.961  -3.352  1.00  0.00     0.001 A 
HETATM   18  C   UNL     1      42.316 -10.357  -3.370  1.00  0.00     0.009 A 
ENDBRANCH  12  13
ENDBRANCH   8  12
ENDBRANCH   3   7
ENDBRANCH   1   3
BRANCH   1  19
HETATM   19  C   UNL     1      42.293 -14.480   1.949  1.00  0.00     0.278 C 
BRANCH  19  20
HETATM   20  C   UNL     1      42.723 -15.904   2.106  1.00  0.00     0.021 A 
HETATM   21  C   UNL     1      42.732 -16.762   1.016  1.00  0.00     0.170 A 
HETATM   22  N   UNL     1      43.085 -18.055   1.018  1.00  0.00    -0.224 NA
HETATM   23  C   UNL     1      43.478 -18.587   2.184  1.00  0.00     0.072 A 
HETATM   24  C   UNL     1      43.470 -17.832   3.391  1.00  0.00    -0.004 A 
HETATM   25  C   UNL     1      43.895 -19.912   2.222  1.00  0.00     0.072 A 
HETATM   26  C   UNL     1      43.065 -16.489   3.328  1.00  0.00     0.027 A 
HETATM   27  C   UNL     1      43.865 -18.416   4.607  1.00  0.00     0.053 A 
HETATM   28  C   UNL     1      44.275 -19.729   4.587  1.00  0.00     0.106 A 
HETATM   29  C   UNL     1      44.290 -20.457   3.425  1.00  0.00     0.107 A 
HETATM   30  O   UNL     1      44.701 -20.445   5.659  1.00  0.00    -0.323 OA
HETATM   31  O   UNL     1      44.731 -21.729   3.618  1.00  0.00    -0.323 OA
HETATM   32  C   UNL     1      45.004 -21.714   5.035  1.00  0.00     0.352 A 
BRANCH  21  33
HETATM   33  O   UNL     1      42.352 -16.332  -0.212  1.00  0.00    -0.344 OA
HETATM   34  H   UNL     1      41.521 -16.841  -0.310  1.00  0.00     0.219 HD
ENDBRANCH  21  33
ENDBRANCH  19  20
ENDBRANCH   1  19
BRANCH   1  35
HETATM   35  C   UNL     1      39.805 -13.985   2.073  1.00  0.00     0.238 C 
BRANCH  35  36
HETATM   36  C   UNL     1      38.663 -14.885   1.599  1.00  0.00     0.054 C 
BRANCH  36  37
HETATM   37  C   UNL     1      37.553 -14.059   0.962  1.00  0.00     0.165 C 
BRANCH  37  38
HETATM   38  O   UNL     1      37.479 -14.403  -0.413  1.00  0.00    -0.401 OA
HETATM   39  H   UNL     1      37.160 -15.325  -0.465  1.00  0.00     0.209 HD
ENDBRANCH  37  38
ENDBRANCH  36  37
ENDBRANCH  35  36
ENDBRANCH   1  35
TORSDOF 12
ENDMDL
MODEL 7
REMARK VINA RESULT:      -7.9      3.015      7.752
REMARK  12 active torsions:
REMARK  status: ('A' for Active; 'I' for Inactive)
REMARK    1  A    between atoms: C_2  and  C_3 
REMARK    2  A    between atoms: C_3  and  N_4 
REMARK    3  A    between atoms: C_3  and  C_25 
REMARK    4  A    between atoms: N_4  and  C_6 
REMARK    5  A    between atoms: N_4  and  C_21 
REMARK    6  A    between atoms: C_6  and  C_7 
REMARK    7  A    between atoms: C_8  and  O_9 
REMARK    8  A    between atoms: C_21  and  C_22 
REMARK    9  A    between atoms: C_22  and  C_23 
REMARK   10  A    between atoms: C_23  and  O_24 
REMARK   11  A    between atoms: N_26  and  C_27 
REMARK   12  A    between atoms: C_27  and  C_28 
ROOT
HETATM    1  N   UNL     1      43.774 -14.901   6.314  1.00  0.00    -0.055 N 
HETATM    2  H   UNL     1      44.203 -15.172   5.425  1.00  0.00     0.281 HD
ENDROOT
BRANCH   1   3
HETATM    3  C   UNL     1      43.204 -16.213   6.894  1.00  0.00     0.263 C 
BRANCH   3   4
HETATM    4  C   UNL     1      44.289 -17.197   7.440  1.00  0.00     0.016 C 
HETATM    5  C   UNL     1      45.450 -17.414   6.462  1.00  0.00     0.012 C 
HETATM    6  C   UNL     1      43.806 -18.552   7.967  1.00  0.00     0.012 C 
ENDBRANCH   3   4
BRANCH   3   7
HETATM    7  C   UNL     1      42.153 -16.914   6.096  1.00  0.00     0.168 A 
HETATM    8  N   UNL     1      42.289 -17.381   4.808  1.00  0.00    -0.257 N 
HETATM    9  N   UNL     1      41.122 -17.899   4.392  1.00  0.00    -0.003 NA
HETATM   10  N   UNL     1      40.289 -17.757   5.407  1.00  0.00     0.018 NA
HETATM   11  N   UNL     1      40.907 -17.144   6.457  1.00  0.00    -0.145 NA
BRANCH   8  12
HETATM   12  C   UNL     1      43.432 -17.390   3.914  1.00  0.00     0.186 C 
BRANCH  12  13
HETATM   13  C   UNL     1      43.801 -18.781   3.451  1.00  0.00    -0.039 A 
HETATM   14  C   UNL     1      44.394 -19.719   4.313  1.00  0.00     0.009 A 
HETATM   15  C   UNL     1      44.649 -21.022   3.884  1.00  0.00     0.001 A 
HETATM   16  C   UNL     1      44.299 -21.415   2.595  1.00  0.00     0.000 A 
HETATM   17  C   UNL     1      43.692 -20.504   1.733  1.00  0.00     0.001 A 
HETATM   18  C   UNL     1      43.438 -19.198   2.159  1.00  0.00     0.009 A 
ENDBRANCH  12  13
ENDBRANCH   8  12
ENDBRANCH   3   7
ENDBRANCH   1   3
BRANCH   1  19
HETATM   19  C   UNL     1      42.804 -13.805   5.847  1.00  0.00     0.278 C 
BRANCH  19  20
HETATM   20  C   UNL     1      42.293 -13.774   4.441  1.00  0.00     0.021 A 
HETATM   21  C   UNL     1      43.175 -13.688   3.373  1.00  0.00     0.170 A 
HETATM   22  N   UNL     1      42.855 -13.644   2.072  1.00  0.00    -0.224 NA
HETATM   23  C   UNL     1      41.553 -13.693   1.754  1.00  0.00     0.072 A 
HETATM   24  C   UNL     1      40.540 -13.734   2.752  1.00  0.00    -0.004 A 
HETATM   25  C   UNL     1      41.179 -13.695   0.415  1.00  0.00     0.072 A 
HETATM   26  C   UNL     1      40.939 -13.751   4.098  1.00  0.00     0.027 A 
HETATM   27  C   UNL     1      39.181 -13.763   2.396  1.00  0.00     0.053 A 
HETATM   28  C   UNL     1      38.866 -13.770   1.057  1.00  0.00     0.106 A 
HETATM   29  C   UNL     1      39.840 -13.739   0.093  1.00  0.00     0.107 A 
HETATM   30  O   UNL     1      37.613 -13.811   0.535  1.00  0.00    -0.323 OA
HETATM   31  O   UNL     1      39.323 -13.756  -1.164  1.00  0.00    -0.323 OA
HETATM   32  C   UNL     1      37.909 -13.817  -0.880  1.00  0.00     0.352 A 
BRANCH  21  33
HETATM   33  O   UNL     1      44.514 -13.629   3.578  1.00  0.00    -0.344 OA
HETATM   34  H   UNL     1      44.670 -12.690   3.350  1.00  0.00     0.219 HD
ENDBRANCH  21  33
ENDBRANCH  19  20
ENDBRANCH   1  19
BRANCH   1  35
HETATM   35  C   UNL     1      44.940 -14.335   7.114  1.00  0.00     0.238 C 
BRANCH  35  36
HETATM   36  C   UNL     1      44.511 -13.111   7.925  1.00  0.00     0.054 C 
BRANCH  36  37
HETATM   37  C   UNL     1      45.703 -12.493   8.643  1.00  0.00     0.165 C 
BRANCH  37  38
HETATM   38  O   UNL     1      45.468 -12.572  10.040  1.00  0.00    -0.401 OA
HETATM   39  H   UNL     1      45.890 -11.792  10.450  1.00  0.00     0.209 HD
ENDBRANCH  37  38
ENDBRANCH  36  37
ENDBRANCH  35  36
ENDBRANCH   1  35
TORSDOF 12
ENDMDL
MODEL 8
REMARK VINA RESULT:      -7.9      2.480      4.729
REMARK  12 active torsions:
REMARK  status: ('A' for Active; 'I' for Inactive)
REMARK    1  A    between atoms: C_2  and  C_3 
REMARK    2  A    between atoms: C_3  and  N_4 
REMARK    3  A    between atoms: C_3  and  C_25 
REMARK    4  A    between atoms: N_4  and  C_6 
REMARK    5  A    between atoms: N_4  and  C_21 
REMARK    6  A    between atoms: C_6  and  C_7 
REMARK    7  A    between atoms: C_8  and  O_9 
REMARK    8  A    between atoms: C_21  and  C_22 
REMARK    9  A    between atoms: C_22  and  C_23 
REMARK   10  A    between atoms: C_23  and  O_24 
REMARK   11  A    between atoms: N_26  and  C_27 
REMARK   12  A    between atoms: C_27  and  C_28 
ROOT
HETATM    1  N   UNL     1      41.799 -14.794   3.492  1.00  0.00    -0.055 N 
HETATM    2  H   UNL     1      41.331 -15.676   3.715  1.00  0.00     0.281 HD
ENDROOT
BRANCH   1   3
HETATM    3  C   UNL     1      40.805 -14.039   2.583  1.00  0.00     0.263 C 
BRANCH   3   4
HETATM    4  C   UNL     1      39.955 -14.965   1.655  1.00  0.00     0.016 C 
HETATM    5  C   UNL     1      38.576 -14.380   1.322  1.00  0.00     0.012 C 
HETATM    6  C   UNL     1      39.798 -16.430   2.078  1.00  0.00     0.012 C 
ENDBRANCH   3   4
BRANCH   3   7
HETATM    7  C   UNL     1      41.316 -12.832   1.865  1.00  0.00     0.168 A 
HETATM    8  N   UNL     1      40.783 -11.564   1.929  1.00  0.00    -0.257 N 
HETATM    9  N   UNL     1      41.461 -10.749   1.107  1.00  0.00    -0.003 NA
HETATM   10  N   UNL     1      42.395 -11.501   0.553  1.00  0.00     0.018 NA
HETATM   11  N   UNL     1      42.310 -12.786   1.002  1.00  0.00    -0.145 NA
BRANCH   8  12
HETATM   12  C   UNL     1      39.677 -11.034   2.706  1.00  0.00     0.186 C 
BRANCH  12  13
HETATM   13  C   UNL     1      39.922 -11.106   4.196  1.00  0.00    -0.039 A 
HETATM   14  C   UNL     1      39.110 -11.877   5.047  1.00  0.00     0.009 A 
HETATM   15  C   UNL     1      39.407 -11.993   6.405  1.00  0.00     0.001 A 
HETATM   16  C   UNL     1      40.528 -11.358   6.932  1.00  0.00     0.000 A 
HETATM   17  C   UNL     1      41.356 -10.608   6.100  1.00  0.00     0.001 A 
HETATM   18  C   UNL     1      41.059 -10.487   4.740  1.00  0.00     0.009 A 
ENDBRANCH  12  13
ENDBRANCH   8  12
ENDBRANCH   3   7
ENDBRANCH   1   3
BRANCH   1  19
HETATM   19  C   UNL     1      43.119 -15.305   2.895  1.00  0.00     0.278 C 
BRANCH  19  20
HETATM   20  C   UNL     1      43.400 -16.771   2.784  1.00  0.00     0.021 A 
HETATM   21  C   UNL     1      43.302 -17.415   1.559  1.00  0.00     0.170 A 
HETATM   22  N   UNL     1      43.518 -18.717   1.321  1.00  0.00    -0.224 NA
HETATM   23  C   UNL     1      43.870 -19.486   2.361  1.00  0.00     0.072 A 
HETATM   24  C   UNL     1      43.960 -18.963   3.681  1.00  0.00    -0.004 A 
HETATM   25  C   UNL     1      44.146 -20.831   2.149  1.00  0.00     0.072 A 
HETATM   26  C   UNL     1      43.697 -17.597   3.870  1.00  0.00     0.027 A 
HETATM   27  C   UNL     1      44.310 -19.792   4.760  1.00  0.00     0.053 A 
HETATM   28  C   UNL     1      44.579 -21.115   4.495  1.00  0.00     0.106 A 
HETATM   29  C   UNL     1      44.501 -21.620   3.223  1.00  0.00     0.107 A 
HETATM   30  O   UNL     1      44.945 -22.051   5.408  1.00  0.00    -0.323 OA
HETATM   31  O   UNL     1      44.809 -22.943   3.173  1.00  0.00    -0.323 OA
HETATM   32  C   UNL     1      45.104 -23.211   4.560  1.00  0.00     0.352 A 
BRANCH  21  33
HETATM   33  O   UNL     1      42.951 -16.736   0.440  1.00  0.00    -0.344 OA
HETATM   34  H   UNL     1      42.210 -17.300   0.135  1.00  0.00     0.219 HD
ENDBRANCH  21  33
ENDBRANCH  19  20
ENDBRANCH   1  19
BRANCH   1  35
HETATM   35  C   UNL     1      41.998 -14.141   4.854  1.00  0.00     0.238 C 
BRANCH  35  36
HETATM   36  C   UNL     1      43.416 -13.587   4.999  1.00  0.00     0.054 C 
BRANCH  36  37
HETATM   37  C   UNL     1      44.054 -14.071   6.295  1.00  0.00     0.165 C 
BRANCH  37  38
HETATM   38  O   UNL     1      43.657 -13.194   7.338  1.00  0.00    -0.401 OA
HETATM   39  H   UNL     1      43.928 -12.292   7.078  1.00  0.00     0.209 HD
ENDBRANCH  37  38
ENDBRANCH  36  37
ENDBRANCH  35  36
ENDBRANCH   1  35
TORSDOF 12
ENDMDL
MODEL 9
REMARK VINA RESULT:      -7.8      3.053      4.419
REMARK  12 active torsions:
REMARK  status: ('A' for Active; 'I' for Inactive)
REMARK    1  A    between atoms: C_2  and  C_3 
REMARK    2  A    between atoms: C_3  and  N_4 
REMARK    3  A    between atoms: C_3  and  C_25 
REMARK    4  A    between atoms: N_4  and  C_6 
REMARK    5  A    between atoms: N_4  and  C_21 
REMARK    6  A    between atoms: C_6  and  C_7 
REMARK    7  A    between atoms: C_8  and  O_9 
REMARK    8  A    between atoms: C_21  and  C_22 
REMARK    9  A    between atoms: C_22  and  C_23 
REMARK   10  A    between atoms: C_23  and  O_24 
REMARK   11  A    between atoms: N_26  and  C_27 
REMARK   12  A    between atoms: C_27  and  C_28 
ROOT
HETATM    1  N   UNL     1      40.158 -13.429   0.644  1.00  0.00    -0.055 N 
HETATM    2  H   UNL     1      39.334 -13.005   1.077  1.00  0.00     0.281 HD
ENDROOT
BRANCH   1   3
HETATM    3  C   UNL     1      40.239 -12.793  -0.760  1.00  0.00     0.263 C 
BRANCH   3   4
HETATM    4  C   UNL     1      39.109 -11.756  -1.060  1.00  0.00     0.016 C 
HETATM    5  C   UNL     1      37.709 -12.271  -0.699  1.00  0.00     0.012 C 
HETATM    6  C   UNL     1      39.078 -11.137  -2.461  1.00  0.00     0.012 C 
ENDBRANCH   3   4
BRANCH   3   7
HETATM    7  C   UNL     1      40.487 -13.710  -1.914  1.00  0.00     0.168 A 
HETATM    8  N   UNL     1      41.615 -13.737  -2.701  1.00  0.00    -0.257 N 
HETATM    9  N   UNL     1      41.462 -14.645  -3.678  1.00  0.00    -0.003 NA
HETATM   10  N   UNL     1      40.264 -15.169  -3.489  1.00  0.00     0.018 NA
HETATM   11  N   UNL     1      39.650 -14.596  -2.415  1.00  0.00    -0.145 NA
BRANCH   8  12
HETATM   12  C   UNL     1      42.849 -12.977  -2.623  1.00  0.00     0.186 C 
BRANCH  12  13
HETATM   13  C   UNL     1      42.703 -11.567  -3.150  1.00  0.00    -0.039 A 
HETATM   14  C   UNL     1      42.330 -11.305  -4.480  1.00  0.00     0.009 A 
HETATM   15  C   UNL     1      42.121  -9.997  -4.918  1.00  0.00     0.001 A 
HETATM   16  C   UNL     1      42.261  -8.933  -4.033  1.00  0.00     0.000 A 
HETATM   17  C   UNL     1      42.609  -9.175  -2.706  1.00  0.00     0.001 A 
HETATM   18  C   UNL     1      42.822 -10.483  -2.265  1.00  0.00     0.009 A 
ENDBRANCH  12  13
ENDBRANCH   8  12
ENDBRANCH   3   7
ENDBRANCH   1   3
BRANCH   1  19
HETATM   19  C   UNL     1      39.819 -14.922   0.771  1.00  0.00     0.278 C 
BRANCH  19  20
HETATM   20  C   UNL     1      40.816 -15.897   1.314  1.00  0.00     0.021 A 
HETATM   21  C   UNL     1      41.749 -16.490   0.476  1.00  0.00     0.170 A 
HETATM   22  N   UNL     1      42.688 -17.380   0.828  1.00  0.00    -0.224 NA
HETATM   23  C   UNL     1      42.748 -17.739   2.118  1.00  0.00     0.072 A 
HETATM   24  C   UNL     1      41.820 -17.243   3.076  1.00  0.00    -0.004 A 
HETATM   25  C   UNL     1      43.735 -18.625   2.534  1.00  0.00     0.072 A 
HETATM   26  C   UNL     1      40.843 -16.333   2.641  1.00  0.00     0.027 A 
HETATM   27  C   UNL     1      41.888 -17.649   4.420  1.00  0.00     0.053 A 
HETATM   28  C   UNL     1      42.888 -18.523   4.779  1.00  0.00     0.106 A 
HETATM   29  C   UNL     1      43.788 -18.997   3.860  1.00  0.00     0.107 A 
HETATM   30  O   UNL     1      43.111 -19.007   6.028  1.00  0.00    -0.323 OA
HETATM   31  O   UNL     1      44.697 -19.842   4.415  1.00  0.00    -0.323 OA
HETATM   32  C   UNL     1      44.273 -19.835   5.795  1.00  0.00     0.352 A 
BRANCH  21  33
HETATM   33  O   UNL     1      41.779 -16.204  -0.848  1.00  0.00    -0.344 OA
HETATM   34  H   UNL     1      40.853 -16.422  -1.081  1.00  0.00     0.219 HD
ENDBRANCH  21  33
ENDBRANCH  19  20
ENDBRANCH   1  19
BRANCH   1  35
HETATM   35  C   UNL     1      41.297 -13.016   1.568  1.00  0.00     0.238 C 
BRANCH  35  36
HETATM   36  C   UNL     1      40.997 -11.681   2.251  1.00  0.00     0.054 C 
BRANCH  36  37
HETATM   37  C   UNL     1      39.966 -11.861   3.357  1.00  0.00     0.165 C 
BRANCH  37  38
HETATM   38  O   UNL     1      38.696 -12.047   2.752  1.00  0.00    -0.401 OA
HETATM   39  H   UNL     1      38.020 -11.809   3.416  1.00  0.00     0.209 HD
ENDBRANCH  37  38
ENDBRANCH  36  37
ENDBRANCH  35  36
ENDBRANCH   1  35
TORSDOF 12
ENDMDL
MODEL 10
REMARK VINA RESULT:      -7.6      1.829      3.020
REMARK  12 active torsions:
REMARK  status: ('A' for Active; 'I' for Inactive)
REMARK    1  A    between atoms: C_2  and  C_3 
REMARK    2  A    between atoms: C_3  and  N_4 
REMARK    3  A    between atoms: C_3  and  C_25 
REMARK    4  A    between atoms: N_4  and  C_6 
REMARK    5  A    between atoms: N_4  and  C_21 
REMARK    6  A    between atoms: C_6  and  C_7 
REMARK    7  A    between atoms: C_8  and  O_9 
REMARK    8  A    between atoms: C_21  and  C_22 
REMARK    9  A    between atoms: C_22  and  C_23 
REMARK   10  A    between atoms: C_23  and  O_24 
REMARK   11  A    between atoms: N_26  and  C_27 
REMARK   12  A    between atoms: C_27  and  C_28 
ROOT
HETATM    1  N   UNL     1      40.971 -15.261   0.455  1.00  0.00    -0.055 N 
HETATM    2  H   UNL     1      40.947 -15.945  -0.306  1.00  0.00     0.281 HD
ENDROOT
BRANCH   1   3
HETATM    3  C   UNL     1      40.431 -13.956  -0.169  1.00  0.00     0.263 C 
BRANCH   3   4
HETATM    4  C   UNL     1      39.812 -14.135  -1.593  1.00  0.00     0.016 C 
HETATM    5  C   UNL     1      38.278 -14.137  -1.585  1.00  0.00     0.012 C 
HETATM    6  C   UNL     1      40.319 -15.309  -2.436  1.00  0.00     0.012 C 
ENDBRANCH   3   4
BRANCH   3   7
HETATM    7  C   UNL     1      41.299 -12.743  -0.076  1.00  0.00     0.168 A 
HETATM    8  N   UNL     1      41.016 -11.594   0.627  1.00  0.00    -0.257 N 
HETATM    9  N   UNL     1      41.992 -10.694   0.431  1.00  0.00    -0.003 NA
HETATM   10  N   UNL     1      42.861 -11.283  -0.372  1.00  0.00     0.018 NA
HETATM   11  N   UNL     1      42.441 -12.538  -0.700  1.00  0.00    -0.145 NA
BRANCH   8  12
HETATM   12  C   UNL     1      39.894 -11.254   1.483  1.00  0.00     0.186 C 
BRANCH  12  13
HETATM   13  C   UNL     1      38.594 -11.130   0.721  1.00  0.00    -0.039 A 
HETATM   14  C   UNL     1      38.524 -10.500  -0.534  1.00  0.00     0.009 A 
HETATM   15  C   UNL     1      37.329 -10.472  -1.253  1.00  0.00     0.001 A 
HETATM   16  C   UNL     1      36.191 -11.088  -0.742  1.00  0.00     0.000 A 
HETATM   17  C   UNL     1      36.247 -11.735   0.491  1.00  0.00     0.001 A 
HETATM   18  C   UNL     1      37.441 -11.762   1.215  1.00  0.00     0.009 A 
ENDBRANCH  12  13
ENDBRANCH   8  12
ENDBRANCH   3   7
ENDBRANCH   1   3
BRANCH   1  19
HETATM   19  C   UNL     1      42.448 -15.337   0.871  1.00  0.00     0.278 C 
BRANCH  19  20
HETATM   20  C   UNL     1      42.952 -16.453   1.729  1.00  0.00     0.021 A 
HETATM   21  C   UNL     1      43.368 -16.209   3.030  1.00  0.00     0.170 A 
HETATM   22  N   UNL     1      43.845 -17.110   3.900  1.00  0.00    -0.224 NA
HETATM   23  C   UNL     1      43.930 -18.383   3.488  1.00  0.00     0.072 A 
HETATM   24  C   UNL     1      43.582 -18.765   2.162  1.00  0.00    -0.004 A 
HETATM   25  C   UNL     1      44.378 -19.357   4.372  1.00  0.00     0.072 A 
HETATM   26  C   UNL     1      43.113 -17.769   1.289  1.00  0.00     0.027 A 
HETATM   27  C   UNL     1      43.699 -20.102   1.744  1.00  0.00     0.053 A 
HETATM   28  C   UNL     1      44.141 -21.027   2.661  1.00  0.00     0.106 A 
HETATM   29  C   UNL     1      44.470 -20.664   3.942  1.00  0.00     0.107 A 
HETATM   30  O   UNL     1      44.300 -22.356   2.437  1.00  0.00    -0.323 OA
HETATM   31  O   UNL     1      44.878 -21.722   4.690  1.00  0.00    -0.323 OA
HETATM   32  C   UNL     1      44.756 -22.798   3.736  1.00  0.00     0.352 A 
BRANCH  21  33
HETATM   33  O   UNL     1      43.329 -14.958   3.551  1.00  0.00    -0.344 OA
HETATM   34  H   UNL     1      43.922 -15.086   4.321  1.00  0.00     0.219 HD
ENDBRANCH  21  33
ENDBRANCH  19  20
ENDBRANCH   1  19
BRANCH   1  35
HETATM   35  C   UNL     1      40.045 -15.865   1.504  1.00  0.00     0.238 C 
BRANCH  35  36
HETATM   36  C   UNL     1      39.284 -14.775   2.262  1.00  0.00     0.054 C 
BRANCH  36  37
HETATM   37  C   UNL     1      40.090 -14.288   3.459  1.00  0.00     0.165 C 
BRANCH  37  38
HETATM   38  O   UNL     1      39.712 -15.059   4.589  1.00  0.00    -0.401 OA
HETATM   39  H   UNL     1      39.872 -15.997   4.368  1.00  0.00     0.209 HD
ENDBRANCH  37  38
ENDBRANCH  36  37
ENDBRANCH  35  36
ENDBRANCH   1  35
TORSDOF 12
ENDMDL
