MODEL 1
REMARK VINA RESULT:      -7.8      0.000      0.000
REMARK  5 active torsions:
REMARK  status: ('A' for Active; 'I' for Inactive)
REMARK    1  A    between atoms: C_2  and  O_3 
REMARK    2  A    between atoms: C_4  and  C_5 
REMARK    3  A    between atoms: C_5  and  O_6 
REMARK    4  A    between atoms: C_9  and  C_10 
REMARK    5  A    between atoms: C_22  and  O_23 
ROOT
HETATM    1  C   UNL     1      40.435 -16.425   1.863  1.00  0.00     0.047 C 
HETATM    2  C   UNL     1      41.012 -15.276   2.708  1.00  0.00     0.073 C 
HETATM    3  C   UNL     1      42.543 -15.471   2.963  1.00  0.00     0.133 C 
HETATM    4  C   UNL     1      42.958 -16.498   4.060  1.00  0.00     0.074 C 
HETATM    5  C   UNL     1      41.913 -16.640   5.112  1.00  0.00     0.030 A 
HETATM    6  C   UNL     1      40.681 -16.022   5.065  1.00  0.00     0.042 A 
HETATM    7  N   UNL     1      40.030 -16.348   6.221  1.00  0.00    -0.279 N 
HETATM    8  H   UNL     1      39.105 -16.063   6.531  1.00  0.00     0.189 HD
HETATM    9  N   UNL     1      40.768 -17.133   7.034  1.00  0.00    -0.149 NA
HETATM   10  C   UNL     1      41.901 -17.271   6.357  1.00  0.00     0.190 A 
HETATM   11  C   UNL     1      40.180 -15.113   4.010  1.00  0.00     0.097 C 
ENDROOT
BRANCH   4  12
HETATM   12  C   UNL     1      43.293 -17.876   3.490  1.00  0.00    -0.048 A 
HETATM   13  C   UNL     1      44.251 -18.648   4.179  1.00  0.00     0.009 A 
HETATM   14  C   UNL     1      44.624 -19.916   3.724  1.00  0.00     0.024 A 
HETATM   15  C   UNL     1      44.050 -20.430   2.567  1.00  0.00     0.034 A 
HETATM   16 CL   UNL     1      44.505 -21.990   2.003  1.00  0.00    -0.084 Cl
HETATM   17  C   UNL     1      43.107 -19.688   1.865  1.00  0.00     0.024 A 
HETATM   18  C   UNL     1      42.731 -18.420   2.324  1.00  0.00     0.009 A 
ENDBRANCH   4  12
BRANCH   3  19
HETATM   19  C   UNL     1      43.200 -14.134   3.257  1.00  0.00     0.266 C 
HETATM   20  O   UNL     1      43.249 -13.228   2.432  1.00  0.00    -0.265 OA
BRANCH  19  21
HETATM   21  O   UNL     1      43.705 -14.061   4.515  1.00  0.00    -0.326 OA
HETATM   22  C   UNL     1      43.011 -13.162   5.380  1.00  0.00     0.213 C 
ENDBRANCH  19  21
ENDBRANCH   3  19
BRANCH   2  23
HETATM   23  O   UNL     1      40.791 -14.092   1.916  1.00  0.00    -0.389 OA
HETATM   24  H   UNL     1      41.452 -13.420   2.164  1.00  0.00     0.210 HD
ENDBRANCH   2  23
BRANCH  10  25
HETATM   25  O   UNL     1      42.846 -17.978   6.965  1.00  0.00    -0.343 OA
HETATM   26  H   UNL     1      43.559 -17.338   7.133  1.00  0.00     0.219 HD
ENDBRANCH  10  25
TORSDOF 5
ENDMDL
MODEL 2
REMARK VINA RESULT:      -7.8      1.695      2.546
REMARK  5 active torsions:
REMARK  status: ('A' for Active; 'I' for Inactive)
REMARK    1  A    between atoms: C_2  and  O_3 
REMARK    2  A    between atoms: C_4  and  C_5 
REMARK    3  A    between atoms: C_5  and  O_6 
REMARK    4  A    between atoms: C_9  and  C_10 
REMARK    5  A    between atoms: C_22  and  O_23 
ROOT
HETATM    1  C   UNL     1      40.405 -17.732   4.651  1.00  0.00     0.047 C 
HETATM    2  C   UNL     1      41.113 -16.414   5.008  1.00  0.00     0.073 C 
HETATM    3  C   UNL     1      42.419 -16.225   4.167  1.00  0.00     0.133 C 
HETATM    4  C   UNL     1      43.676 -17.031   4.612  1.00  0.00     0.074 C 
HETATM    5  C   UNL     1      43.661 -17.325   6.072  1.00  0.00     0.030 A 
HETATM    6  C   UNL     1      42.610 -17.018   6.910  1.00  0.00     0.042 A 
HETATM    7  N   UNL     1      42.985 -17.389   8.170  1.00  0.00    -0.279 N 
HETATM    8  H   UNL     1      42.466 -17.302   9.039  1.00  0.00     0.189 HD
HETATM    9  N   UNL     1      44.230 -17.909   8.213  1.00  0.00    -0.149 NA
HETATM   10  C   UNL     1      44.621 -17.835   6.947  1.00  0.00     0.190 A 
HETATM   11  C   UNL     1      41.345 -16.342   6.543  1.00  0.00     0.097 C 
ENDROOT
BRANCH   4  12
HETATM   12  C   UNL     1      43.853 -18.335   3.835  1.00  0.00    -0.048 A 
HETATM   13  C   UNL     1      43.379 -18.371   2.507  1.00  0.00     0.009 A 
HETATM   14  C   UNL     1      43.492 -19.524   1.727  1.00  0.00     0.024 A 
HETATM   15  C   UNL     1      44.074 -20.667   2.264  1.00  0.00     0.034 A 
HETATM   16 CL   UNL     1      44.215 -22.089   1.307  1.00  0.00    -0.084 Cl
HETATM   17  C   UNL     1      44.545 -20.662   3.573  1.00  0.00     0.024 A 
HETATM   18  C   UNL     1      44.436 -19.505   4.352  1.00  0.00     0.009 A 
ENDBRANCH   4  12
BRANCH   3  19
HETATM   19  C   UNL     1      42.776 -14.752   4.078  1.00  0.00     0.266 C 
HETATM   20  O   UNL     1      43.547 -14.211   4.864  1.00  0.00    -0.265 OA
BRANCH  19  21
HETATM   21  O   UNL     1      42.162 -14.123   3.043  1.00  0.00    -0.326 OA
HETATM   22  C   UNL     1      42.224 -14.827   1.802  1.00  0.00     0.213 C 
ENDBRANCH  19  21
ENDBRANCH   3  19
BRANCH   2  23
HETATM   23  O   UNL     1      40.160 -15.385   4.677  1.00  0.00    -0.389 OA
HETATM   24  H   UNL     1      39.772 -15.583   3.805  1.00  0.00     0.210 HD
ENDBRANCH   2  23
BRANCH  10  25
HETATM   25  O   UNL     1      45.860 -18.249   6.707  1.00  0.00    -0.343 OA
HETATM   26  H   UNL     1      45.860 -19.185   6.971  1.00  0.00     0.219 HD
ENDBRANCH  10  25
TORSDOF 5
ENDMDL
MODEL 3
REMARK VINA RESULT:      -7.6      2.854      3.979
REMARK  5 active torsions:
REMARK  status: ('A' for Active; 'I' for Inactive)
REMARK    1  A    between atoms: C_2  and  O_3 
REMARK    2  A    between atoms: C_4  and  C_5 
REMARK    3  A    between atoms: C_5  and  O_6 
REMARK    4  A    between atoms: C_9  and  C_10 
REMARK    5  A    between atoms: C_22  and  O_23 
ROOT
HETATM    1  C   UNL     1      43.971 -14.018   3.609  1.00  0.00     0.047 C 
HETATM    2  C   UNL     1      42.499 -13.616   3.422  1.00  0.00     0.073 C 
HETATM    3  C   UNL     1      41.535 -14.665   4.070  1.00  0.00     0.133 C 
HETATM    4  C   UNL     1      41.284 -15.985   3.280  1.00  0.00     0.074 C 
HETATM    5  C   UNL     1      41.440 -15.793   1.811  1.00  0.00     0.030 A 
HETATM    6  C   UNL     1      41.863 -14.618   1.227  1.00  0.00     0.042 A 
HETATM    7  N   UNL     1      41.829 -14.812  -0.125  1.00  0.00    -0.279 N 
HETATM    8  H   UNL     1      42.064 -14.158  -0.866  1.00  0.00     0.189 HD
HETATM    9  N   UNL     1      41.393 -16.043  -0.466  1.00  0.00    -0.149 NA
HETATM   10  C   UNL     1      41.143 -16.601   0.713  1.00  0.00     0.190 A 
HETATM   11  C   UNL     1      42.213 -13.355   1.916  1.00  0.00     0.097 C 
ENDROOT
BRANCH   4  12
HETATM   12  C   UNL     1      42.183 -17.133   3.739  1.00  0.00    -0.048 A 
HETATM   13  C   UNL     1      41.967 -17.651   5.033  1.00  0.00     0.009 A 
HETATM   14  C   UNL     1      42.747 -18.695   5.536  1.00  0.00     0.024 A 
HETATM   15  C   UNL     1      43.763 -19.235   4.756  1.00  0.00     0.034 A 
HETATM   16 CL   UNL     1      44.727 -20.521   5.372  1.00  0.00    -0.084 Cl
HETATM   17  C   UNL     1      44.002 -18.740   3.479  1.00  0.00     0.024 A 
HETATM   18  C   UNL     1      43.217 -17.698   2.974  1.00  0.00     0.009 A 
ENDBRANCH   4  12
BRANCH   3  19
HETATM   19  C   UNL     1      40.201 -14.019   4.399  1.00  0.00     0.266 C 
HETATM   20  O   UNL     1      39.419 -13.642   3.533  1.00  0.00    -0.265 OA
BRANCH  19  21
HETATM   21  O   UNL     1      39.980 -13.920   5.735  1.00  0.00    -0.326 OA
HETATM   22  C   UNL     1      39.435 -12.668   6.154  1.00  0.00     0.213 C 
ENDBRANCH  19  21
ENDBRANCH   3  19
BRANCH   2  23
HETATM   23  O   UNL     1      42.375 -12.349   4.099  1.00  0.00    -0.389 OA
HETATM   24  H   UNL     1      43.266 -12.031   4.335  1.00  0.00     0.210 HD
ENDBRANCH   2  23
BRANCH  10  25
HETATM   25  O   UNL     1      40.645 -17.831   0.668  1.00  0.00    -0.343 OA
HETATM   26  H   UNL     1      39.765 -17.723   0.269  1.00  0.00     0.219 HD
ENDBRANCH  10  25
TORSDOF 5
ENDMDL
MODEL 4
REMARK VINA RESULT:      -7.3      3.295      5.166
REMARK  5 active torsions:
REMARK  status: ('A' for Active; 'I' for Inactive)
REMARK    1  A    between atoms: C_2  and  O_3 
REMARK    2  A    between atoms: C_4  and  C_5 
REMARK    3  A    between atoms: C_5  and  O_6 
REMARK    4  A    between atoms: C_9  and  C_10 
REMARK    5  A    between atoms: C_22  and  O_23 
ROOT
HETATM    1  C   UNL     1      40.795 -17.713   5.959  1.00  0.00     0.047 C 
HETATM    2  C   UNL     1      42.286 -17.418   6.191  1.00  0.00     0.073 C 
HETATM    3  C   UNL     1      42.696 -16.040   5.574  1.00  0.00     0.133 C 
HETATM    4  C   UNL     1      42.918 -15.987   4.032  1.00  0.00     0.074 C 
HETATM    5  C   UNL     1      43.346 -17.305   3.486  1.00  0.00     0.030 A 
HETATM    6  C   UNL     1      43.431 -18.460   4.235  1.00  0.00     0.042 A 
HETATM    7  N   UNL     1      43.906 -19.437   3.406  1.00  0.00    -0.279 N 
HETATM    8  H   UNL     1      44.103 -20.410   3.620  1.00  0.00     0.189 HD
HETATM    9  N   UNL     1      44.154 -18.988   2.157  1.00  0.00    -0.149 NA
HETATM   10  C   UNL     1      43.834 -17.703   2.241  1.00  0.00     0.190 A 
HETATM   11  C   UNL     1      43.144 -18.609   5.680  1.00  0.00     0.097 C 
ENDROOT
BRANCH   4  12
HETATM   12  C   UNL     1      41.686 -15.501   3.269  1.00  0.00    -0.048 A 
HETATM   13  C   UNL     1      41.463 -14.109   3.214  1.00  0.00     0.009 A 
HETATM   14  C   UNL     1      40.357 -13.577   2.546  1.00  0.00     0.024 A 
HETATM   15  C   UNL     1      39.450 -14.429   1.926  1.00  0.00     0.034 A 
HETATM   16 CL   UNL     1      38.087 -13.779   1.102  1.00  0.00    -0.084 Cl
HETATM   17  C   UNL     1      39.642 -15.805   1.970  1.00  0.00     0.024 A 
HETATM   18  C   UNL     1      40.752 -16.337   2.635  1.00  0.00     0.009 A 
ENDBRANCH   4  12
BRANCH   3  19
HETATM   19  C   UNL     1      43.930 -15.498   6.274  1.00  0.00     0.266 C 
HETATM   20  O   UNL     1      44.828 -16.224   6.685  1.00  0.00    -0.265 OA
BRANCH  19  21
HETATM   21  O   UNL     1      43.923 -14.144   6.378  1.00  0.00    -0.326 OA
HETATM   22  C   UNL     1      44.739 -13.626   7.429  1.00  0.00     0.213 C 
ENDBRANCH  19  21
ENDBRANCH   3  19
BRANCH   2  23
HETATM   23  O   UNL     1      42.433 -17.379   7.625  1.00  0.00    -0.389 OA
HETATM   24  H   UNL     1      41.969 -16.592   7.967  1.00  0.00     0.210 HD
ENDBRANCH   2  23
BRANCH  10  25
HETATM   25  O   UNL     1      44.031 -16.993   1.135  1.00  0.00    -0.343 OA
HETATM   26  H   UNL     1      44.122 -17.658   0.432  1.00  0.00     0.219 HD
ENDBRANCH  10  25
TORSDOF 5
ENDMDL
MODEL 5
REMARK VINA RESULT:      -6.9      3.766      5.020
REMARK  5 active torsions:
REMARK  status: ('A' for Active; 'I' for Inactive)
REMARK    1  A    between atoms: C_2  and  O_3 
REMARK    2  A    between atoms: C_4  and  C_5 
REMARK    3  A    between atoms: C_5  and  O_6 
REMARK    4  A    between atoms: C_9  and  C_10 
REMARK    5  A    between atoms: C_22  and  O_23 
ROOT
HETATM    1  C   UNL     1      40.954 -15.771  -2.612  1.00  0.00     0.047 C 
HETATM    2  C   UNL     1      40.886 -14.293  -2.191  1.00  0.00     0.073 C 
HETATM    3  C   UNL     1      41.813 -14.008  -0.963  1.00  0.00     0.133 C 
HETATM    4  C   UNL     1      41.290 -14.441   0.440  1.00  0.00     0.074 C 
HETATM    5  C   UNL     1      39.801 -14.444   0.503  1.00  0.00     0.030 A 
HETATM    6  C   UNL     1      38.983 -14.201  -0.580  1.00  0.00     0.042 A 
HETATM    7  N   UNL     1      37.696 -14.238  -0.122  1.00  0.00    -0.279 N 
HETATM    8  H   UNL     1      36.834 -14.092  -0.639  1.00  0.00     0.189 HD
HETATM    9  N   UNL     1      37.620 -14.476   1.205  1.00  0.00    -0.149 NA
HETATM   10  C   UNL     1      38.897 -14.570   1.557  1.00  0.00     0.190 A 
HETATM   11  C   UNL     1      39.405 -13.880  -1.963  1.00  0.00     0.097 C 
ENDROOT
BRANCH   4  12
HETATM   12  C   UNL     1      41.817 -15.807   0.877  1.00  0.00    -0.048 A 
HETATM   13  C   UNL     1      43.145 -15.870   1.349  1.00  0.00     0.009 A 
HETATM   14  C   UNL     1      43.711 -17.079   1.761  1.00  0.00     0.024 A 
HETATM   15  C   UNL     1      42.961 -18.248   1.702  1.00  0.00     0.034 A 
HETATM   16 CL   UNL     1      43.654 -19.739   2.209  1.00  0.00    -0.084 Cl
HETATM   17  C   UNL     1      41.651 -18.216   1.237  1.00  0.00     0.024 A 
HETATM   18  C   UNL     1      41.083 -17.004   0.829  1.00  0.00     0.009 A 
ENDBRANCH   4  12
BRANCH   3  19
HETATM   19  C   UNL     1      42.193 -12.538  -0.923  1.00  0.00     0.266 C 
HETATM   20  O   UNL     1      42.966 -12.035  -1.730  1.00  0.00    -0.265 OA
BRANCH  19  21
HETATM   21  O   UNL     1      41.579 -11.864   0.083  1.00  0.00    -0.326 OA
HETATM   22  C   UNL     1      40.761 -10.775  -0.346  1.00  0.00     0.213 C 
ENDBRANCH  19  21
ENDBRANCH   3  19
BRANCH   2  23
HETATM   23  O   UNL     1      41.354 -13.562  -3.342  1.00  0.00    -0.389 OA
HETATM   24  H   UNL     1      40.722 -13.688  -4.073  1.00  0.00     0.210 HD
ENDBRANCH   2  23
BRANCH  10  25
HETATM   25  O   UNL     1      39.118 -14.761   2.853  1.00  0.00    -0.343 OA
HETATM   26  H   UNL     1      40.086 -14.764   2.937  1.00  0.00     0.219 HD
ENDBRANCH  10  25
TORSDOF 5
ENDMDL
MODEL 6
REMARK VINA RESULT:      -6.8      3.183      4.611
REMARK  5 active torsions:
REMARK  status: ('A' for Active; 'I' for Inactive)
REMARK    1  A    between atoms: C_2  and  O_3 
REMARK    2  A    between atoms: C_4  and  C_5 
REMARK    3  A    between atoms: C_5  and  O_6 
REMARK    4  A    between atoms: C_9  and  C_10 
REMARK    5  A    between atoms: C_22  and  O_23 
ROOT
HETATM    1  C   UNL     1      43.756 -13.647   3.375  1.00  0.00     0.047 C 
HETATM    2  C   UNL     1      42.294 -13.207   3.190  1.00  0.00     0.073 C 
HETATM    3  C   UNL     1      41.308 -14.404   3.399  1.00  0.00     0.133 C 
HETATM    4  C   UNL     1      41.160 -15.419   2.226  1.00  0.00     0.074 C 
HETATM    5  C   UNL     1      41.434 -14.787   0.905  1.00  0.00     0.030 A 
HETATM    6  C   UNL     1      41.872 -13.489   0.747  1.00  0.00     0.042 A 
HETATM    7  N   UNL     1      41.957 -13.260  -0.597  1.00  0.00    -0.279 N 
HETATM    8  H   UNL     1      42.235 -12.410  -1.080  1.00  0.00     0.189 HD
HETATM    9  N   UNL     1      41.584 -14.327  -1.334  1.00  0.00    -0.149 NA
HETATM   10  C   UNL     1      41.251 -15.218  -0.409  1.00  0.00     0.190 A 
HETATM   11  C   UNL     1      42.129 -12.498   1.817  1.00  0.00     0.097 C 
ENDROOT
BRANCH   4  12
HETATM   12  C   UNL     1      42.047 -16.653   2.389  1.00  0.00    -0.048 A 
HETATM   13  C   UNL     1      43.127 -16.800   1.494  1.00  0.00     0.009 A 
HETATM   14  C   UNL     1      43.983 -17.902   1.566  1.00  0.00     0.024 A 
HETATM   15  C   UNL     1      43.771 -18.880   2.531  1.00  0.00     0.034 A 
HETATM   16 CL   UNL     1      44.823 -20.237   2.623  1.00  0.00    -0.084 Cl
HETATM   17  C   UNL     1      42.711 -18.762   3.423  1.00  0.00     0.024 A 
HETATM   18  C   UNL     1      41.856 -17.657   3.353  1.00  0.00     0.009 A 
ENDBRANCH   4  12
BRANCH   3  19
HETATM   19  C   UNL     1      39.934 -13.890   3.791  1.00  0.00     0.266 C 
HETATM   20  O   UNL     1      39.659 -13.549   4.936  1.00  0.00    -0.265 OA
BRANCH  19  21
HETATM   21  O   UNL     1      39.072 -13.844   2.743  1.00  0.00    -0.326 OA
HETATM   22  C   UNL     1      38.642 -12.529   2.387  1.00  0.00     0.213 C 
ENDBRANCH  19  21
ENDBRANCH   3  19
BRANCH   2  23
HETATM   23  O   UNL     1      42.080 -12.209   4.207  1.00  0.00    -0.389 OA
HETATM   24  H   UNL     1      42.483 -11.370   3.915  1.00  0.00     0.210 HD
ENDBRANCH   2  23
BRANCH  10  25
HETATM   25  O   UNL     1      40.792 -16.376  -0.871  1.00  0.00    -0.343 OA
HETATM   26  H   UNL     1      40.530 -16.869  -0.075  1.00  0.00     0.219 HD
ENDBRANCH  10  25
TORSDOF 5
ENDMDL
MODEL 7
REMARK VINA RESULT:      -6.5      3.334      4.770
REMARK  5 active torsions:
REMARK  status: ('A' for Active; 'I' for Inactive)
REMARK    1  A    between atoms: C_2  and  O_3 
REMARK    2  A    between atoms: C_4  and  C_5 
REMARK    3  A    between atoms: C_5  and  O_6 
REMARK    4  A    between atoms: C_9  and  C_10 
REMARK    5  A    between atoms: C_22  and  O_23 
ROOT
HETATM    1  C   UNL     1      42.803 -12.702   4.498  1.00  0.00     0.047 C 
HETATM    2  C   UNL     1      41.357 -12.180   4.547  1.00  0.00     0.073 C 
HETATM    3  C   UNL     1      40.422 -13.165   5.325  1.00  0.00     0.133 C 
HETATM    4  C   UNL     1      39.945 -14.441   4.568  1.00  0.00     0.074 C 
HETATM    5  C   UNL     1      39.888 -14.226   3.095  1.00  0.00     0.030 A 
HETATM    6  C   UNL     1      40.311 -13.074   2.466  1.00  0.00     0.042 A 
HETATM    7  N   UNL     1      40.053 -13.231   1.134  1.00  0.00    -0.279 N 
HETATM    8  H   UNL     1      40.223 -12.580   0.373  1.00  0.00     0.189 HD
HETATM    9  N   UNL     1      39.469 -14.415   0.850  1.00  0.00    -0.149 NA
HETATM   10  C   UNL     1      39.359 -14.979   2.047  1.00  0.00     0.190 A 
HETATM   11  C   UNL     1      40.865 -11.860   3.108  1.00  0.00     0.097 C 
ENDROOT
BRANCH   4  12
HETATM   12  C   UNL     1      40.805 -15.668   4.867  1.00  0.00    -0.048 A 
HETATM   13  C   UNL     1      40.773 -16.180   6.181  1.00  0.00     0.009 A 
HETATM   14  C   UNL     1      41.535 -17.294   6.544  1.00  0.00     0.024 A 
HETATM   15  C   UNL     1      42.349 -17.911   5.601  1.00  0.00     0.034 A 
HETATM   16 CL   UNL     1      43.289 -19.282   6.044  1.00  0.00    -0.084 Cl
HETATM   17  C   UNL     1      42.405 -17.423   4.300  1.00  0.00     0.024 A 
HETATM   18  C   UNL     1      41.638 -16.311   3.936  1.00  0.00     0.009 A 
ENDBRANCH   4  12
BRANCH   3  19
HETATM   19  C   UNL     1      39.213 -12.423   5.865  1.00  0.00     0.266 C 
HETATM   20  O   UNL     1      38.475 -11.754   5.150  1.00  0.00    -0.265 OA
BRANCH  19  21
HETATM   21  O   UNL     1      39.045 -12.594   7.202  1.00  0.00    -0.326 OA
HETATM   22  C   UNL     1      39.413 -11.465   7.994  1.00  0.00     0.213 C 
ENDBRANCH  19  21
ENDBRANCH   3  19
BRANCH   2  23
HETATM   23  O   UNL     1      41.444 -10.925   5.250  1.00  0.00    -0.389 OA
HETATM   24  H   UNL     1      40.655 -10.824   5.814  1.00  0.00     0.210 HD
ENDBRANCH   2  23
BRANCH  10  25
HETATM   25  O   UNL     1      38.760 -16.165   2.065  1.00  0.00    -0.343 OA
HETATM   26  H   UNL     1      39.058 -16.576   2.894  1.00  0.00     0.219 HD
ENDBRANCH  10  25
TORSDOF 5
ENDMDL
MODEL 8
REMARK VINA RESULT:      -6.4      4.840      6.544
REMARK  5 active torsions:
REMARK  status: ('A' for Active; 'I' for Inactive)
REMARK    1  A    between atoms: C_2  and  O_3 
REMARK    2  A    between atoms: C_4  and  C_5 
REMARK    3  A    between atoms: C_5  and  O_6 
REMARK    4  A    between atoms: C_9  and  C_10 
REMARK    5  A    between atoms: C_22  and  O_23 
ROOT
HETATM    1  C   UNL     1      42.096 -12.250   0.660  1.00  0.00     0.047 C 
HETATM    2  C   UNL     1      40.709 -12.020   0.037  1.00  0.00     0.073 C 
HETATM    3  C   UNL     1      39.696 -13.127   0.481  1.00  0.00     0.133 C 
HETATM    4  C   UNL     1      39.795 -14.511  -0.230  1.00  0.00     0.074 C 
HETATM    5  C   UNL     1      40.346 -14.390  -1.609  1.00  0.00     0.030 A 
HETATM    6  C   UNL     1      40.814 -13.212  -2.153  1.00  0.00     0.042 A 
HETATM    7  N   UNL     1      41.184 -13.488  -3.439  1.00  0.00    -0.279 N 
HETATM    8  H   UNL     1      41.562 -12.857  -4.140  1.00  0.00     0.189 HD
HETATM    9  N   UNL     1      40.971 -14.776  -3.779  1.00  0.00    -0.149 NA
HETATM   10  C   UNL     1      40.445 -15.287  -2.673  1.00  0.00     0.190 A 
HETATM   11  C   UNL     1      40.842 -11.881  -1.505  1.00  0.00     0.097 C 
ENDROOT
BRANCH   4  12
HETATM   12  C   UNL     1      40.622 -15.527   0.557  1.00  0.00    -0.048 A 
HETATM   13  C   UNL     1      40.056 -16.049   1.739  1.00  0.00     0.009 A 
HETATM   14  C   UNL     1      40.746 -16.976   2.525  1.00  0.00     0.024 A 
HETATM   15  C   UNL     1      42.017 -17.393   2.146  1.00  0.00     0.034 A 
HETATM   16 CL   UNL     1      42.869 -18.534   3.111  1.00  0.00    -0.084 Cl
HETATM   17  C   UNL     1      42.601 -16.890   0.989  1.00  0.00     0.024 A 
HETATM   18  C   UNL     1      41.908 -15.965   0.200  1.00  0.00     0.009 A 
ENDBRANCH   4  12
BRANCH   3  19
HETATM   19  C   UNL     1      38.272 -12.610   0.369  1.00  0.00     0.266 C 
HETATM   20  O   UNL     1      37.614 -12.706  -0.661  1.00  0.00    -0.265 OA
BRANCH  19  21
HETATM   21  O   UNL     1      37.824 -12.053   1.523  1.00  0.00    -0.326 OA
HETATM   22  C   UNL     1      36.848 -11.026   1.344  1.00  0.00     0.213 C 
ENDBRANCH  19  21
ENDBRANCH   3  19
BRANCH   2  23
HETATM   23  O   UNL     1      40.288 -10.737   0.541  1.00  0.00    -0.389 OA
HETATM   24  H   UNL     1      39.374 -10.568   0.248  1.00  0.00     0.210 HD
ENDBRANCH   2  23
BRANCH  10  25
HETATM   25  O   UNL     1      40.089 -16.565  -2.748  1.00  0.00    -0.343 OA
HETATM   26  H   UNL     1      40.913 -17.057  -2.590  1.00  0.00     0.219 HD
ENDBRANCH  10  25
TORSDOF 5
ENDMDL
MODEL 9
REMARK VINA RESULT:      -6.4      3.033      4.259
REMARK  5 active torsions:
REMARK  status: ('A' for Active; 'I' for Inactive)
REMARK    1  A    between atoms: C_2  and  O_3 
REMARK    2  A    between atoms: C_4  and  C_5 
REMARK    3  A    between atoms: C_5  and  O_6 
REMARK    4  A    between atoms: C_9  and  C_10 
REMARK    5  A    between atoms: C_22  and  O_23 
ROOT
HETATM    1  C   UNL     1      43.869 -14.007   4.203  1.00  0.00     0.047 C 
HETATM    2  C   UNL     1      42.638 -14.231   3.308  1.00  0.00     0.073 C 
HETATM    3  C   UNL     1      41.587 -15.155   4.007  1.00  0.00     0.133 C 
HETATM    4  C   UNL     1      41.875 -16.687   4.009  1.00  0.00     0.074 C 
HETATM    5  C   UNL     1      42.700 -17.100   2.839  1.00  0.00     0.030 A 
HETATM    6  C   UNL     1      43.238 -16.218   1.925  1.00  0.00     0.042 A 
HETATM    7  N   UNL     1      43.878 -16.969   0.979  1.00  0.00    -0.279 N 
HETATM    8  H   UNL     1      44.377 -16.656   0.151  1.00  0.00     0.189 HD
HETATM    9  N   UNL     1      43.780 -18.295   1.209  1.00  0.00    -0.149 NA
HETATM   10  C   UNL     1      43.048 -18.345   2.316  1.00  0.00     0.190 A 
HETATM   11  C   UNL     1      43.090 -14.745   1.913  1.00  0.00     0.097 C 
ENDROOT
BRANCH   4  12
HETATM   12  C   UNL     1      42.546 -17.166   5.295  1.00  0.00    -0.048 A 
HETATM   13  C   UNL     1      43.843 -17.710   5.188  1.00  0.00     0.009 A 
HETATM   14  C   UNL     1      44.527 -18.180   6.312  1.00  0.00     0.024 A 
HETATM   15  C   UNL     1      43.924 -18.120   7.563  1.00  0.00     0.034 A 
HETATM   16 CL   UNL     1      44.763 -18.697   8.950  1.00  0.00    -0.084 Cl
HETATM   17  C   UNL     1      42.644 -17.594   7.697  1.00  0.00     0.024 A 
HETATM   18  C   UNL     1      41.961 -17.119   6.572  1.00  0.00     0.009 A 
ENDBRANCH   4  12
BRANCH   3  19
HETATM   19  C   UNL     1      40.205 -14.908   3.430  1.00  0.00     0.266 C 
HETATM   20  O   UNL     1      39.773 -15.527   2.463  1.00  0.00    -0.265 OA
BRANCH  19  21
HETATM   21  O   UNL     1      39.518 -13.950   4.103  1.00  0.00    -0.326 OA
HETATM   22  C   UNL     1      39.720 -13.959   5.517  1.00  0.00     0.213 C 
ENDBRANCH  19  21
ENDBRANCH   3  19
BRANCH   2  23
HETATM   23  O   UNL     1      42.084 -12.915   3.112  1.00  0.00    -0.389 OA
HETATM   24  H   UNL     1      41.333 -12.979   2.493  1.00  0.00     0.210 HD
ENDBRANCH   2  23
BRANCH  10  25
HETATM   25  O   UNL     1      42.753 -19.566   2.749  1.00  0.00    -0.343 OA
HETATM   26  H   UNL     1      42.057 -19.877   2.147  1.00  0.00     0.219 HD
ENDBRANCH  10  25
TORSDOF 5
ENDMDL
MODEL 10
REMARK VINA RESULT:      -6.3      6.103      8.164
REMARK  5 active torsions:
REMARK  status: ('A' for Active; 'I' for Inactive)
REMARK    1  A    between atoms: C_2  and  O_3 
REMARK    2  A    between atoms: C_4  and  C_5 
REMARK    3  A    between atoms: C_5  and  O_6 
REMARK    4  A    between atoms: C_9  and  C_10 
REMARK    5  A    between atoms: C_22  and  O_23 
ROOT
HETATM    1  C   UNL     1      39.162 -11.581   0.565  1.00  0.00     0.047 C 
HETATM    2  C   UNL     1      39.903 -12.874   0.943  1.00  0.00     0.073 C 
HETATM    3  C   UNL     1      41.437 -12.755   0.659  1.00  0.00     0.133 C 
HETATM    4  C   UNL     1      41.903 -12.910  -0.820  1.00  0.00     0.074 C 
HETATM    5  C   UNL     1      40.974 -13.767  -1.609  1.00  0.00     0.030 A 
HETATM    6  C   UNL     1      39.788 -14.273  -1.120  1.00  0.00     0.042 A 
HETATM    7  N   UNL     1      39.248 -15.046  -2.109  1.00  0.00    -0.279 N 
HETATM    8  H   UNL     1      38.384 -15.581  -2.097  1.00  0.00     0.189 HD
HETATM    9  N   UNL     1      40.019 -15.091  -3.216  1.00  0.00    -0.149 NA
HETATM   10  C   UNL     1      41.058 -14.337  -2.879  1.00  0.00     0.190 A 
HETATM   11  C   UNL     1      39.233 -14.088   0.241  1.00  0.00     0.097 C 
ENDROOT
BRANCH   4  12
HETATM   12  C   UNL     1      42.081 -11.570  -1.532  1.00  0.00    -0.048 A 
HETATM   13  C   UNL     1      43.256 -10.839  -1.257  1.00  0.00     0.009 A 
HETATM   14  C   UNL     1      43.497  -9.600  -1.858  1.00  0.00     0.024 A 
HETATM   15  C   UNL     1      42.563  -9.067  -2.739  1.00  0.00     0.034 A 
HETATM   16 CL   UNL     1      42.855  -7.542  -3.480  1.00  0.00    -0.084 Cl
HETATM   17  C   UNL     1      41.394  -9.763  -3.024  1.00  0.00     0.024 A 
HETATM   18  C   UNL     1      41.155 -11.006  -2.426  1.00  0.00     0.009 A 
ENDBRANCH   4  12
BRANCH   3  19
HETATM   19  C   UNL     1      42.209 -13.730   1.530  1.00  0.00     0.266 C 
HETATM   20  O   UNL     1      42.177 -14.942   1.351  1.00  0.00    -0.265 OA
BRANCH  19  21
HETATM   21  O   UNL     1      42.930 -13.111   2.501  1.00  0.00    -0.326 OA
HETATM   22  C   UNL     1      43.503 -13.993   3.466  1.00  0.00     0.213 C 
ENDBRANCH  19  21
ENDBRANCH   3  19
BRANCH   2  23
HETATM   23  O   UNL     1      39.674 -13.028   2.358  1.00  0.00    -0.389 OA
HETATM   24  H   UNL     1      39.612 -12.144   2.765  1.00  0.00     0.210 HD
ENDBRANCH   2  23
BRANCH  10  25
HETATM   25  O   UNL     1      42.017 -14.246  -3.794  1.00  0.00    -0.343 OA
HETATM   26  H   UNL     1      41.633 -13.692  -4.495  1.00  0.00     0.219 HD
ENDBRANCH  10  25
TORSDOF 5
ENDMDL
