MODEL 1
REMARK VINA RESULT:      -9.6      0.000      0.000
REMARK  4 active torsions:
REMARK  status: ('A' for Active; 'I' for Inactive)
REMARK    1  A    between atoms: C_8  and  C_9 
REMARK       I    between atoms: C_9  and  N_10 
REMARK    2  A    between atoms: N_10  and  C_11 
REMARK    3  A    between atoms: C_12  and  N_13 
REMARK    4  A    between atoms: C_16  and  O_17 
ROOT
HETATM    1  C   UNL     1      43.345 -14.024   3.683  1.00  0.00     0.256 C 
HETATM    2  N   UNL     1      42.709 -13.385   2.640  1.00  0.00    -0.321 N 
HETATM    3  O   UNL     1      43.978 -13.363   4.505  1.00  0.00    -0.267 OA
HETATM    4  H   UNL     1      43.064 -12.463   2.422  1.00  0.00     0.169 HD
ENDROOT
BRANCH   2   5
HETATM    5  C   UNL     1      41.675 -13.856   1.813  1.00  0.00     0.061 A 
HETATM    6  C   UNL     1      40.363 -14.028   2.327  1.00  0.00     0.057 A 
HETATM    7  C   UNL     1      39.432 -14.595   1.432  1.00  0.00     0.031 A 
HETATM    8  C   UNL     1      39.777 -15.003   0.136  1.00  0.00     0.002 A 
HETATM    9  C   UNL     1      41.074 -14.836  -0.325  1.00  0.00     0.002 A 
HETATM   10  C   UNL     1      42.018 -14.249   0.506  1.00  0.00     0.032 A 
BRANCH   6  11
HETATM   11  N   UNL     1      39.981 -13.657   3.615  1.00  0.00    -0.379 N 
HETATM   12  C   UNL     1      39.815 -14.645   4.685  1.00  0.00     0.125 C 
HETATM   13  C   UNL     1      40.547 -14.138   5.927  1.00  0.00     0.051 C 
HETATM   14  C   UNL     1      40.150 -12.709   6.308  1.00  0.00     0.121 C 
HETATM   15  C   UNL     1      40.118 -11.754   5.113  1.00  0.00     0.051 C 
HETATM   16  C   UNL     1      39.368 -12.360   3.928  1.00  0.00     0.125 C 
BRANCH  14  17
HETATM   17  O   UNL     1      38.891 -12.709   6.981  1.00  0.00    -0.395 OA
HETATM   18  H   UNL     1      38.435 -11.869   6.806  1.00  0.00     0.210 HD
ENDBRANCH  14  17
ENDBRANCH   6  11
ENDBRANCH   2   5
BRANCH   1  19
HETATM   19  C   UNL     1      43.423 -15.519   3.738  1.00  0.00     0.033 A 
HETATM   20  C   UNL     1      43.453 -16.303   2.576  1.00  0.00     0.025 A 
HETATM   21  C   UNL     1      43.644 -17.672   2.698  1.00  0.00    -0.042 A 
HETATM   22  C   UNL     1      43.844 -18.281   3.950  1.00  0.00    -0.019 A 
HETATM   23  C   UNL     1      43.699 -18.698   1.588  1.00  0.00     0.078 A 
HETATM   24  C   UNL     1      44.076 -19.695   3.740  1.00  0.00    -0.019 A 
HETATM   25  C   UNL     1      43.830 -17.518   5.106  1.00  0.00     0.014 A 
HETATM   26  C   UNL     1      43.995 -19.967   2.355  1.00  0.00    -0.043 A 
HETATM   27  C   UNL     1      44.366 -20.712   4.634  1.00  0.00     0.013 A 
HETATM   28  C   UNL     1      44.190 -21.240   1.849  1.00  0.00     0.008 A 
HETATM   29  C   UNL     1      44.480 -22.264   2.752  1.00  0.00     0.001 A 
HETATM   30  C   UNL     1      44.569 -22.002   4.130  1.00  0.00     0.001 A 
HETATM   31  C   UNL     1      43.617 -16.133   4.994  1.00  0.00     0.018 A 
ENDBRANCH   1  19
TORSDOF 4
ENDMDL
MODEL 2
REMARK VINA RESULT:      -9.4      3.673      5.827
REMARK  4 active torsions:
REMARK  status: ('A' for Active; 'I' for Inactive)
REMARK    1  A    between atoms: C_8  and  C_9 
REMARK       I    between atoms: C_9  and  N_10 
REMARK    2  A    between atoms: N_10  and  C_11 
REMARK    3  A    between atoms: C_12  and  N_13 
REMARK    4  A    between atoms: C_16  and  O_17 
ROOT
HETATM    1  C   UNL     1      38.996 -14.042   0.470  1.00  0.00     0.256 C 
HETATM    2  N   UNL     1      39.303 -12.791  -0.021  1.00  0.00    -0.321 N 
HETATM    3  O   UNL     1      37.821 -14.345   0.671  1.00  0.00    -0.267 OA
HETATM    4  H   UNL     1      38.589 -12.088   0.120  1.00  0.00     0.169 HD
ENDROOT
BRANCH   2   5
HETATM    5  C   UNL     1      40.483 -12.350  -0.644  1.00  0.00     0.061 A 
HETATM    6  C   UNL     1      40.757 -12.693  -1.994  1.00  0.00     0.057 A 
HETATM    7  C   UNL     1      42.012 -12.276  -2.482  1.00  0.00     0.031 A 
HETATM    8  C   UNL     1      42.950 -11.605  -1.685  1.00  0.00     0.002 A 
HETATM    9  C   UNL     1      42.655 -11.303  -0.365  1.00  0.00     0.002 A 
HETATM   10  C   UNL     1      41.417 -11.662   0.152  1.00  0.00     0.032 A 
BRANCH   6  11
HETATM   11  N   UNL     1      39.863 -13.377  -2.816  1.00  0.00    -0.379 N 
HETATM   12  C   UNL     1      40.283 -14.525  -3.626  1.00  0.00     0.125 C 
HETATM   13  C   UNL     1      39.273 -15.654  -3.424  1.00  0.00     0.051 C 
HETATM   14  C   UNL     1      37.828 -15.205  -3.651  1.00  0.00     0.121 C 
HETATM   15  C   UNL     1      37.494 -13.878  -2.967  1.00  0.00     0.051 C 
HETATM   16  C   UNL     1      38.568 -12.823  -3.230  1.00  0.00     0.125 C 
BRANCH  14  17
HETATM   17  O   UNL     1      37.547 -15.130  -5.049  1.00  0.00    -0.395 OA
HETATM   18  H   UNL     1      36.591 -15.016  -5.177  1.00  0.00     0.210 HD
ENDBRANCH  14  17
ENDBRANCH   6  11
ENDBRANCH   2   5
BRANCH   1  19
HETATM   19  C   UNL     1      40.075 -14.977   0.925  1.00  0.00     0.033 A 
HETATM   20  C   UNL     1      40.240 -15.317   2.275  1.00  0.00     0.025 A 
HETATM   21  C   UNL     1      41.183 -16.278   2.611  1.00  0.00    -0.042 A 
HETATM   22  C   UNL     1      41.944 -16.941   1.632  1.00  0.00    -0.019 A 
HETATM   23  C   UNL     1      41.530 -16.785   3.994  1.00  0.00     0.078 A 
HETATM   24  C   UNL     1      42.782 -17.923   2.289  1.00  0.00    -0.019 A 
HETATM   25  C   UNL     1      41.782 -16.626   0.292  1.00  0.00     0.014 A 
HETATM   26  C   UNL     1      42.557 -17.850   3.683  1.00  0.00    -0.043 A 
HETATM   27  C   UNL     1      43.670 -18.851   1.774  1.00  0.00     0.013 A 
HETATM   28  C   UNL     1      43.213 -18.684   4.572  1.00  0.00     0.008 A 
HETATM   29  C   UNL     1      44.109 -19.618   4.051  1.00  0.00     0.001 A 
HETATM   30  C   UNL     1      44.334 -19.702   2.666  1.00  0.00     0.001 A 
HETATM   31  C   UNL     1      40.844 -15.639  -0.056  1.00  0.00     0.018 A 
ENDBRANCH   1  19
TORSDOF 4
ENDMDL
MODEL 3
REMARK VINA RESULT:      -9.0      2.151      3.743
REMARK  4 active torsions:
REMARK  status: ('A' for Active; 'I' for Inactive)
REMARK    1  A    between atoms: C_8  and  C_9 
REMARK       I    between atoms: C_9  and  N_10 
REMARK    2  A    between atoms: N_10  and  C_11 
REMARK    3  A    between atoms: C_12  and  N_13 
REMARK    4  A    between atoms: C_16  and  O_17 
ROOT
HETATM    1  C   UNL     1      43.322 -14.040   3.175  1.00  0.00     0.256 C 
HETATM    2  N   UNL     1      42.386 -13.481   2.331  1.00  0.00    -0.321 N 
HETATM    3  O   UNL     1      44.194 -13.328   3.672  1.00  0.00    -0.267 OA
HETATM    4  H   UNL     1      42.658 -12.601   1.911  1.00  0.00     0.169 HD
ENDROOT
BRANCH   2   5
HETATM    5  C   UNL     1      41.136 -13.987   1.938  1.00  0.00     0.061 A 
HETATM    6  C   UNL     1      40.510 -13.523   0.751  1.00  0.00     0.057 A 
HETATM    7  C   UNL     1      39.218 -14.032   0.508  1.00  0.00     0.031 A 
HETATM    8  C   UNL     1      38.569 -14.904   1.392  1.00  0.00     0.002 A 
HETATM    9  C   UNL     1      39.203 -15.322   2.552  1.00  0.00     0.002 A 
HETATM   10  C   UNL     1      40.491 -14.877   2.817  1.00  0.00     0.032 A 
BRANCH   6  11
HETATM   11  N   UNL     1      41.110 -12.640  -0.146  1.00  0.00    -0.379 N 
HETATM   12  C   UNL     1      41.112 -11.192   0.083  1.00  0.00     0.125 C 
HETATM   13  C   UNL     1      42.531 -10.670  -0.138  1.00  0.00     0.051 C 
HETATM   14  C   UNL     1      43.123 -11.107  -1.480  1.00  0.00     0.121 C 
HETATM   15  C   UNL     1      42.900 -12.590  -1.782  1.00  0.00     0.051 C 
HETATM   16  C   UNL     1      41.453 -13.006  -1.525  1.00  0.00     0.125 C 
BRANCH  14  17
HETATM   17  O   UNL     1      42.603 -10.299  -2.536  1.00  0.00    -0.395 OA
HETATM   18  H   UNL     1      42.057  -9.591  -2.157  1.00  0.00     0.210 HD
ENDBRANCH  14  17
ENDBRANCH   6  11
ENDBRANCH   2   5
BRANCH   1  19
HETATM   19  C   UNL     1      43.402 -15.524   3.364  1.00  0.00     0.033 A 
HETATM   20  C   UNL     1      43.521 -16.404   2.278  1.00  0.00     0.025 A 
HETATM   21  C   UNL     1      43.707 -17.754   2.531  1.00  0.00    -0.042 A 
HETATM   22  C   UNL     1      43.817 -18.253   3.842  1.00  0.00    -0.019 A 
HETATM   23  C   UNL     1      43.849 -18.871   1.519  1.00  0.00     0.078 A 
HETATM   24  C   UNL     1      44.070 -19.677   3.771  1.00  0.00    -0.019 A 
HETATM   25  C   UNL     1      43.715 -17.394   4.924  1.00  0.00     0.014 A 
HETATM   26  C   UNL     1      44.093 -20.067   2.412  1.00  0.00    -0.043 A 
HETATM   27  C   UNL     1      44.297 -20.611   4.767  1.00  0.00     0.013 A 
HETATM   28  C   UNL     1      44.330 -21.377   2.033  1.00  0.00     0.008 A 
HETATM   29  C   UNL     1      44.556 -22.317   3.039  1.00  0.00     0.001 A 
HETATM   30  C   UNL     1      44.542 -21.937   4.392  1.00  0.00     0.001 A 
HETATM   31  C   UNL     1      43.505 -16.026   4.678  1.00  0.00     0.018 A 
ENDBRANCH   1  19
TORSDOF 4
ENDMDL
MODEL 4
REMARK VINA RESULT:      -8.9      2.318      3.735
REMARK  4 active torsions:
REMARK  status: ('A' for Active; 'I' for Inactive)
REMARK    1  A    between atoms: C_8  and  C_9 
REMARK       I    between atoms: C_9  and  N_10 
REMARK    2  A    between atoms: N_10  and  C_11 
REMARK    3  A    between atoms: C_12  and  N_13 
REMARK    4  A    between atoms: C_16  and  O_17 
ROOT
HETATM    1  C   UNL     1      39.271 -15.014   1.204  1.00  0.00     0.256 C 
HETATM    2  N   UNL     1      39.500 -13.889   0.440  1.00  0.00    -0.321 N 
HETATM    3  O   UNL     1      38.143 -15.229   1.646  1.00  0.00    -0.267 OA
HETATM    4  H   UNL     1      38.824 -13.146   0.557  1.00  0.00     0.169 HD
ENDROOT
BRANCH   2   5
HETATM    5  C   UNL     1      40.565 -13.618  -0.437  1.00  0.00     0.061 A 
HETATM    6  C   UNL     1      41.540 -12.640  -0.106  1.00  0.00     0.057 A 
HETATM    7  C   UNL     1      42.505 -12.386  -1.101  1.00  0.00     0.031 A 
HETATM    8  C   UNL     1      42.489 -13.020  -2.352  1.00  0.00     0.002 A 
HETATM    9  C   UNL     1      41.510 -13.956  -2.646  1.00  0.00     0.002 A 
HETATM   10  C   UNL     1      40.558 -14.267  -1.685  1.00  0.00     0.032 A 
BRANCH   6  11
HETATM   11  N   UNL     1      41.581 -11.971   1.116  1.00  0.00    -0.379 N 
HETATM   12  C   UNL     1      41.374 -10.522   1.210  1.00  0.00     0.125 C 
HETATM   13  C   UNL     1      40.371 -10.250   2.330  1.00  0.00     0.051 C 
HETATM   14  C   UNL     1      40.752 -10.928   3.648  1.00  0.00     0.121 C 
HETATM   15  C   UNL     1      41.180 -12.387   3.473  1.00  0.00     0.051 C 
HETATM   16  C   UNL     1      42.179 -12.547   2.327  1.00  0.00     0.125 C 
BRANCH  14  17
HETATM   17  O   UNL     1      41.776 -10.184   4.309  1.00  0.00    -0.395 OA
HETATM   18  H   UNL     1      42.623 -10.650   4.212  1.00  0.00     0.210 HD
ENDBRANCH  14  17
ENDBRANCH   6  11
ENDBRANCH   2   5
BRANCH   1  19
HETATM   19  C   UNL     1      40.404 -15.887   1.649  1.00  0.00     0.033 A 
HETATM   20  C   UNL     1      40.706 -16.075   3.006  1.00  0.00     0.025 A 
HETATM   21  C   UNL     1      41.692 -16.988   3.350  1.00  0.00    -0.042 A 
HETATM   22  C   UNL     1      42.364 -17.752   2.378  1.00  0.00    -0.019 A 
HETATM   23  C   UNL     1      42.181 -17.337   4.739  1.00  0.00     0.078 A 
HETATM   24  C   UNL     1      43.278 -18.650   3.053  1.00  0.00    -0.019 A 
HETATM   25  C   UNL     1      42.067 -17.588   1.035  1.00  0.00     0.014 A 
HETATM   26  C   UNL     1      43.190 -18.425   4.446  1.00  0.00    -0.043 A 
HETATM   27  C   UNL     1      44.125 -19.626   2.558  1.00  0.00     0.013 A 
HETATM   28  C   UNL     1      43.942 -19.152   5.352  1.00  0.00     0.008 A 
HETATM   29  C   UNL     1      44.798 -20.134   4.850  1.00  0.00     0.001 A 
HETATM   30  C   UNL     1      44.887 -20.370   3.467  1.00  0.00     0.001 A 
HETATM   31  C   UNL     1      41.083 -16.650   0.675  1.00  0.00     0.018 A 
ENDBRANCH   1  19
TORSDOF 4
ENDMDL
MODEL 5
REMARK VINA RESULT:      -8.8      3.614      5.991
REMARK  4 active torsions:
REMARK  status: ('A' for Active; 'I' for Inactive)
REMARK    1  A    between atoms: C_8  and  C_9 
REMARK       I    between atoms: C_9  and  N_10 
REMARK    2  A    between atoms: N_10  and  C_11 
REMARK    3  A    between atoms: C_12  and  N_13 
REMARK    4  A    between atoms: C_16  and  O_17 
ROOT
HETATM    1  C   UNL     1      38.561 -13.813   0.117  1.00  0.00     0.256 C 
HETATM    2  N   UNL     1      39.042 -12.671  -0.488  1.00  0.00    -0.321 N 
HETATM    3  O   UNL     1      37.373 -14.109  -0.001  1.00  0.00    -0.267 OA
HETATM    4  H   UNL     1      38.341 -11.978  -0.714  1.00  0.00     0.169 HD
ENDROOT
BRANCH   2   5
HETATM    5  C   UNL     1      40.370 -12.321  -0.788  1.00  0.00     0.061 A 
HETATM    6  C   UNL     1      41.046 -12.928  -1.879  1.00  0.00     0.057 A 
HETATM    7  C   UNL     1      42.402 -12.569  -2.026  1.00  0.00     0.031 A 
HETATM    8  C   UNL     1      43.058 -11.707  -1.137  1.00  0.00     0.002 A 
HETATM    9  C   UNL     1      42.370 -11.148  -0.071  1.00  0.00     0.002 A 
HETATM   10  C   UNL     1      41.023 -11.442   0.095  1.00  0.00     0.032 A 
BRANCH   6  11
HETATM   11  N   UNL     1      40.439 -13.806  -2.774  1.00  0.00    -0.379 N 
HETATM   12  C   UNL     1      41.103 -15.036  -3.219  1.00  0.00     0.125 C 
HETATM   13  C   UNL     1      40.110 -16.191  -3.097  1.00  0.00     0.051 C 
HETATM   14  C   UNL     1      38.774 -15.901  -3.785  1.00  0.00     0.121 C 
HETATM   15  C   UNL     1      38.223 -14.509  -3.468  1.00  0.00     0.051 C 
HETATM   16  C   UNL     1      39.296 -13.432  -3.616  1.00  0.00     0.125 C 
BRANCH  14  17
HETATM   17  O   UNL     1      38.895 -16.081  -5.196  1.00  0.00    -0.395 OA
HETATM   18  H   UNL     1      39.210 -16.981  -5.378  1.00  0.00     0.210 HD
ENDBRANCH  14  17
ENDBRANCH   6  11
ENDBRANCH   2   5
BRANCH   1  19
HETATM   19  C   UNL     1      39.418 -14.607   1.055  1.00  0.00     0.033 A 
HETATM   20  C   UNL     1      40.241 -15.649   0.605  1.00  0.00     0.025 A 
HETATM   21  C   UNL     1      41.095 -16.264   1.509  1.00  0.00    -0.042 A 
HETATM   22  C   UNL     1      41.180 -15.844   2.849  1.00  0.00    -0.019 A 
HETATM   23  C   UNL     1      42.053 -17.404   1.243  1.00  0.00     0.078 A 
HETATM   24  C   UNL     1      42.197 -16.632   3.513  1.00  0.00    -0.019 A 
HETATM   25  C   UNL     1      40.382 -14.807   3.305  1.00  0.00     0.014 A 
HETATM   26  C   UNL     1      42.727 -17.560   2.587  1.00  0.00    -0.043 A 
HETATM   27  C   UNL     1      42.688 -16.579   4.806  1.00  0.00     0.013 A 
HETATM   28  C   UNL     1      43.734 -18.444   2.936  1.00  0.00     0.008 A 
HETATM   29  C   UNL     1      44.226 -18.390   4.241  1.00  0.00     0.001 A 
HETATM   30  C   UNL     1      43.710 -17.466   5.166  1.00  0.00     0.001 A 
HETATM   31  C   UNL     1      39.499 -14.191   2.401  1.00  0.00     0.018 A 
ENDBRANCH   1  19
TORSDOF 4
ENDMDL
MODEL 6
REMARK VINA RESULT:      -8.2      3.130      7.152
REMARK  4 active torsions:
REMARK  status: ('A' for Active; 'I' for Inactive)
REMARK    1  A    between atoms: C_8  and  C_9 
REMARK       I    between atoms: C_9  and  N_10 
REMARK    2  A    between atoms: N_10  and  C_11 
REMARK    3  A    between atoms: C_12  and  N_13 
REMARK    4  A    between atoms: C_16  and  O_17 
ROOT
HETATM    1  C   UNL     1      39.538 -14.943   1.432  1.00  0.00     0.256 C 
HETATM    2  N   UNL     1      40.105 -16.141   1.813  1.00  0.00    -0.321 N 
HETATM    3  O   UNL     1      38.378 -14.690   1.754  1.00  0.00    -0.267 OA
HETATM    4  H   UNL     1      39.446 -16.872   2.045  1.00  0.00     0.169 HD
ENDROOT
BRANCH   2   5
HETATM    5  C   UNL     1      41.463 -16.497   1.874  1.00  0.00     0.061 A 
HETATM    6  C   UNL     1      42.307 -15.950   2.877  1.00  0.00     0.057 A 
HETATM    7  C   UNL     1      43.668 -16.304   2.783  1.00  0.00     0.031 A 
HETATM    8  C   UNL     1      44.172 -17.108   1.751  1.00  0.00     0.002 A 
HETATM    9  C   UNL     1      43.321 -17.609   0.778  1.00  0.00     0.002 A 
HETATM   10  C   UNL     1      41.966 -17.317   0.848  1.00  0.00     0.032 A 
BRANCH   6  11
HETATM   11  N   UNL     1      41.852 -15.130   3.908  1.00  0.00    -0.379 N 
HETATM   12  C   UNL     1      42.500 -13.852   4.222  1.00  0.00     0.125 C 
HETATM   13  C   UNL     1      41.418 -12.783   4.357  1.00  0.00     0.051 C 
HETATM   14  C   UNL     1      40.301 -13.187   5.322  1.00  0.00     0.121 C 
HETATM   15  C   UNL     1      39.804 -14.617   5.104  1.00  0.00     0.051 C 
HETATM   16  C   UNL     1      40.965 -15.603   4.978  1.00  0.00     0.125 C 
BRANCH  14  17
HETATM   17  O   UNL     1      40.726 -13.007   6.674  1.00  0.00    -0.395 OA
HETATM   18  H   UNL     1      40.223 -12.278   7.072  1.00  0.00     0.210 HD
ENDBRANCH  14  17
ENDBRANCH   6  11
ENDBRANCH   2   5
BRANCH   1  19
HETATM   19  C   UNL     1      40.249 -14.018   0.491  1.00  0.00     0.033 A 
HETATM   20  C   UNL     1      40.325 -14.276  -0.885  1.00  0.00     0.025 A 
HETATM   21  C   UNL     1      40.895 -13.321  -1.713  1.00  0.00    -0.042 A 
HETATM   22  C   UNL     1      41.362 -12.092  -1.212  1.00  0.00    -0.019 A 
HETATM   23  C   UNL     1      41.086 -13.396  -3.212  1.00  0.00     0.078 A 
HETATM   24  C   UNL     1      41.836 -11.293  -2.323  1.00  0.00    -0.019 A 
HETATM   25  C   UNL     1      41.282 -11.817   0.144  1.00  0.00     0.014 A 
HETATM   26  C   UNL     1      41.685 -12.040  -3.515  1.00  0.00    -0.043 A 
HETATM   27  C   UNL     1      42.344 -10.007  -2.367  1.00  0.00     0.013 A 
HETATM   28  C   UNL     1      42.043 -11.525  -4.748  1.00  0.00     0.008 A 
HETATM   29  C   UNL     1      42.557 -10.228  -4.790  1.00  0.00     0.001 A 
HETATM   30  C   UNL     1      42.704  -9.476  -3.611  1.00  0.00     0.001 A 
HETATM   31  C   UNL     1      40.724 -12.788   0.994  1.00  0.00     0.018 A 
ENDBRANCH   1  19
TORSDOF 4
ENDMDL
MODEL 7
REMARK VINA RESULT:      -8.1      2.515      6.801
REMARK  4 active torsions:
REMARK  status: ('A' for Active; 'I' for Inactive)
REMARK    1  A    between atoms: C_8  and  C_9 
REMARK       I    between atoms: C_9  and  N_10 
REMARK    2  A    between atoms: N_10  and  C_11 
REMARK    3  A    between atoms: C_12  and  N_13 
REMARK    4  A    between atoms: C_16  and  O_17 
ROOT
HETATM    1  C   UNL     1      39.986 -14.621   3.586  1.00  0.00     0.256 C 
HETATM    2  N   UNL     1      40.436 -15.895   3.860  1.00  0.00    -0.321 N 
HETATM    3  O   UNL     1      39.303 -14.026   4.419  1.00  0.00    -0.267 OA
HETATM    4  H   UNL     1      39.917 -16.390   4.574  1.00  0.00     0.169 HD
ENDROOT
BRANCH   2   5
HETATM    5  C   UNL     1      41.481 -16.613   3.253  1.00  0.00     0.061 A 
HETATM    6  C   UNL     1      42.808 -16.512   3.748  1.00  0.00     0.057 A 
HETATM    7  C   UNL     1      43.786 -17.202   3.003  1.00  0.00     0.031 A 
HETATM    8  C   UNL     1      43.487 -17.908   1.829  1.00  0.00     0.002 A 
HETATM    9  C   UNL     1      42.182 -17.969   1.366  1.00  0.00     0.002 A 
HETATM   10  C   UNL     1      41.177 -17.336   2.085  1.00  0.00     0.032 A 
BRANCH   6  11
HETATM   11  N   UNL     1      43.153 -15.804   4.898  1.00  0.00    -0.379 N 
HETATM   12  C   UNL     1      43.025 -16.394   6.235  1.00  0.00     0.125 C 
HETATM   13  C   UNL     1      44.323 -16.139   7.000  1.00  0.00     0.051 C 
HETATM   14  C   UNL     1      44.741 -14.667   6.988  1.00  0.00     0.121 C 
HETATM   15  C   UNL     1      44.645 -14.025   5.602  1.00  0.00     0.051 C 
HETATM   16  C   UNL     1      43.313 -14.345   4.924  1.00  0.00     0.125 C 
BRANCH  14  17
HETATM   17  O   UNL     1      43.972 -13.926   7.935  1.00  0.00    -0.395 OA
HETATM   18  H   UNL     1      43.064 -13.830   7.603  1.00  0.00     0.210 HD
ENDBRANCH  14  17
ENDBRANCH   6  11
ENDBRANCH   2   5
BRANCH   1  19
HETATM   19  C   UNL     1      40.168 -14.014   2.228  1.00  0.00     0.033 A 
HETATM   20  C   UNL     1      41.231 -13.147   1.941  1.00  0.00     0.025 A 
HETATM   21  C   UNL     1      41.406 -12.715   0.634  1.00  0.00    -0.042 A 
HETATM   22  C   UNL     1      40.570 -13.155  -0.408  1.00  0.00    -0.019 A 
HETATM   23  C   UNL     1      42.470 -11.778   0.108  1.00  0.00     0.078 A 
HETATM   24  C   UNL     1      41.046 -12.583  -1.650  1.00  0.00    -0.019 A 
HETATM   25  C   UNL     1      39.523 -14.023  -0.142  1.00  0.00     0.014 A 
HETATM   26  C   UNL     1      42.166 -11.766  -1.373  1.00  0.00    -0.043 A 
HETATM   27  C   UNL     1      40.603 -12.740  -2.952  1.00  0.00     0.013 A 
HETATM   28  C   UNL     1      42.845 -11.095  -2.376  1.00  0.00     0.008 A 
HETATM   29  C   UNL     1      42.396 -11.254  -3.688  1.00  0.00     0.001 A 
HETATM   30  C   UNL     1      41.287 -12.070  -3.973  1.00  0.00     0.001 A 
HETATM   31  C   UNL     1      39.326 -14.450   1.183  1.00  0.00     0.018 A 
ENDBRANCH   1  19
TORSDOF 4
ENDMDL
MODEL 8
REMARK VINA RESULT:      -8.0      3.662      5.828
REMARK  4 active torsions:
REMARK  status: ('A' for Active; 'I' for Inactive)
REMARK    1  A    between atoms: C_8  and  C_9 
REMARK       I    between atoms: C_9  and  N_10 
REMARK    2  A    between atoms: N_10  and  C_11 
REMARK    3  A    between atoms: C_12  and  N_13 
REMARK    4  A    between atoms: C_16  and  O_17 
ROOT
HETATM    1  C   UNL     1      40.748 -15.139  -1.655  1.00  0.00     0.256 C 
HETATM    2  N   UNL     1      39.581 -14.440  -1.878  1.00  0.00    -0.321 N 
HETATM    3  O   UNL     1      41.368 -15.606  -2.609  1.00  0.00    -0.267 OA
HETATM    4  H   UNL     1      39.131 -14.628  -2.765  1.00  0.00     0.169 HD
ENDROOT
BRANCH   2   5
HETATM    5  C   UNL     1      38.910 -13.545  -1.028  1.00  0.00     0.061 A 
HETATM    6  C   UNL     1      39.278 -12.174  -0.988  1.00  0.00     0.057 A 
HETATM    7  C   UNL     1      38.601 -11.392  -0.031  1.00  0.00     0.031 A 
HETATM    8  C   UNL     1      37.656 -11.928   0.855  1.00  0.00     0.002 A 
HETATM    9  C   UNL     1      37.335 -13.276   0.800  1.00  0.00     0.002 A 
HETATM   10  C   UNL     1      37.949 -14.081  -0.150  1.00  0.00     0.032 A 
BRANCH   6  11
HETATM   11  N   UNL     1      40.227 -11.603  -1.835  1.00  0.00    -0.379 N 
HETATM   12  C   UNL     1      41.590 -11.309  -1.381  1.00  0.00     0.125 C 
HETATM   13  C   UNL     1      42.571 -11.843  -2.424  1.00  0.00     0.051 C 
HETATM   14  C   UNL     1      42.252 -11.362  -3.841  1.00  0.00     0.121 C 
HETATM   15  C   UNL     1      40.768 -11.478  -4.197  1.00  0.00     0.051 C 
HETATM   16  C   UNL     1      39.877 -10.921  -3.087  1.00  0.00     0.125 C 
BRANCH  14  17
HETATM   17  O   UNL     1      42.704 -10.019  -4.021  1.00  0.00    -0.395 OA
HETATM   18  H   UNL     1      43.627  -9.951  -3.727  1.00  0.00     0.210 HD
ENDBRANCH  14  17
ENDBRANCH   6  11
ENDBRANCH   2   5
BRANCH   1  19
HETATM   19  C   UNL     1      41.184 -15.487  -0.265  1.00  0.00     0.033 A 
HETATM   20  C   UNL     1      41.435 -16.811   0.123  1.00  0.00     0.025 A 
HETATM   21  C   UNL     1      41.948 -17.050   1.390  1.00  0.00    -0.042 A 
HETATM   22  C   UNL     1      42.256 -15.999   2.273  1.00  0.00    -0.019 A 
HETATM   23  C   UNL     1      42.281 -18.388   2.012  1.00  0.00     0.078 A 
HETATM   24  C   UNL     1      42.830 -16.565   3.477  1.00  0.00    -0.019 A 
HETATM   25  C   UNL     1      42.026 -14.685   1.899  1.00  0.00     0.014 A 
HETATM   26  C   UNL     1      42.855 -17.973   3.348  1.00  0.00    -0.043 A 
HETATM   27  C   UNL     1      43.332 -15.960   4.615  1.00  0.00     0.013 A 
HETATM   28  C   UNL     1      43.367 -18.786   4.344  1.00  0.00     0.008 A 
HETATM   29  C   UNL     1      43.871 -18.174   5.493  1.00  0.00     0.001 A 
HETATM   30  C   UNL     1      43.856 -16.775   5.626  1.00  0.00     0.001 A 
HETATM   31  C   UNL     1      41.486 -14.434   0.625  1.00  0.00     0.018 A 
ENDBRANCH   1  19
TORSDOF 4
ENDMDL
MODEL 9
REMARK VINA RESULT:      -7.9      2.998      5.196
REMARK  4 active torsions:
REMARK  status: ('A' for Active; 'I' for Inactive)
REMARK    1  A    between atoms: C_8  and  C_9 
REMARK       I    between atoms: C_9  and  N_10 
REMARK    2  A    between atoms: N_10  and  C_11 
REMARK    3  A    between atoms: C_12  and  N_13 
REMARK    4  A    between atoms: C_16  and  O_17 
ROOT
HETATM    1  C   UNL     1      38.319 -12.864   0.886  1.00  0.00     0.256 C 
HETATM    2  N   UNL     1      38.427 -12.560  -0.454  1.00  0.00    -0.321 N 
HETATM    3  O   UNL     1      37.576 -12.196   1.604  1.00  0.00    -0.267 OA
HETATM    4  H   UNL     1      38.152 -11.619  -0.703  1.00  0.00     0.169 HD
ENDROOT
BRANCH   2   5
HETATM    5  C   UNL     1      38.909 -13.357  -1.506  1.00  0.00     0.061 A 
HETATM    6  C   UNL     1      40.213 -13.150  -2.029  1.00  0.00     0.057 A 
HETATM    7  C   UNL     1      40.552 -13.944  -3.143  1.00  0.00     0.031 A 
HETATM    8  C   UNL     1      39.657 -14.851  -3.728  1.00  0.00     0.002 A 
HETATM    9  C   UNL     1      38.385 -15.013  -3.201  1.00  0.00     0.002 A 
HETATM   10  C   UNL     1      38.016 -14.279  -2.082  1.00  0.00     0.032 A 
BRANCH   6  11
HETATM   11  N   UNL     1      41.127 -12.245  -1.492  1.00  0.00    -0.379 N 
HETATM   12  C   UNL     1      41.461 -10.990  -2.173  1.00  0.00     0.125 C 
HETATM   13  C   UNL     1      41.389  -9.854  -1.153  1.00  0.00     0.051 C 
HETATM   14  C   UNL     1      42.208 -10.135   0.108  1.00  0.00     0.121 C 
HETATM   15  C   UNL     1      41.997 -11.546   0.662  1.00  0.00     0.051 C 
HETATM   16  C   UNL     1      42.085 -12.602  -0.438  1.00  0.00     0.125 C 
BRANCH  14  17
HETATM   17  O   UNL     1      43.594  -9.899  -0.139  1.00  0.00    -0.395 OA
HETATM   18  H   UNL     1      43.906  -9.187   0.444  1.00  0.00     0.210 HD
ENDBRANCH  14  17
ENDBRANCH   6  11
ENDBRANCH   2   5
BRANCH   1  19
HETATM   19  C   UNL     1      39.217 -13.883   1.520  1.00  0.00     0.033 A 
HETATM   20  C   UNL     1      39.556 -15.078   0.871  1.00  0.00     0.025 A 
HETATM   21  C   UNL     1      40.484 -15.921   1.465  1.00  0.00    -0.042 A 
HETATM   22  C   UNL     1      41.116 -15.587   2.676  1.00  0.00    -0.019 A 
HETATM   23  C   UNL     1      40.983 -17.252   0.948  1.00  0.00     0.078 A 
HETATM   24  C   UNL     1      42.070 -16.629   2.998  1.00  0.00    -0.019 A 
HETATM   25  C   UNL     1      40.802 -14.403   3.323  1.00  0.00     0.014 A 
HETATM   26  C   UNL     1      42.010 -17.623   1.994  1.00  0.00    -0.043 A 
HETATM   27  C   UNL     1      42.964 -16.751   4.047  1.00  0.00     0.013 A 
HETATM   28  C   UNL     1      42.824 -18.742   2.028  1.00  0.00     0.008 A 
HETATM   29  C   UNL     1      43.724 -18.864   3.087  1.00  0.00     0.001 A 
HETATM   30  C   UNL     1      43.795 -17.877   4.086  1.00  0.00     0.001 A 
HETATM   31  C   UNL     1      39.847 -13.553   2.739  1.00  0.00     0.018 A 
ENDBRANCH   1  19
TORSDOF 4
ENDMDL
MODEL 10
REMARK VINA RESULT:      -7.9      2.250      4.320
REMARK  4 active torsions:
REMARK  status: ('A' for Active; 'I' for Inactive)
REMARK    1  A    between atoms: C_8  and  C_9 
REMARK       I    between atoms: C_9  and  N_10 
REMARK    2  A    between atoms: N_10  and  C_11 
REMARK    3  A    between atoms: C_12  and  N_13 
REMARK    4  A    between atoms: C_16  and  O_17 
ROOT
HETATM    1  C   UNL     1      39.182 -14.563   2.272  1.00  0.00     0.256 C 
HETATM    2  N   UNL     1      38.926 -13.426   3.009  1.00  0.00    -0.321 N 
HETATM    3  O   UNL     1      38.542 -14.777   1.243  1.00  0.00    -0.267 OA
HETATM    4  H   UNL     1      38.020 -13.006   2.850  1.00  0.00     0.169 HD
ENDROOT
BRANCH   2   5
HETATM    5  C   UNL     1      39.728 -12.803   3.981  1.00  0.00     0.061 A 
HETATM    6  C   UNL     1      40.958 -12.193   3.618  1.00  0.00     0.057 A 
HETATM    7  C   UNL     1      41.721 -11.684   4.688  1.00  0.00     0.031 A 
HETATM    8  C   UNL     1      41.323 -11.804   6.027  1.00  0.00     0.002 A 
HETATM    9  C   UNL     1      40.124 -12.423   6.345  1.00  0.00     0.002 A 
HETATM   10  C   UNL     1      39.320 -12.909   5.323  1.00  0.00     0.032 A 
BRANCH   6  11
HETATM   11  N   UNL     1      41.402 -12.071   2.302  1.00  0.00    -0.379 N 
HETATM   12  C   UNL     1      42.471 -12.921   1.767  1.00  0.00     0.125 C 
HETATM   13  C   UNL     1      42.018 -13.471   0.416  1.00  0.00     0.051 C 
HETATM   14  C   UNL     1      41.532 -12.378  -0.539  1.00  0.00     0.121 C 
HETATM   15  C   UNL     1      40.587 -11.375   0.126  1.00  0.00     0.051 C 
HETATM   16  C   UNL     1      41.131 -10.893   1.470  1.00  0.00     0.125 C 
BRANCH  14  17
HETATM   17  O   UNL     1      42.645 -11.702  -1.124  1.00  0.00    -0.395 OA
HETATM   18  H   UNL     1      42.886 -12.145  -1.955  1.00  0.00     0.210 HD
ENDBRANCH  14  17
ENDBRANCH   6  11
ENDBRANCH   2   5
BRANCH   1  19
HETATM   19  C   UNL     1      40.102 -15.626   2.789  1.00  0.00     0.033 A 
HETATM   20  C   UNL     1      40.746 -16.529   1.932  1.00  0.00     0.025 A 
HETATM   21  C   UNL     1      41.674 -17.411   2.466  1.00  0.00    -0.042 A 
HETATM   22  C   UNL     1      42.010 -17.394   3.832  1.00  0.00    -0.019 A 
HETATM   23  C   UNL     1      42.471 -18.467   1.732  1.00  0.00     0.078 A 
HETATM   24  C   UNL     1      43.045 -18.380   4.063  1.00  0.00    -0.019 A 
HETATM   25  C   UNL     1      41.392 -16.498   4.689  1.00  0.00     0.014 A 
HETATM   26  C   UNL     1      43.335 -19.027   2.840  1.00  0.00    -0.043 A 
HETATM   27  C   UNL     1      43.738 -18.718   5.212  1.00  0.00     0.013 A 
HETATM   28  C   UNL     1      44.301 -20.014   2.748  1.00  0.00     0.008 A 
HETATM   29  C   UNL     1      44.998 -20.355   3.908  1.00  0.00     0.001 A 
HETATM   30  C   UNL     1      44.721 -19.712   5.127  1.00  0.00     0.001 A 
HETATM   31  C   UNL     1      40.434 -15.614   4.161  1.00  0.00     0.018 A 
ENDBRANCH   1  19
TORSDOF 4
ENDMDL
