MODEL 1
REMARK VINA RESULT:      -8.9      0.000      0.000
REMARK  9 active torsions:
REMARK  status: ('A' for Active; 'I' for Inactive)
REMARK    1  A    between atoms: C_2  and  C_3 
REMARK    2  A    between atoms: C_3  and  C_4 
REMARK    3  A    between atoms: C_4  and  O_5 
REMARK    4  A    between atoms: O_5  and  C_6 
REMARK    5  A    between atoms: C_8  and  C_9 
REMARK       I    between atoms: C_9  and  N_10 
REMARK    6  A    between atoms: N_10  and  C_11 
REMARK    7  A    between atoms: N_12  and  C_13 
REMARK    8  A    between atoms: C_15  and  C_16 
REMARK    9  A    between atoms: C_25  and  O_26 
ROOT
HETATM    1  C   UNL     1      40.441 -13.052   3.917  1.00  0.00     0.179 C 
HETATM    2  N   UNL     1      41.473 -13.836   3.537  1.00  0.00    -0.333 N 
HETATM    3  S   UNL     1      39.213 -12.765   2.813  1.00  0.00    -0.040 SA
HETATM    4  H   UNL     1      41.534 -13.939   2.529  1.00  0.00     0.168 HD
ENDROOT
BRANCH   2   5
HETATM    5  C   UNL     1      42.361 -14.656   4.264  1.00  0.00     0.035 A 
HETATM    6  C   UNL     1      42.766 -15.926   3.854  1.00  0.00     0.048 A 
HETATM    7  C   UNL     1      43.609 -16.720   4.651  1.00  0.00     0.053 A 
HETATM    8  C   UNL     1      44.126 -16.168   5.836  1.00  0.00     0.086 A 
HETATM    9  C   UNL     1      43.791 -14.867   6.234  1.00  0.00    -0.026 A 
HETATM   10  C   UNL     1      44.387 -14.250   7.467  1.00  0.00     0.051 C 
HETATM   11  C   UNL     1      42.908 -14.123   5.437  1.00  0.00     0.039 A 
BRANCH   7  12
HETATM   12  C   UNL     1      43.909 -18.098   4.272  1.00  0.00     0.183 A 
HETATM   13  O   UNL     1      43.610 -18.477   2.988  1.00  0.00    -0.289 OA
HETATM   14  C   UNL     1      43.909 -19.807   2.960  1.00  0.00     0.106 A 
HETATM   15  C   UNL     1      44.381 -20.163   4.213  1.00  0.00     0.093 A 
HETATM   16  C   UNL     1      43.767 -20.680   1.888  1.00  0.00     0.040 A 
HETATM   17  N   UNL     1      44.396 -19.064   5.037  1.00  0.00    -0.221 NA
HETATM   18  C   UNL     1      44.741 -21.495   4.447  1.00  0.00     0.034 A 
HETATM   19  C   UNL     1      44.608 -22.412   3.392  1.00  0.00     0.002 A 
HETATM   20  C   UNL     1      44.133 -22.008   2.137  1.00  0.00     0.003 A 
ENDBRANCH   7  12
BRANCH   8  21
HETATM   21  O   UNL     1      44.981 -16.871   6.651  1.00  0.00    -0.359 OA
HETATM   22  H   UNL     1      44.850 -16.571   7.575  1.00  0.00     0.218 HD
ENDBRANCH   8  21
ENDBRANCH   2   5
BRANCH   1  23
HETATM   23  N   UNL     1      40.333 -12.477   5.145  1.00  0.00    -0.299 N 
HETATM   24  C   UNL     1      40.507 -11.151   5.535  1.00  0.00     0.257 C 
HETATM   25  O   UNL     1      40.508 -10.192   4.774  1.00  0.00    -0.267 OA
HETATM   26  H   UNL     1      39.798 -13.042   5.791  1.00  0.00     0.171 HD
BRANCH  24  27
HETATM   27  C   UNL     1      40.613 -10.941   7.011  1.00  0.00     0.035 A 
HETATM   28  C   UNL     1      41.870 -10.693   7.574  1.00  0.00     0.053 A 
HETATM   29  C   UNL     1      42.014 -10.526   8.955  1.00  0.00     0.069 A 
HETATM   30  C   UNL     1      40.887 -10.603   9.777  1.00  0.00     0.037 A 
HETATM   31  C   UNL     1      39.631 -10.864   9.226  1.00  0.00     0.004 A 
HETATM   32  C   UNL     1      39.493 -11.042   7.849  1.00  0.00     0.017 A 
BRANCH  29  33
HETATM   33  O   UNL     1      43.294 -10.293   9.379  1.00  0.00    -0.351 OA
BRANCH  33  34
HETATM   34  C   UNL     1      43.927 -11.327  10.131  1.00  0.00     0.175 C 
BRANCH  34  35
HETATM   35  C   UNL     1      44.396 -10.762  11.472  1.00  0.00     0.026 C 
BRANCH  35  36
HETATM   36  C   UNL     1      43.287 -10.769  12.525  1.00  0.00    -0.002 C 
HETATM   37  C   UNL     1      43.355  -9.531  13.406  1.00  0.00     0.005 C 
ENDBRANCH  35  36
ENDBRANCH  34  35
ENDBRANCH  33  34
ENDBRANCH  29  33
ENDBRANCH  24  27
ENDBRANCH   1  23
TORSDOF 9
ENDMDL
MODEL 2
REMARK VINA RESULT:      -8.8      2.255      3.956
REMARK  9 active torsions:
REMARK  status: ('A' for Active; 'I' for Inactive)
REMARK    1  A    between atoms: C_2  and  C_3 
REMARK    2  A    between atoms: C_3  and  C_4 
REMARK    3  A    between atoms: C_4  and  O_5 
REMARK    4  A    between atoms: O_5  and  C_6 
REMARK    5  A    between atoms: C_8  and  C_9 
REMARK       I    between atoms: C_9  and  N_10 
REMARK    6  A    between atoms: N_10  and  C_11 
REMARK    7  A    between atoms: N_12  and  C_13 
REMARK    8  A    between atoms: C_15  and  C_16 
REMARK    9  A    between atoms: C_25  and  O_26 
ROOT
HETATM    1  C   UNL     1      41.053  -9.996   4.154  1.00  0.00     0.179 C 
HETATM    2  N   UNL     1      41.136 -10.878   3.133  1.00  0.00    -0.333 N 
HETATM    3  S   UNL     1      40.820  -8.377   3.787  1.00  0.00    -0.040 SA
HETATM    4  H   UNL     1      41.329 -10.428   2.244  1.00  0.00     0.168 HD
ENDROOT
BRANCH   2   5
HETATM    5  C   UNL     1      40.844 -12.255   3.042  1.00  0.00     0.035 A 
HETATM    6  C   UNL     1      41.562 -13.252   3.702  1.00  0.00     0.048 A 
HETATM    7  C   UNL     1      41.257 -14.613   3.527  1.00  0.00     0.053 A 
HETATM    8  C   UNL     1      40.137 -14.954   2.747  1.00  0.00     0.086 A 
HETATM    9  C   UNL     1      39.356 -13.967   2.133  1.00  0.00    -0.026 A 
HETATM   10  C   UNL     1      38.125 -14.321   1.348  1.00  0.00     0.051 C 
HETATM   11  C   UNL     1      39.720 -12.621   2.290  1.00  0.00     0.039 A 
BRANCH   7  12
HETATM   12  C   UNL     1      42.106 -15.646   4.112  1.00  0.00     0.183 A 
HETATM   13  O   UNL     1      42.731 -15.351   5.298  1.00  0.00    -0.289 OA
HETATM   14  C   UNL     1      43.505 -16.445   5.543  1.00  0.00     0.106 A 
HETATM   15  C   UNL     1      43.305 -17.348   4.510  1.00  0.00     0.093 A 
HETATM   16  C   UNL     1      44.361 -16.648   6.618  1.00  0.00     0.040 A 
HETATM   17  N   UNL     1      42.397 -16.839   3.614  1.00  0.00    -0.221 NA
HETATM   18  C   UNL     1      44.010 -18.557   4.522  1.00  0.00     0.034 A 
HETATM   19  C   UNL     1      44.890 -18.799   5.588  1.00  0.00     0.002 A 
HETATM   20  C   UNL     1      45.058 -17.862   6.617  1.00  0.00     0.003 A 
ENDBRANCH   7  12
BRANCH   8  21
HETATM   21  O   UNL     1      39.758 -16.261   2.556  1.00  0.00    -0.359 OA
HETATM   22  H   UNL     1      39.521 -16.649   3.424  1.00  0.00     0.218 HD
ENDBRANCH   8  21
ENDBRANCH   2   5
BRANCH   1  23
HETATM   23  N   UNL     1      41.146 -10.339   5.467  1.00  0.00    -0.299 N 
HETATM   24  C   UNL     1      40.155 -10.713   6.370  1.00  0.00     0.257 C 
HETATM   25  O   UNL     1      39.030 -11.084   6.061  1.00  0.00    -0.267 OA
HETATM   26  H   UNL     1      42.084 -10.614   5.729  1.00  0.00     0.171 HD
BRANCH  24  27
HETATM   27  C   UNL     1      40.582 -10.719   7.803  1.00  0.00     0.035 A 
HETATM   28  C   UNL     1      41.929 -10.493   8.112  1.00  0.00     0.053 A 
HETATM   29  C   UNL     1      42.372 -10.524   9.438  1.00  0.00     0.069 A 
HETATM   30  C   UNL     1      41.457 -10.782  10.462  1.00  0.00     0.037 A 
HETATM   31  C   UNL     1      40.114 -11.024  10.161  1.00  0.00     0.004 A 
HETATM   32  C   UNL     1      39.678 -11.002   8.836  1.00  0.00     0.017 A 
BRANCH  29  33
HETATM   33  O   UNL     1      43.710 -10.290   9.605  1.00  0.00    -0.351 OA
BRANCH  33  34
HETATM   34  C   UNL     1      44.338 -10.894  10.736  1.00  0.00     0.175 C 
BRANCH  34  35
HETATM   35  C   UNL     1      44.998 -12.205  10.307  1.00  0.00     0.026 C 
BRANCH  35  36
HETATM   36  C   UNL     1      45.572 -12.130   8.892  1.00  0.00    -0.002 C 
HETATM   37  C   UNL     1      44.977 -13.206   7.997  1.00  0.00     0.005 C 
ENDBRANCH  35  36
ENDBRANCH  34  35
ENDBRANCH  33  34
ENDBRANCH  29  33
ENDBRANCH  24  27
ENDBRANCH   1  23
TORSDOF 9
ENDMDL
MODEL 3
REMARK VINA RESULT:      -8.8      4.101      8.763
REMARK  9 active torsions:
REMARK  status: ('A' for Active; 'I' for Inactive)
REMARK    1  A    between atoms: C_2  and  C_3 
REMARK    2  A    between atoms: C_3  and  C_4 
REMARK    3  A    between atoms: C_4  and  O_5 
REMARK    4  A    between atoms: O_5  and  C_6 
REMARK    5  A    between atoms: C_8  and  C_9 
REMARK       I    between atoms: C_9  and  N_10 
REMARK    6  A    between atoms: N_10  and  C_11 
REMARK    7  A    between atoms: N_12  and  C_13 
REMARK    8  A    between atoms: C_15  and  C_16 
REMARK    9  A    between atoms: C_25  and  O_26 
ROOT
HETATM    1  C   UNL     1      40.461 -13.473   5.499  1.00  0.00     0.179 C 
HETATM    2  N   UNL     1      40.443 -13.046   4.218  1.00  0.00    -0.333 N 
HETATM    3  S   UNL     1      39.431 -12.736   6.598  1.00  0.00    -0.040 SA
HETATM    4  H   UNL     1      40.008 -12.134   4.117  1.00  0.00     0.168 HD
ENDROOT
BRANCH   2   5
HETATM    5  C   UNL     1      40.751 -13.685   2.999  1.00  0.00     0.035 A 
HETATM    6  C   UNL     1      41.202 -13.021   1.859  1.00  0.00     0.048 A 
HETATM    7  C   UNL     1      41.440 -13.707   0.655  1.00  0.00     0.053 A 
HETATM    8  C   UNL     1      41.312 -15.107   0.646  1.00  0.00     0.086 A 
HETATM    9  C   UNL     1      40.931 -15.806   1.799  1.00  0.00    -0.026 A 
HETATM   10  C   UNL     1      40.850 -17.306   1.811  1.00  0.00     0.051 C 
HETATM   11  C   UNL     1      40.654 -15.082   2.968  1.00  0.00     0.039 A 
BRANCH   7  12
HETATM   12  C   UNL     1      41.776 -12.976  -0.563  1.00  0.00     0.183 A 
HETATM   13  O   UNL     1      42.210 -11.682  -0.422  1.00  0.00    -0.289 OA
HETATM   14  C   UNL     1      42.355 -11.242  -1.704  1.00  0.00     0.106 A 
HETATM   15  C   UNL     1      42.015 -12.284  -2.552  1.00  0.00     0.093 A 
HETATM   16  C   UNL     1      42.756  -9.980  -2.121  1.00  0.00     0.040 A 
HETATM   17  N   UNL     1      41.666 -13.391  -1.817  1.00  0.00    -0.221 NA
HETATM   18  C   UNL     1      42.063 -12.075  -3.935  1.00  0.00     0.034 A 
HETATM   19  C   UNL     1      42.459 -10.810  -4.399  1.00  0.00     0.002 A 
HETATM   20  C   UNL     1      42.801  -9.786  -3.506  1.00  0.00     0.003 A 
ENDBRANCH   7  12
BRANCH   8  21
HETATM   21  O   UNL     1      41.558 -15.850  -0.483  1.00  0.00    -0.359 OA
HETATM   22  H   UNL     1      40.738 -15.888  -1.019  1.00  0.00     0.218 HD
ENDBRANCH   8  21
ENDBRANCH   2   5
BRANCH   1  23
HETATM   23  N   UNL     1      41.266 -14.469   5.958  1.00  0.00    -0.299 N 
HETATM   24  C   UNL     1      42.650 -14.609   5.891  1.00  0.00     0.257 C 
HETATM   25  O   UNL     1      43.435 -13.701   5.653  1.00  0.00    -0.267 OA
HETATM   26  H   UNL     1      40.817 -15.033   6.668  1.00  0.00     0.171 HD
BRANCH  24  27
HETATM   27  C   UNL     1      43.159 -15.974   6.224  1.00  0.00     0.035 A 
HETATM   28  C   UNL     1      43.299 -16.917   5.199  1.00  0.00     0.053 A 
HETATM   29  C   UNL     1      43.740 -18.215   5.477  1.00  0.00     0.069 A 
HETATM   30  C   UNL     1      44.045 -18.569   6.793  1.00  0.00     0.037 A 
HETATM   31  C   UNL     1      43.893 -17.640   7.825  1.00  0.00     0.004 A 
HETATM   32  C   UNL     1      43.443 -16.349   7.545  1.00  0.00     0.017 A 
BRANCH  29  33
HETATM   33  O   UNL     1      43.832 -19.039   4.388  1.00  0.00    -0.351 OA
BRANCH  33  34
HETATM   34  C   UNL     1      43.946 -18.416   3.110  1.00  0.00     0.175 C 
BRANCH  34  35
HETATM   35  C   UNL     1      43.876 -19.484   2.018  1.00  0.00     0.026 C 
BRANCH  35  36
HETATM   36  C   UNL     1      44.371 -20.846   2.506  1.00  0.00    -0.002 C 
HETATM   37  C   UNL     1      44.049 -21.942   1.502  1.00  0.00     0.005 C 
ENDBRANCH  35  36
ENDBRANCH  34  35
ENDBRANCH  33  34
ENDBRANCH  29  33
ENDBRANCH  24  27
ENDBRANCH   1  23
TORSDOF 9
ENDMDL
MODEL 4
REMARK VINA RESULT:      -8.7      4.090      9.185
REMARK  9 active torsions:
REMARK  status: ('A' for Active; 'I' for Inactive)
REMARK    1  A    between atoms: C_2  and  C_3 
REMARK    2  A    between atoms: C_3  and  C_4 
REMARK    3  A    between atoms: C_4  and  O_5 
REMARK    4  A    between atoms: O_5  and  C_6 
REMARK    5  A    between atoms: C_8  and  C_9 
REMARK       I    between atoms: C_9  and  N_10 
REMARK    6  A    between atoms: N_10  and  C_11 
REMARK    7  A    between atoms: N_12  and  C_13 
REMARK    8  A    between atoms: C_15  and  C_16 
REMARK    9  A    between atoms: C_25  and  O_26 
ROOT
HETATM    1  C   UNL     1      43.598 -19.833   2.703  1.00  0.00     0.179 C 
HETATM    2  N   UNL     1      44.240 -19.630   3.874  1.00  0.00    -0.333 N 
HETATM    3  S   UNL     1      43.803 -21.307   1.930  1.00  0.00    -0.040 SA
HETATM    4  H   UNL     1      45.000 -20.286   4.021  1.00  0.00     0.168 HD
ENDROOT
BRANCH   2   5
HETATM    5  C   UNL     1      43.954 -18.807   4.984  1.00  0.00     0.035 A 
HETATM    6  C   UNL     1      43.230 -17.617   4.909  1.00  0.00     0.048 A 
HETATM    7  C   UNL     1      43.025 -16.810   6.042  1.00  0.00     0.053 A 
HETATM    8  C   UNL     1      43.479 -17.278   7.288  1.00  0.00     0.086 A 
HETATM    9  C   UNL     1      44.145 -18.505   7.401  1.00  0.00    -0.026 A 
HETATM   10  C   UNL     1      44.579 -19.038   8.737  1.00  0.00     0.051 C 
HETATM   11  C   UNL     1      44.374 -19.259   6.240  1.00  0.00     0.039 A 
BRANCH   7  12
HETATM   12  C   UNL     1      42.388 -15.503   5.918  1.00  0.00     0.183 A 
HETATM   13  O   UNL     1      41.111 -15.469   5.418  1.00  0.00    -0.289 OA
HETATM   14  C   UNL     1      40.824 -14.139   5.336  1.00  0.00     0.106 A 
HETATM   15  C   UNL     1      41.927 -13.438   5.797  1.00  0.00     0.093 A 
HETATM   16  C   UNL     1      39.653 -13.556   4.870  1.00  0.00     0.040 A 
HETATM   17  N   UNL     1      42.911 -14.315   6.184  1.00  0.00    -0.221 NA
HETATM   18  C   UNL     1      41.889 -12.039   5.796  1.00  0.00     0.034 A 
HETATM   19  C   UNL     1      40.725 -11.409   5.327  1.00  0.00     0.002 A 
HETATM   20  C   UNL     1      39.629 -12.157   4.876  1.00  0.00     0.003 A 
ENDBRANCH   7  12
BRANCH   8  21
HETATM   21  O   UNL     1      43.287 -16.561   8.444  1.00  0.00    -0.359 OA
HETATM   22  H   UNL     1      42.805 -15.736   8.226  1.00  0.00     0.218 HD
ENDBRANCH   8  21
ENDBRANCH   2   5
BRANCH   1  23
HETATM   23  N   UNL     1      42.792 -18.914   2.107  1.00  0.00    -0.299 N 
HETATM   24  C   UNL     1      43.112 -17.723   1.460  1.00  0.00     0.257 C 
HETATM   25  O   UNL     1      44.228 -17.425   1.053  1.00  0.00    -0.267 OA
HETATM   26  H   UNL     1      41.881 -19.289   1.877  1.00  0.00     0.171 HD
BRANCH  24  27
HETATM   27  C   UNL     1      41.951 -16.818   1.200  1.00  0.00     0.035 A 
HETATM   28  C   UNL     1      41.956 -16.017   0.052  1.00  0.00     0.053 A 
HETATM   29  C   UNL     1      40.904 -15.133  -0.207  1.00  0.00     0.069 A 
HETATM   30  C   UNL     1      39.837 -15.054   0.691  1.00  0.00     0.037 A 
HETATM   31  C   UNL     1      39.831 -15.838   1.847  1.00  0.00     0.004 A 
HETATM   32  C   UNL     1      40.887 -16.711   2.107  1.00  0.00     0.017 A 
BRANCH  29  33
HETATM   33  O   UNL     1      41.030 -14.407  -1.360  1.00  0.00    -0.351 OA
BRANCH  33  34
HETATM   34  C   UNL     1      40.009 -14.567  -2.343  1.00  0.00     0.175 C 
BRANCH  34  35
HETATM   35  C   UNL     1      40.303 -15.812  -3.180  1.00  0.00     0.026 C 
BRANCH  35  36
HETATM   36  C   UNL     1      39.090 -16.267  -3.993  1.00  0.00    -0.002 C 
HETATM   37  C   UNL     1      37.886 -15.376  -3.732  1.00  0.00     0.005 C 
ENDBRANCH  35  36
ENDBRANCH  34  35
ENDBRANCH  33  34
ENDBRANCH  29  33
ENDBRANCH  24  27
ENDBRANCH   1  23
TORSDOF 9
ENDMDL
MODEL 5
REMARK VINA RESULT:      -8.7      4.089      7.355
REMARK  9 active torsions:
REMARK  status: ('A' for Active; 'I' for Inactive)
REMARK    1  A    between atoms: C_2  and  C_3 
REMARK    2  A    between atoms: C_3  and  C_4 
REMARK    3  A    between atoms: C_4  and  O_5 
REMARK    4  A    between atoms: O_5  and  C_6 
REMARK    5  A    between atoms: C_8  and  C_9 
REMARK       I    between atoms: C_9  and  N_10 
REMARK    6  A    between atoms: N_10  and  C_11 
REMARK    7  A    between atoms: N_12  and  C_13 
REMARK    8  A    between atoms: C_15  and  C_16 
REMARK    9  A    between atoms: C_25  and  O_26 
ROOT
HETATM    1  C   UNL     1      40.100 -13.315   3.157  1.00  0.00     0.179 C 
HETATM    2  N   UNL     1      40.421 -13.905   4.329  1.00  0.00    -0.333 N 
HETATM    3  S   UNL     1      39.143 -11.938   3.198  1.00  0.00    -0.040 SA
HETATM    4  H   UNL     1      39.817 -13.614   5.091  1.00  0.00     0.168 HD
ENDROOT
BRANCH   2   5
HETATM    5  C   UNL     1      41.518 -14.701   4.722  1.00  0.00     0.035 A 
HETATM    6  C   UNL     1      41.868 -15.906   4.113  1.00  0.00     0.048 A 
HETATM    7  C   UNL     1      42.940 -16.683   4.586  1.00  0.00     0.053 A 
HETATM    8  C   UNL     1      43.727 -16.171   5.633  1.00  0.00     0.086 A 
HETATM    9  C   UNL     1      43.440 -14.929   6.213  1.00  0.00    -0.026 A 
HETATM   10  C   UNL     1      44.313 -14.350   7.290  1.00  0.00     0.051 C 
HETATM   11  C   UNL     1      42.333 -14.205   5.747  1.00  0.00     0.039 A 
BRANCH   7  12
HETATM   12  C   UNL     1      43.203 -18.006   4.027  1.00  0.00     0.183 A 
HETATM   13  O   UNL     1      43.879 -18.901   4.818  1.00  0.00    -0.289 OA
HETATM   14  C   UNL     1      44.051 -19.986   4.012  1.00  0.00     0.106 A 
HETATM   15  C   UNL     1      43.467 -19.704   2.788  1.00  0.00     0.093 A 
HETATM   16  C   UNL     1      44.701 -21.173   4.326  1.00  0.00     0.040 A 
HETATM   17  N   UNL     1      42.912 -18.449   2.813  1.00  0.00    -0.221 NA
HETATM   18  C   UNL     1      43.528 -20.665   1.771  1.00  0.00     0.034 A 
HETATM   19  C   UNL     1      44.180 -21.877   2.045  1.00  0.00     0.002 A 
HETATM   20  C   UNL     1      44.752 -22.125   3.300  1.00  0.00     0.003 A 
ENDBRANCH   7  12
BRANCH   8  21
HETATM   21  O   UNL     1      44.810 -16.858   6.128  1.00  0.00    -0.359 OA
HETATM   22  H   UNL     1      44.799 -16.797   7.106  1.00  0.00     0.218 HD
ENDBRANCH   8  21
ENDBRANCH   2   5
BRANCH   1  23
HETATM   23  N   UNL     1      40.506 -13.767   1.940  1.00  0.00    -0.299 N 
HETATM   24  C   UNL     1      41.600 -13.395   1.163  1.00  0.00     0.257 C 
HETATM   25  O   UNL     1      42.576 -12.783   1.575  1.00  0.00    -0.267 OA
HETATM   26  H   UNL     1      40.109 -14.669   1.711  1.00  0.00     0.171 HD
BRANCH  24  27
HETATM   27  C   UNL     1      41.558 -13.880  -0.251  1.00  0.00     0.035 A 
HETATM   28  C   UNL     1      41.982 -13.025  -1.276  1.00  0.00     0.053 A 
HETATM   29  C   UNL     1      41.925 -13.431  -2.613  1.00  0.00     0.069 A 
HETATM   30  C   UNL     1      41.442 -14.704  -2.924  1.00  0.00     0.037 A 
HETATM   31  C   UNL     1      41.002 -15.557  -1.910  1.00  0.00     0.004 A 
HETATM   32  C   UNL     1      41.050 -15.145  -0.578  1.00  0.00     0.017 A 
BRANCH  29  33
HETATM   33  O   UNL     1      42.366 -12.503  -3.517  1.00  0.00    -0.351 OA
BRANCH  33  34
HETATM   34  C   UNL     1      41.638 -11.278  -3.597  1.00  0.00     0.175 C 
BRANCH  34  35
HETATM   35  C   UNL     1      42.616 -10.104  -3.555  1.00  0.00     0.026 C 
BRANCH  35  36
HETATM   36  C   UNL     1      42.613  -9.394  -2.201  1.00  0.00    -0.002 C 
HETATM   37  C   UNL     1      43.814  -9.800  -1.361  1.00  0.00     0.005 C 
ENDBRANCH  35  36
ENDBRANCH  34  35
ENDBRANCH  33  34
ENDBRANCH  29  33
ENDBRANCH  24  27
ENDBRANCH   1  23
TORSDOF 9
ENDMDL
MODEL 6
REMARK VINA RESULT:      -8.7      1.769      9.330
REMARK  9 active torsions:
REMARK  status: ('A' for Active; 'I' for Inactive)
REMARK    1  A    between atoms: C_2  and  C_3 
REMARK    2  A    between atoms: C_3  and  C_4 
REMARK    3  A    between atoms: C_4  and  O_5 
REMARK    4  A    between atoms: O_5  and  C_6 
REMARK    5  A    between atoms: C_8  and  C_9 
REMARK       I    between atoms: C_9  and  N_10 
REMARK    6  A    between atoms: N_10  and  C_11 
REMARK    7  A    between atoms: N_12  and  C_13 
REMARK    8  A    between atoms: C_15  and  C_16 
REMARK    9  A    between atoms: C_25  and  O_26 
ROOT
HETATM    1  C   UNL     1      40.126 -13.707   3.735  1.00  0.00     0.179 C 
HETATM    2  N   UNL     1      39.678 -12.480   4.080  1.00  0.00    -0.333 N 
HETATM    3  S   UNL     1      39.470 -14.439   2.376  1.00  0.00    -0.040 SA
HETATM    4  H   UNL     1      38.792 -12.251   3.642  1.00  0.00     0.168 HD
ENDROOT
BRANCH   2   5
HETATM    5  C   UNL     1      40.277 -11.414   4.784  1.00  0.00     0.035 A 
HETATM    6  C   UNL     1      40.716 -11.498   6.105  1.00  0.00     0.048 A 
HETATM    7  C   UNL     1      41.254 -10.383   6.771  1.00  0.00     0.053 A 
HETATM    8  C   UNL     1      41.440  -9.194   6.044  1.00  0.00     0.086 A 
HETATM    9  C   UNL     1      41.074  -9.107   4.694  1.00  0.00    -0.026 A 
HETATM   10  C   UNL     1      41.325  -7.858   3.897  1.00  0.00     0.051 C 
HETATM   11  C   UNL     1      40.495 -10.225   4.077  1.00  0.00     0.039 A 
BRANCH   7  12
HETATM   12  C   UNL     1      41.577 -10.451   8.193  1.00  0.00     0.183 A 
HETATM   13  O   UNL     1      42.880 -10.219   8.555  1.00  0.00    -0.289 OA
HETATM   14  C   UNL     1      42.892 -10.436   9.900  1.00  0.00     0.106 A 
HETATM   15  C   UNL     1      41.605 -10.774  10.287  1.00  0.00     0.093 A 
HETATM   16  C   UNL     1      43.982 -10.353  10.758  1.00  0.00     0.040 A 
HETATM   17  N   UNL     1      40.770 -10.762   9.197  1.00  0.00    -0.221 NA
HETATM   18  C   UNL     1      41.358 -11.067  11.633  1.00  0.00     0.034 A 
HETATM   19  C   UNL     1      42.433 -11.000  12.533  1.00  0.00     0.002 A 
HETATM   20  C   UNL     1      43.719 -10.647  12.101  1.00  0.00     0.003 A 
ENDBRANCH   7  12
BRANCH   8  21
HETATM   21  O   UNL     1      41.989  -8.072   6.617  1.00  0.00    -0.359 OA
HETATM   22  H   UNL     1      42.579  -8.350   7.348  1.00  0.00     0.218 HD
ENDBRANCH   8  21
ENDBRANCH   2   5
BRANCH   1  23
HETATM   23  N   UNL     1      41.081 -14.391   4.422  1.00  0.00    -0.299 N 
HETATM   24  C   UNL     1      42.457 -14.457   4.222  1.00  0.00     0.257 C 
HETATM   25  O   UNL     1      43.106 -13.666   3.550  1.00  0.00    -0.267 OA
HETATM   26  H   UNL     1      40.773 -14.659   5.348  1.00  0.00     0.171 HD
BRANCH  24  27
HETATM   27  C   UNL     1      43.148 -15.548   4.975  1.00  0.00     0.035 A 
HETATM   28  C   UNL     1      43.022 -16.869   4.528  1.00  0.00     0.053 A 
HETATM   29  C   UNL     1      43.625 -17.920   5.226  1.00  0.00     0.069 A 
HETATM   30  C   UNL     1      44.363 -17.644   6.379  1.00  0.00     0.037 A 
HETATM   31  C   UNL     1      44.481 -16.331   6.842  1.00  0.00     0.004 A 
HETATM   32  C   UNL     1      43.869 -15.287   6.149  1.00  0.00     0.017 A 
BRANCH  29  33
HETATM   33  O   UNL     1      43.424 -19.162   4.687  1.00  0.00    -0.351 OA
BRANCH  33  34
HETATM   34  C   UNL     1      44.477 -19.701   3.888  1.00  0.00     0.175 C 
BRANCH  34  35
HETATM   35  C   UNL     1      44.092 -19.606   2.412  1.00  0.00     0.026 C 
BRANCH  35  36
HETATM   36  C   UNL     1      43.642 -20.951   1.841  1.00  0.00    -0.002 C 
HETATM   37  C   UNL     1      44.422 -22.102   2.458  1.00  0.00     0.005 C 
ENDBRANCH  35  36
ENDBRANCH  34  35
ENDBRANCH  33  34
ENDBRANCH  29  33
ENDBRANCH  24  27
ENDBRANCH   1  23
TORSDOF 9
ENDMDL
MODEL 7
REMARK VINA RESULT:      -8.7      2.799      3.814
REMARK  9 active torsions:
REMARK  status: ('A' for Active; 'I' for Inactive)
REMARK    1  A    between atoms: C_2  and  C_3 
REMARK    2  A    between atoms: C_3  and  C_4 
REMARK    3  A    between atoms: C_4  and  O_5 
REMARK    4  A    between atoms: O_5  and  C_6 
REMARK    5  A    between atoms: C_8  and  C_9 
REMARK       I    between atoms: C_9  and  N_10 
REMARK    6  A    between atoms: N_10  and  C_11 
REMARK    7  A    between atoms: N_12  and  C_13 
REMARK    8  A    between atoms: C_15  and  C_16 
REMARK    9  A    between atoms: C_25  and  O_26 
ROOT
HETATM    1  C   UNL     1      44.669 -12.413   8.564  1.00  0.00     0.179 C 
HETATM    2  N   UNL     1      44.768 -13.386   7.632  1.00  0.00    -0.333 N 
HETATM    3  S   UNL     1      46.060 -11.584   8.996  1.00  0.00    -0.040 SA
HETATM    4  H   UNL     1      45.724 -13.701   7.496  1.00  0.00     0.168 HD
ENDROOT
BRANCH   2   5
HETATM    5  C   UNL     1      43.840 -13.916   6.710  1.00  0.00     0.035 A 
HETATM    6  C   UNL     1      43.934 -15.191   6.152  1.00  0.00     0.048 A 
HETATM    7  C   UNL     1      43.008 -15.642   5.195  1.00  0.00     0.053 A 
HETATM    8  C   UNL     1      41.914 -14.817   4.881  1.00  0.00     0.086 A 
HETATM    9  C   UNL     1      41.758 -13.562   5.482  1.00  0.00    -0.026 A 
HETATM   10  C   UNL     1      40.561 -12.701   5.195  1.00  0.00     0.051 C 
HETATM   11  C   UNL     1      42.729 -13.125   6.396  1.00  0.00     0.039 A 
BRANCH   7  12
HETATM   12  C   UNL     1      43.201 -16.922   4.519  1.00  0.00     0.183 A 
HETATM   13  O   UNL     1      43.903 -17.890   5.193  1.00  0.00    -0.289 OA
HETATM   14  C   UNL     1      43.996 -18.912   4.296  1.00  0.00     0.106 A 
HETATM   15  C   UNL     1      43.342 -18.523   3.138  1.00  0.00     0.093 A 
HETATM   16  C   UNL     1      44.635 -20.133   4.474  1.00  0.00     0.040 A 
HETATM   17  N   UNL     1      42.822 -17.262   3.296  1.00  0.00    -0.221 NA
HETATM   18  C   UNL     1      43.314 -19.401   2.049  1.00  0.00     0.034 A 
HETATM   19  C   UNL     1      43.952 -20.644   2.184  1.00  0.00     0.002 A 
HETATM   20  C   UNL     1      44.596 -21.001   3.377  1.00  0.00     0.003 A 
ENDBRANCH   7  12
BRANCH   8  21
HETATM   21  O   UNL     1      40.951 -15.202   3.979  1.00  0.00    -0.359 OA
HETATM   22  H   UNL     1      41.211 -14.887   3.088  1.00  0.00     0.218 HD
ENDBRANCH   8  21
ENDBRANCH   2   5
BRANCH   1  23
HETATM   23  N   UNL     1      43.507 -12.062   9.177  1.00  0.00    -0.299 N 
HETATM   24  C   UNL     1      42.721 -10.922   9.027  1.00  0.00     0.257 C 
HETATM   25  O   UNL     1      42.788 -10.145   8.083  1.00  0.00    -0.267 OA
HETATM   26  H   UNL     1      43.030 -12.855   9.586  1.00  0.00     0.171 HD
BRANCH  24  27
HETATM   27  C   UNL     1      41.683 -10.732  10.085  1.00  0.00     0.035 A 
HETATM   28  C   UNL     1      42.058 -10.830  11.431  1.00  0.00     0.053 A 
HETATM   29  C   UNL     1      41.108 -10.692  12.448  1.00  0.00     0.069 A 
HETATM   30  C   UNL     1      39.773 -10.452  12.114  1.00  0.00     0.037 A 
HETATM   31  C   UNL     1      39.388 -10.368  10.774  1.00  0.00     0.004 A 
HETATM   32  C   UNL     1      40.336 -10.517   9.761  1.00  0.00     0.017 A 
BRANCH  29  33
HETATM   33  O   UNL     1      41.602 -10.811  13.719  1.00  0.00    -0.351 OA
BRANCH  33  34
HETATM   34  C   UNL     1      42.820 -10.126  14.008  1.00  0.00     0.175 C 
BRANCH  34  35
HETATM   35  C   UNL     1      42.585  -9.137  15.150  1.00  0.00     0.026 C 
BRANCH  35  36
HETATM   36  C   UNL     1      41.390  -9.528  16.021  1.00  0.00    -0.002 C 
HETATM   37  C   UNL     1      40.504  -8.327  16.314  1.00  0.00     0.005 C 
ENDBRANCH  35  36
ENDBRANCH  34  35
ENDBRANCH  33  34
ENDBRANCH  29  33
ENDBRANCH  24  27
ENDBRANCH   1  23
TORSDOF 9
ENDMDL
MODEL 8
REMARK VINA RESULT:      -8.6      3.877      8.620
REMARK  9 active torsions:
REMARK  status: ('A' for Active; 'I' for Inactive)
REMARK    1  A    between atoms: C_2  and  C_3 
REMARK    2  A    between atoms: C_3  and  C_4 
REMARK    3  A    between atoms: C_4  and  O_5 
REMARK    4  A    between atoms: O_5  and  C_6 
REMARK    5  A    between atoms: C_8  and  C_9 
REMARK       I    between atoms: C_9  and  N_10 
REMARK    6  A    between atoms: N_10  and  C_11 
REMARK    7  A    between atoms: N_12  and  C_13 
REMARK    8  A    between atoms: C_15  and  C_16 
REMARK    9  A    between atoms: C_25  and  O_26 
ROOT
HETATM    1  C   UNL     1      42.198 -13.028   5.355  1.00  0.00     0.179 C 
HETATM    2  N   UNL     1      42.296 -12.788   4.029  1.00  0.00    -0.333 N 
HETATM    3  S   UNL     1      41.687 -11.780   6.352  1.00  0.00    -0.040 SA
HETATM    4  H   UNL     1      42.320 -11.796   3.812  1.00  0.00     0.168 HD
ENDROOT
BRANCH   2   5
HETATM    5  C   UNL     1      42.204 -13.632   2.902  1.00  0.00     0.035 A 
HETATM    6  C   UNL     1      41.429 -13.352   1.777  1.00  0.00     0.048 A 
HETATM    7  C   UNL     1      41.333 -14.260   0.708  1.00  0.00     0.053 A 
HETATM    8  C   UNL     1      42.120 -15.424   0.745  1.00  0.00     0.086 A 
HETATM    9  C   UNL     1      42.963 -15.693   1.832  1.00  0.00    -0.026 A 
HETATM   10  C   UNL     1      43.851 -16.904   1.850  1.00  0.00     0.051 C 
HETATM   11  C   UNL     1      42.995 -14.787   2.903  1.00  0.00     0.039 A 
BRANCH   7  12
HETATM   12  C   UNL     1      40.409 -14.014  -0.395  1.00  0.00     0.183 A 
HETATM   13  O   UNL     1      39.719 -12.828  -0.386  1.00  0.00    -0.289 OA
HETATM   14  C   UNL     1      38.889 -12.922  -1.464  1.00  0.00     0.106 A 
HETATM   15  C   UNL     1      39.123 -14.144  -2.074  1.00  0.00     0.093 A 
HETATM   16  C   UNL     1      37.958 -11.986  -1.894  1.00  0.00     0.040 A 
HETATM   17  N   UNL     1      40.105 -14.824  -1.399  1.00  0.00    -0.221 NA
HETATM   18  C   UNL     1      38.373 -14.490  -3.204  1.00  0.00     0.034 A 
HETATM   19  C   UNL     1      37.416 -13.574  -3.670  1.00  0.00     0.002 A 
HETATM   20  C   UNL     1      37.217 -12.345  -3.026  1.00  0.00     0.003 A 
ENDBRANCH   7  12
BRANCH   8  21
HETATM   21  O   UNL     1      42.104 -16.343  -0.276  1.00  0.00    -0.359 OA
HETATM   22  H   UNL     1      41.208 -16.355  -0.673  1.00  0.00     0.218 HD
ENDBRANCH   8  21
ENDBRANCH   2   5
BRANCH   1  23
HETATM   23  N   UNL     1      42.488 -14.223   5.936  1.00  0.00    -0.299 N 
HETATM   24  C   UNL     1      43.681 -14.691   6.480  1.00  0.00     0.257 C 
HETATM   25  O   UNL     1      44.631 -13.986   6.796  1.00  0.00    -0.267 OA
HETATM   26  H   UNL     1      41.659 -14.713   6.247  1.00  0.00     0.171 HD
BRANCH  24  27
HETATM   27  C   UNL     1      43.713 -16.161   6.750  1.00  0.00     0.035 A 
HETATM   28  C   UNL     1      43.768 -17.050   5.669  1.00  0.00     0.053 A 
HETATM   29  C   UNL     1      43.764 -18.432   5.881  1.00  0.00     0.069 A 
HETATM   30  C   UNL     1      43.708 -18.927   7.186  1.00  0.00     0.037 A 
HETATM   31  C   UNL     1      43.637 -18.048   8.269  1.00  0.00     0.004 A 
HETATM   32  C   UNL     1      43.631 -16.670   8.054  1.00  0.00     0.017 A 
BRANCH  29  33
HETATM   33  O   UNL     1      43.818 -19.190   4.743  1.00  0.00    -0.351 OA
BRANCH  33  34
HETATM   34  C   UNL     1      44.659 -20.343   4.771  1.00  0.00     0.175 C 
BRANCH  34  35
HETATM   35  C   UNL     1      45.075 -20.700   3.344  1.00  0.00     0.026 C 
BRANCH  35  36
HETATM   36  C   UNL     1      43.900 -20.650   2.366  1.00  0.00    -0.002 C 
HETATM   37  C   UNL     1      43.882 -21.871   1.460  1.00  0.00     0.005 C 
ENDBRANCH  35  36
ENDBRANCH  34  35
ENDBRANCH  33  34
ENDBRANCH  29  33
ENDBRANCH  24  27
ENDBRANCH   1  23
TORSDOF 9
ENDMDL
MODEL 9
REMARK VINA RESULT:      -8.6      3.629      5.727
REMARK  9 active torsions:
REMARK  status: ('A' for Active; 'I' for Inactive)
REMARK    1  A    between atoms: C_2  and  C_3 
REMARK    2  A    between atoms: C_3  and  C_4 
REMARK    3  A    between atoms: C_4  and  O_5 
REMARK    4  A    between atoms: O_5  and  C_6 
REMARK    5  A    between atoms: C_8  and  C_9 
REMARK       I    between atoms: C_9  and  N_10 
REMARK    6  A    between atoms: N_10  and  C_11 
REMARK    7  A    between atoms: N_12  and  C_13 
REMARK    8  A    between atoms: C_15  and  C_16 
REMARK    9  A    between atoms: C_25  and  O_26 
ROOT
HETATM    1  C   UNL     1      43.747 -16.458   6.671  1.00  0.00     0.179 C 
HETATM    2  N   UNL     1      42.686 -16.664   5.860  1.00  0.00    -0.333 N 
HETATM    3  S   UNL     1      44.812 -17.728   6.922  1.00  0.00    -0.040 SA
HETATM    4  H   UNL     1      42.493 -17.649   5.712  1.00  0.00     0.168 HD
ENDROOT
BRANCH   2   5
HETATM    5  C   UNL     1      41.917 -15.790   5.062  1.00  0.00     0.035 A 
HETATM    6  C   UNL     1      41.922 -15.796   3.668  1.00  0.00     0.048 A 
HETATM    7  C   UNL     1      41.176 -14.862   2.927  1.00  0.00     0.053 A 
HETATM    8  C   UNL     1      40.335 -13.975   3.622  1.00  0.00     0.086 A 
HETATM    9  C   UNL     1      40.258 -13.997   5.021  1.00  0.00    -0.026 A 
HETATM   10  C   UNL     1      39.317 -13.093   5.765  1.00  0.00     0.051 C 
HETATM   11  C   UNL     1      41.054 -14.911   5.728  1.00  0.00     0.039 A 
BRANCH   7  12
HETATM   12  C   UNL     1      41.303 -14.794   1.475  1.00  0.00     0.183 A 
HETATM   13  O   UNL     1      41.818 -13.639   0.941  1.00  0.00    -0.289 OA
HETATM   14  C   UNL     1      41.731 -13.831  -0.405  1.00  0.00     0.106 A 
HETATM   15  C   UNL     1      41.183 -15.086  -0.621  1.00  0.00     0.093 A 
HETATM   16  C   UNL     1      42.105 -12.946  -1.408  1.00  0.00     0.040 A 
HETATM   17  N   UNL     1      40.932 -15.699   0.582  1.00  0.00    -0.221 NA
HETATM   18  C   UNL     1      40.971 -15.514  -1.936  1.00  0.00     0.034 A 
HETATM   19  C   UNL     1      41.330 -14.648  -2.981  1.00  0.00     0.002 A 
HETATM   20  C   UNL     1      41.888 -13.389  -2.718  1.00  0.00     0.003 A 
ENDBRANCH   7  12
BRANCH   8  21
HETATM   21  O   UNL     1      39.552 -13.055   2.967  1.00  0.00    -0.359 OA
HETATM   22  H   UNL     1      40.111 -12.291   2.715  1.00  0.00     0.218 HD
ENDBRANCH   8  21
ENDBRANCH   2   5
BRANCH   1  23
HETATM   23  N   UNL     1      44.008 -15.281   7.300  1.00  0.00    -0.299 N 
HETATM   24  C   UNL     1      44.603 -14.117   6.818  1.00  0.00     0.257 C 
HETATM   25  O   UNL     1      44.742 -13.841   5.634  1.00  0.00    -0.267 OA
HETATM   26  H   UNL     1      43.453 -15.158   8.136  1.00  0.00     0.171 HD
BRANCH  24  27
HETATM   27  C   UNL     1      45.007 -13.137   7.871  1.00  0.00     0.035 A 
HETATM   28  C   UNL     1      44.124 -12.866   8.923  1.00  0.00     0.053 A 
HETATM   29  C   UNL     1      44.453 -11.929   9.908  1.00  0.00     0.069 A 
HETATM   30  C   UNL     1      45.678 -11.263   9.840  1.00  0.00     0.037 A 
HETATM   31  C   UNL     1      46.559 -11.516   8.786  1.00  0.00     0.004 A 
HETATM   32  C   UNL     1      46.223 -12.443   7.800  1.00  0.00     0.017 A 
BRANCH  29  33
HETATM   33  O   UNL     1      43.503 -11.755  10.878  1.00  0.00    -0.351 OA
BRANCH  33  34
HETATM   34  C   UNL     1      42.545 -10.718  10.669  1.00  0.00     0.175 C 
BRANCH  34  35
HETATM   35  C   UNL     1      42.928  -9.499  11.508  1.00  0.00     0.026 C 
BRANCH  35  36
HETATM   36  C   UNL     1      43.630  -9.886  12.810  1.00  0.00    -0.002 C 
HETATM   37  C   UNL     1      43.064  -9.117  13.993  1.00  0.00     0.005 C 
ENDBRANCH  35  36
ENDBRANCH  34  35
ENDBRANCH  33  34
ENDBRANCH  29  33
ENDBRANCH  24  27
ENDBRANCH   1  23
TORSDOF 9
ENDMDL
MODEL 10
REMARK VINA RESULT:      -8.4      4.949      6.603
REMARK  9 active torsions:
REMARK  status: ('A' for Active; 'I' for Inactive)
REMARK    1  A    between atoms: C_2  and  C_3 
REMARK    2  A    between atoms: C_3  and  C_4 
REMARK    3  A    between atoms: C_4  and  O_5 
REMARK    4  A    between atoms: O_5  and  C_6 
REMARK    5  A    between atoms: C_8  and  C_9 
REMARK       I    between atoms: C_9  and  N_10 
REMARK    6  A    between atoms: N_10  and  C_11 
REMARK    7  A    between atoms: N_12  and  C_13 
REMARK    8  A    between atoms: C_15  and  C_16 
REMARK    9  A    between atoms: C_25  and  O_26 
ROOT
HETATM    1  C   UNL     1      40.934 -14.674  -1.730  1.00  0.00     0.179 C 
HETATM    2  N   UNL     1      41.455 -15.710  -1.037  1.00  0.00    -0.333 N 
HETATM    3  S   UNL     1      39.821 -15.007  -2.940  1.00  0.00    -0.040 SA
HETATM    4  H   UNL     1      41.329 -16.599  -1.511  1.00  0.00     0.168 HD
ENDROOT
BRANCH   2   5
HETATM    5  C   UNL     1      41.979 -15.811   0.269  1.00  0.00     0.035 A 
HETATM    6  C   UNL     1      42.599 -16.953   0.777  1.00  0.00     0.048 A 
HETATM    7  C   UNL     1      43.051 -17.012   2.106  1.00  0.00     0.053 A 
HETATM    8  C   UNL     1      42.959 -15.853   2.897  1.00  0.00     0.086 A 
HETATM    9  C   UNL     1      42.406 -14.671   2.387  1.00  0.00    -0.026 A 
HETATM   10  C   UNL     1      42.360 -13.413   3.207  1.00  0.00     0.051 C 
HETATM   11  C   UNL     1      41.921 -14.665   1.071  1.00  0.00     0.039 A 
BRANCH   7  12
HETATM   12  C   UNL     1      43.569 -18.259   2.661  1.00  0.00     0.183 A 
HETATM   13  O   UNL     1      43.536 -19.368   1.853  1.00  0.00    -0.289 OA
HETATM   14  C   UNL     1      43.989 -20.372   2.656  1.00  0.00     0.106 A 
HETATM   15  C   UNL     1      44.282 -19.827   3.895  1.00  0.00     0.093 A 
HETATM   16  C   UNL     1      44.132 -21.715   2.327  1.00  0.00     0.040 A 
HETATM   17  N   UNL     1      44.030 -18.477   3.883  1.00  0.00    -0.221 NA
HETATM   18  C   UNL     1      44.751 -20.667   4.911  1.00  0.00     0.034 A 
HETATM   19  C   UNL     1      44.905 -22.032   4.622  1.00  0.00     0.002 A 
HETATM   20  C   UNL     1      44.603 -22.542   3.352  1.00  0.00     0.003 A 
ENDBRANCH   7  12
BRANCH   8  21
HETATM   21  O   UNL     1      43.408 -15.824   4.196  1.00  0.00    -0.359 OA
HETATM   22  H   UNL     1      43.203 -16.684   4.618  1.00  0.00     0.218 HD
ENDBRANCH   8  21
ENDBRANCH   2   5
BRANCH   1  23
HETATM   23  N   UNL     1      41.254 -13.371  -1.508  1.00  0.00    -0.299 N 
HETATM   24  C   UNL     1      42.362 -12.635  -1.921  1.00  0.00     0.257 C 
HETATM   25  O   UNL     1      43.124 -12.963  -2.821  1.00  0.00    -0.267 OA
HETATM   26  H   UNL     1      40.452 -12.815  -1.241  1.00  0.00     0.171 HD
BRANCH  24  27
HETATM   27  C   UNL     1      42.533 -11.319  -1.233  1.00  0.00     0.035 A 
HETATM   28  C   UNL     1      41.593 -10.927  -0.272  1.00  0.00     0.053 A 
HETATM   29  C   UNL     1      41.701  -9.688   0.367  1.00  0.00     0.069 A 
HETATM   30  C   UNL     1      42.761  -8.838   0.044  1.00  0.00     0.037 A 
HETATM   31  C   UNL     1      43.695  -9.215  -0.924  1.00  0.00     0.004 A 
HETATM   32  C   UNL     1      43.578 -10.447  -1.568  1.00  0.00     0.017 A 
BRANCH  29  33
HETATM   33  O   UNL     1      40.719  -9.423   1.283  1.00  0.00    -0.351 OA
BRANCH  33  34
HETATM   34  C   UNL     1      40.518 -10.387   2.316  1.00  0.00     0.175 C 
BRANCH  34  35
HETATM   35  C   UNL     1      39.046 -10.386   2.729  1.00  0.00     0.026 C 
BRANCH  35  36
HETATM   36  C   UNL     1      38.467 -11.799   2.817  1.00  0.00    -0.002 C 
HETATM   37  C   UNL     1      38.834 -12.624   1.594  1.00  0.00     0.005 C 
ENDBRANCH  35  36
ENDBRANCH  34  35
ENDBRANCH  33  34
ENDBRANCH  29  33
ENDBRANCH  24  27
ENDBRANCH   1  23
TORSDOF 9
ENDMDL
