MODEL 1
REMARK VINA RESULT:      -9.3      0.000      0.000
REMARK  8 active torsions:
REMARK  status: ('A' for Active; 'I' for Inactive)
REMARK    1  A    between atoms: N_5  and  C_6 
REMARK    2  A    between atoms: C_6  and  C_7 
REMARK       I    between atoms: C_7  and  N_8 
REMARK    3  A    between atoms: N_8  and  C_9 
REMARK    4  A    between atoms: N_19  and  C_20 
REMARK    5  A    between atoms: C_20  and  C_21 
REMARK    6  A    between atoms: C_24  and  C_25 
REMARK       I    between atoms: C_25  and  N_26 
REMARK    7  A    between atoms: N_26  and  C_27 
REMARK    8  A    between atoms: C_27  and  C_28 
ROOT
HETATM    1  C   UNL     1      44.447 -22.224   3.393  1.00  0.00     0.001 A 
HETATM    2  C   UNL     1      44.431 -21.273   4.408  1.00  0.00     0.019 A 
HETATM    3  C   UNL     1      44.216 -19.920   4.100  1.00  0.00     0.059 A 
HETATM    4  C   UNL     1      44.009 -19.501   2.786  1.00  0.00     0.055 A 
HETATM    5  N   UNL     1      43.799 -18.121   2.521  1.00  0.00    -0.290 N 
HETATM    6  C   UNL     1      43.884 -17.158   3.517  1.00  0.00     0.332 C 
HETATM    7  O   UNL     1      43.891 -15.959   3.227  1.00  0.00    -0.246 OA
HETATM    8  N   UNL     1      44.012 -17.604   4.821  1.00  0.00    -0.261 N 
HETATM    9  C   UNL     1      44.198 -18.929   5.186  1.00  0.00     0.264 C 
HETATM   10  O   UNL     1      44.358 -19.306   6.345  1.00  0.00    -0.267 OA
HETATM   11  C   UNL     1      44.034 -20.473   1.772  1.00  0.00     0.031 A 
HETATM   12  C   UNL     1      44.250 -21.823   2.077  1.00  0.00     0.002 A 
ENDROOT
BRANCH   8  13
HETATM   13  C   UNL     1      43.985 -16.609   5.887  1.00  0.00     0.175 C 
BRANCH  13  14
HETATM   14  C   UNL     1      42.815 -15.655   5.746  1.00  0.00    -0.040 A 
HETATM   15  C   UNL     1      41.498 -16.134   5.706  1.00  0.00     0.010 A 
HETATM   16  C   UNL     1      40.414 -15.255   5.574  1.00  0.00     0.017 A 
HETATM   17  C   UNL     1      40.630 -13.876   5.483  1.00  0.00     0.032 A 
HETATM   18  C   UNL     1      41.949 -13.397   5.521  1.00  0.00     0.017 A 
HETATM   19  C   UNL     1      43.030 -14.275   5.645  1.00  0.00     0.010 A 
BRANCH  17  20
HETATM   20  C   UNL     1      39.533 -12.868   5.341  1.00  0.00     0.251 C 
HETATM   21  N   UNL     1      39.494 -12.108   4.190  1.00  0.00    -0.353 N 
HETATM   22  H   UNL     1      40.110 -12.291   3.415  1.00  0.00     0.163 HD
HETATM   23  O   UNL     1      38.715 -12.730   6.244  1.00  0.00    -0.268 OA
BRANCH  21  24
HETATM   24  C   UNL     1      38.457 -11.119   3.986  1.00  0.00     0.161 C 
BRANCH  24  25
HETATM   25  C   UNL     1      38.361 -10.666   2.547  1.00  0.00    -0.038 A 
HETATM   26  C   UNL     1      39.532 -10.556   1.777  1.00  0.00     0.048 A 
HETATM   27  C   UNL     1      39.412 -10.217   0.445  1.00  0.00     0.105 A 
HETATM   28  C   UNL     1      38.189  -9.987  -0.137  1.00  0.00     0.105 A 
HETATM   29  O   UNL     1      40.438 -10.088  -0.438  1.00  0.00    -0.323 OA
HETATM   30  O   UNL     1      38.291  -9.679  -1.458  1.00  0.00    -0.323 OA
HETATM   31  C   UNL     1      37.017 -10.087   0.578  1.00  0.00     0.040 A 
HETATM   32  C   UNL     1      39.717  -9.780  -1.649  1.00  0.00     0.352 A 
HETATM   33  C   UNL     1      37.107 -10.445   1.928  1.00  0.00     0.012 A 
ENDBRANCH  24  25
ENDBRANCH  21  24
ENDBRANCH  17  20
ENDBRANCH  13  14
ENDBRANCH   8  13
BRANCH   5  34
HETATM   34  C   UNL     1      43.446 -17.673   1.166  1.00  0.00     0.237 C 
BRANCH  34  35
HETATM   35  C   UNL     1      41.986 -17.243   0.978  1.00  0.00     0.240 C 
HETATM   36  N   UNL     1      41.817 -15.882   0.804  1.00  0.00    -0.326 N 
HETATM   37  H   UNL     1      42.665 -15.327   0.784  1.00  0.00     0.169 HD
HETATM   38  O   UNL     1      41.088 -18.073   1.095  1.00  0.00    -0.271 OA
BRANCH  36  39
HETATM   39  C   UNL     1      40.604 -15.169   0.701  1.00  0.00     0.036 A 
HETATM   40  C   UNL     1      40.163 -14.534  -0.462  1.00  0.00     0.053 A 
HETATM   41  C   UNL     1      38.932 -13.873  -0.475  1.00  0.00     0.036 A 
HETATM   42 CL   UNL     1      38.384 -13.114  -1.921  1.00  0.00    -0.084 Cl
HETATM   43  C   UNL     1      38.136 -13.824   0.667  1.00  0.00     0.024 A 
HETATM   44  C   UNL     1      38.571 -14.448   1.833  1.00  0.00     0.004 A 
HETATM   45  C   UNL     1      39.797 -15.121   1.848  1.00  0.00     0.029 A 
ENDBRANCH  36  39
ENDBRANCH  34  35
ENDBRANCH   5  34
TORSDOF 8
ENDMDL
MODEL 2
REMARK VINA RESULT:      -9.1      2.796      8.629
REMARK  8 active torsions:
REMARK  status: ('A' for Active; 'I' for Inactive)
REMARK    1  A    between atoms: N_5  and  C_6 
REMARK    2  A    between atoms: C_6  and  C_7 
REMARK       I    between atoms: C_7  and  N_8 
REMARK    3  A    between atoms: N_8  and  C_9 
REMARK    4  A    between atoms: N_19  and  C_20 
REMARK    5  A    between atoms: C_20  and  C_21 
REMARK    6  A    between atoms: C_24  and  C_25 
REMARK       I    between atoms: C_25  and  N_26 
REMARK    7  A    between atoms: N_26  and  C_27 
REMARK    8  A    between atoms: C_27  and  C_28 
ROOT
HETATM    1  C   UNL     1      42.753 -10.317  -2.914  1.00  0.00     0.001 A 
HETATM    2  C   UNL     1      42.444  -9.992  -1.598  1.00  0.00     0.019 A 
HETATM    3  C   UNL     1      41.628 -10.844  -0.837  1.00  0.00     0.059 A 
HETATM    4  C   UNL     1      41.118 -12.026  -1.373  1.00  0.00     0.055 A 
HETATM    5  N   UNL     1      40.293 -12.857  -0.566  1.00  0.00    -0.290 N 
HETATM    6  C   UNL     1      39.900 -12.486   0.712  1.00  0.00     0.332 C 
HETATM    7  O   UNL     1      39.032 -13.128   1.309  1.00  0.00    -0.246 OA
HETATM    8  N   UNL     1      40.479 -11.349   1.250  1.00  0.00    -0.261 N 
HETATM    9  C   UNL     1      41.315 -10.487   0.555  1.00  0.00     0.264 C 
HETATM   10  O   UNL     1      41.785  -9.455   1.030  1.00  0.00    -0.267 OA
HETATM   11  C   UNL     1      41.435 -12.337  -2.705  1.00  0.00     0.031 A 
HETATM   12  C   UNL     1      42.247 -11.487  -3.467  1.00  0.00     0.002 A 
ENDROOT
BRANCH   8  13
HETATM   13  C   UNL     1      40.165 -11.013   2.634  1.00  0.00     0.175 C 
BRANCH  13  14
HETATM   14  C   UNL     1      41.037 -11.770   3.616  1.00  0.00    -0.040 A 
HETATM   15  C   UNL     1      40.905 -11.570   4.997  1.00  0.00     0.010 A 
HETATM   16  C   UNL     1      41.710 -12.267   5.909  1.00  0.00     0.017 A 
HETATM   17  C   UNL     1      42.664 -13.182   5.451  1.00  0.00     0.032 A 
HETATM   18  C   UNL     1      42.797 -13.381   4.068  1.00  0.00     0.017 A 
HETATM   19  C   UNL     1      41.998 -12.680   3.160  1.00  0.00     0.010 A 
BRANCH  17  20
HETATM   20  C   UNL     1      43.564 -13.969   6.352  1.00  0.00     0.251 C 
HETATM   21  N   UNL     1      43.761 -15.304   6.068  1.00  0.00    -0.353 N 
HETATM   22  H   UNL     1      43.407 -15.723   5.224  1.00  0.00     0.163 HD
HETATM   23  O   UNL     1      44.085 -13.420   7.317  1.00  0.00    -0.268 OA
BRANCH  21  24
HETATM   24  C   UNL     1      44.623 -16.121   6.896  1.00  0.00     0.161 C 
BRANCH  24  25
HETATM   25  C   UNL     1      44.399 -17.601   6.684  1.00  0.00    -0.038 A 
HETATM   26  C   UNL     1      44.998 -18.240   5.584  1.00  0.00     0.048 A 
HETATM   27  C   UNL     1      44.844 -19.606   5.455  1.00  0.00     0.105 A 
HETATM   28  C   UNL     1      44.127 -20.344   6.365  1.00  0.00     0.105 A 
HETATM   29  O   UNL     1      45.370 -20.374   4.465  1.00  0.00    -0.323 OA
HETATM   30  O   UNL     1      44.107 -21.669   6.061  1.00  0.00    -0.323 OA
HETATM   31  C   UNL     1      43.528 -19.760   7.459  1.00  0.00     0.040 A 
HETATM   32  C   UNL     1      44.928 -21.685   4.874  1.00  0.00     0.352 A 
HETATM   33  C   UNL     1      43.680 -18.378   7.624  1.00  0.00     0.012 A 
ENDBRANCH  24  25
ENDBRANCH  21  24
ENDBRANCH  17  20
ENDBRANCH  13  14
ENDBRANCH   8  13
BRANCH   5  34
HETATM   34  C   UNL     1      39.856 -14.170  -1.063  1.00  0.00     0.237 C 
BRANCH  34  35
HETATM   35  C   UNL     1      40.594 -15.374  -0.466  1.00  0.00     0.240 C 
HETATM   36  N   UNL     1      40.425 -15.519   0.899  1.00  0.00    -0.326 N 
HETATM   37  H   UNL     1      39.813 -14.846   1.346  1.00  0.00     0.169 HD
HETATM   38  O   UNL     1      41.341 -16.042  -1.176  1.00  0.00    -0.271 OA
BRANCH  36  39
HETATM   39  C   UNL     1      41.042 -16.461   1.749  1.00  0.00     0.036 A 
HETATM   40  C   UNL     1      41.870 -17.494   1.305  1.00  0.00     0.053 A 
HETATM   41  C   UNL     1      42.458 -18.365   2.226  1.00  0.00     0.036 A 
HETATM   42 CL   UNL     1      43.499 -19.621   1.672  1.00  0.00    -0.084 Cl
HETATM   43  C   UNL     1      42.219 -18.228   3.591  1.00  0.00     0.024 A 
HETATM   44  C   UNL     1      41.388 -17.206   4.042  1.00  0.00     0.004 A 
HETATM   45  C   UNL     1      40.807 -16.325   3.125  1.00  0.00     0.029 A 
ENDBRANCH  36  39
ENDBRANCH  34  35
ENDBRANCH   5  34
TORSDOF 8
ENDMDL
MODEL 3
REMARK VINA RESULT:      -9.1      5.131      8.297
REMARK  8 active torsions:
REMARK  status: ('A' for Active; 'I' for Inactive)
REMARK    1  A    between atoms: N_5  and  C_6 
REMARK    2  A    between atoms: C_6  and  C_7 
REMARK       I    between atoms: C_7  and  N_8 
REMARK    3  A    between atoms: N_8  and  C_9 
REMARK    4  A    between atoms: N_19  and  C_20 
REMARK    5  A    between atoms: C_20  and  C_21 
REMARK    6  A    between atoms: C_24  and  C_25 
REMARK       I    between atoms: C_25  and  N_26 
REMARK    7  A    between atoms: N_26  and  C_27 
REMARK    8  A    between atoms: C_27  and  C_28 
ROOT
HETATM    1  C   UNL     1      43.824 -18.733   1.846  1.00  0.00     0.001 A 
HETATM    2  C   UNL     1      42.929 -17.671   1.754  1.00  0.00     0.019 A 
HETATM    3  C   UNL     1      42.327 -17.159   2.914  1.00  0.00     0.059 A 
HETATM    4  C   UNL     1      42.612 -17.688   4.172  1.00  0.00     0.055 A 
HETATM    5  N   UNL     1      41.976 -17.138   5.319  1.00  0.00    -0.290 N 
HETATM    6  C   UNL     1      41.007 -16.149   5.221  1.00  0.00     0.332 C 
HETATM    7  O   UNL     1      40.337 -15.833   6.206  1.00  0.00    -0.246 OA
HETATM    8  N   UNL     1      40.798 -15.587   3.973  1.00  0.00    -0.261 N 
HETATM    9  C   UNL     1      41.387 -16.034   2.799  1.00  0.00     0.264 C 
HETATM   10  O   UNL     1      41.156 -15.556   1.690  1.00  0.00    -0.267 OA
HETATM   11  C   UNL     1      43.513 -18.762   4.247  1.00  0.00     0.031 A 
HETATM   12  C   UNL     1      44.114 -19.278   3.091  1.00  0.00     0.002 A 
ENDROOT
BRANCH   8  13
HETATM   13  C   UNL     1      39.868 -14.468   3.877  1.00  0.00     0.175 C 
BRANCH  13  14
HETATM   14  C   UNL     1      40.262 -13.321   4.787  1.00  0.00    -0.040 A 
HETATM   15  C   UNL     1      39.390 -12.862   5.784  1.00  0.00     0.010 A 
HETATM   16  C   UNL     1      39.750 -11.801   6.627  1.00  0.00     0.017 A 
HETATM   17  C   UNL     1      40.996 -11.181   6.486  1.00  0.00     0.032 A 
HETATM   18  C   UNL     1      41.868 -11.639   5.487  1.00  0.00     0.017 A 
HETATM   19  C   UNL     1      41.504 -12.693   4.643  1.00  0.00     0.010 A 
BRANCH  17  20
HETATM   20  C   UNL     1      41.461 -10.044   7.341  1.00  0.00     0.251 C 
HETATM   21  N   UNL     1      41.356 -10.175   8.710  1.00  0.00    -0.353 N 
HETATM   22  H   UNL     1      41.081 -11.044   9.138  1.00  0.00     0.163 HD
HETATM   23  O   UNL     1      41.904  -9.029   6.813  1.00  0.00    -0.268 OA
BRANCH  21  24
HETATM   24  C   UNL     1      41.793  -9.116   9.595  1.00  0.00     0.161 C 
BRANCH  24  25
HETATM   25  C   UNL     1      41.699  -9.502  11.054  1.00  0.00    -0.038 A 
HETATM   26  C   UNL     1      42.538  -8.875  11.991  1.00  0.00     0.048 A 
HETATM   27  C   UNL     1      42.379  -9.187  13.326  1.00  0.00     0.105 A 
HETATM   28  C   UNL     1      41.432 -10.086  13.753  1.00  0.00     0.105 A 
HETATM   29  O   UNL     1      43.094  -8.660  14.356  1.00  0.00    -0.323 OA
HETATM   30  O   UNL     1      41.433 -10.241  15.104  1.00  0.00    -0.323 OA
HETATM   31  C   UNL     1      40.586 -10.719  12.870  1.00  0.00     0.040 A 
HETATM   32  C   UNL     1      42.466  -9.307  15.481  1.00  0.00     0.352 A 
HETATM   33  C   UNL     1      40.714 -10.411  11.511  1.00  0.00     0.012 A 
ENDBRANCH  24  25
ENDBRANCH  21  24
ENDBRANCH  17  20
ENDBRANCH  13  14
ENDBRANCH   8  13
BRANCH   5  34
HETATM   34  C   UNL     1      42.360 -17.588   6.664  1.00  0.00     0.237 C 
BRANCH  34  35
HETATM   35  C   UNL     1      43.209 -16.596   7.468  1.00  0.00     0.240 C 
HETATM   36  N   UNL     1      43.484 -15.417   6.799  1.00  0.00    -0.326 N 
HETATM   37  H   UNL     1      43.072 -15.322   5.878  1.00  0.00     0.169 HD
HETATM   38  O   UNL     1      43.664 -16.930   8.560  1.00  0.00    -0.271 OA
BRANCH  36  39
HETATM   39  C   UNL     1      44.308 -14.355   7.226  1.00  0.00     0.036 A 
HETATM   40  C   UNL     1      44.035 -13.544   8.329  1.00  0.00     0.053 A 
HETATM   41  C   UNL     1      44.926 -12.530   8.691  1.00  0.00     0.036 A 
HETATM   42 CL   UNL     1      44.593 -11.551  10.069  1.00  0.00    -0.084 Cl
HETATM   43  C   UNL     1      46.087 -12.304   7.955  1.00  0.00     0.024 A 
HETATM   44  C   UNL     1      46.363 -13.103   6.849  1.00  0.00     0.004 A 
HETATM   45  C   UNL     1      45.480 -14.126   6.490  1.00  0.00     0.029 A 
ENDBRANCH  36  39
ENDBRANCH  34  35
ENDBRANCH   5  34
TORSDOF 8
ENDMDL
MODEL 4
REMARK VINA RESULT:      -8.9      4.803      7.225
REMARK  8 active torsions:
REMARK  status: ('A' for Active; 'I' for Inactive)
REMARK    1  A    between atoms: N_5  and  C_6 
REMARK    2  A    between atoms: C_6  and  C_7 
REMARK       I    between atoms: C_7  and  N_8 
REMARK    3  A    between atoms: N_8  and  C_9 
REMARK    4  A    between atoms: N_19  and  C_20 
REMARK    5  A    between atoms: C_20  and  C_21 
REMARK    6  A    between atoms: C_24  and  C_25 
REMARK       I    between atoms: C_25  and  N_26 
REMARK    7  A    between atoms: N_26  and  C_27 
REMARK    8  A    between atoms: C_27  and  C_28 
ROOT
HETATM    1  C   UNL     1      43.929 -19.242   5.815  1.00  0.00     0.001 A 
HETATM    2  C   UNL     1      42.883 -18.386   6.142  1.00  0.00     0.019 A 
HETATM    3  C   UNL     1      42.422 -17.450   5.201  1.00  0.00     0.059 A 
HETATM    4  C   UNL     1      42.988 -17.362   3.931  1.00  0.00     0.055 A 
HETATM    5  N   UNL     1      42.491 -16.398   3.012  1.00  0.00    -0.290 N 
HETATM    6  C   UNL     1      41.518 -15.474   3.369  1.00  0.00     0.332 C 
HETATM    7  O   UNL     1      41.249 -14.531   2.620  1.00  0.00    -0.246 OA
HETATM    8  N   UNL     1      40.918 -15.630   4.606  1.00  0.00    -0.261 N 
HETATM    9  C   UNL     1      41.312 -16.555   5.562  1.00  0.00     0.264 C 
HETATM   10  O   UNL     1      40.801 -16.652   6.676  1.00  0.00    -0.267 OA
HETATM   11  C   UNL     1      44.047 -18.231   3.619  1.00  0.00     0.031 A 
HETATM   12  C   UNL     1      44.511 -19.164   4.556  1.00  0.00     0.002 A 
ENDROOT
BRANCH   8  13
HETATM   13  C   UNL     1      39.814 -14.739   4.946  1.00  0.00     0.175 C 
BRANCH  13  14
HETATM   14  C   UNL     1      40.286 -13.508   5.695  1.00  0.00    -0.040 A 
HETATM   15  C   UNL     1      41.628 -13.106   5.643  1.00  0.00     0.010 A 
HETATM   16  C   UNL     1      42.069 -11.969   6.335  1.00  0.00     0.017 A 
HETATM   17  C   UNL     1      41.169 -11.211   7.091  1.00  0.00     0.032 A 
HETATM   18  C   UNL     1      39.826 -11.615   7.145  1.00  0.00     0.017 A 
HETATM   19  C   UNL     1      39.390 -12.754   6.460  1.00  0.00     0.010 A 
BRANCH  17  20
HETATM   20  C   UNL     1      41.552  -9.985   7.860  1.00  0.00     0.251 C 
HETATM   21  N   UNL     1      41.341  -9.981   9.223  1.00  0.00    -0.353 N 
HETATM   22  H   UNL     1      41.044 -10.808   9.714  1.00  0.00     0.163 HD
HETATM   23  O   UNL     1      42.023  -9.020   7.267  1.00  0.00    -0.268 OA
BRANCH  21  24
HETATM   24  C   UNL     1      41.695  -8.829  10.027  1.00  0.00     0.161 C 
BRANCH  24  25
HETATM   25  C   UNL     1      41.926  -9.184  11.478  1.00  0.00    -0.038 A 
HETATM   26  C   UNL     1      41.435  -8.333  12.484  1.00  0.00     0.048 A 
HETATM   27  C   UNL     1      41.590  -8.718  13.801  1.00  0.00     0.105 A 
HETATM   28  C   UNL     1      42.206  -9.897  14.144  1.00  0.00     0.105 A 
HETATM   29  O   UNL     1      41.159  -8.022  14.887  1.00  0.00    -0.323 OA
HETATM   30  O   UNL     1      42.245 -10.090  15.490  1.00  0.00    -0.323 OA
HETATM   31  C   UNL     1      42.697 -10.761  13.192  1.00  0.00     0.040 A 
HETATM   32  C   UNL     1      41.547  -8.915  15.952  1.00  0.00     0.352 A 
HETATM   33  C   UNL     1      42.540 -10.404  11.847  1.00  0.00     0.012 A 
ENDBRANCH  24  25
ENDBRANCH  21  24
ENDBRANCH  17  20
ENDBRANCH  13  14
ENDBRANCH   8  13
BRANCH   5  34
HETATM   34  C   UNL     1      42.979 -16.376   1.626  1.00  0.00     0.237 C 
BRANCH  34  35
HETATM   35  C   UNL     1      41.891 -16.451   0.548  1.00  0.00     0.240 C 
HETATM   36  N   UNL     1      41.804 -15.322  -0.245  1.00  0.00    -0.326 N 
HETATM   37  H   UNL     1      42.481 -14.591  -0.055  1.00  0.00     0.169 HD
HETATM   38  O   UNL     1      41.128 -17.414   0.521  1.00  0.00    -0.271 OA
BRANCH  36  39
HETATM   39  C   UNL     1      40.855 -15.046  -1.252  1.00  0.00     0.036 A 
HETATM   40  C   UNL     1      39.784 -14.163  -1.100  1.00  0.00     0.053 A 
HETATM   41  C   UNL     1      38.908 -13.934  -2.164  1.00  0.00     0.036 A 
HETATM   42 CL   UNL     1      37.605 -12.824  -1.976  1.00  0.00    -0.084 Cl
HETATM   43  C   UNL     1      39.079 -14.589  -3.382  1.00  0.00     0.024 A 
HETATM   44  C   UNL     1      40.139 -15.477  -3.540  1.00  0.00     0.004 A 
HETATM   45  C   UNL     1      41.025 -15.700  -2.481  1.00  0.00     0.029 A 
ENDBRANCH  36  39
ENDBRANCH  34  35
ENDBRANCH   5  34
TORSDOF 8
ENDMDL
MODEL 5
REMARK VINA RESULT:      -8.8      2.496      8.698
REMARK  8 active torsions:
REMARK  status: ('A' for Active; 'I' for Inactive)
REMARK    1  A    between atoms: N_5  and  C_6 
REMARK    2  A    between atoms: C_6  and  C_7 
REMARK       I    between atoms: C_7  and  N_8 
REMARK    3  A    between atoms: N_8  and  C_9 
REMARK    4  A    between atoms: N_19  and  C_20 
REMARK    5  A    between atoms: C_20  and  C_21 
REMARK    6  A    between atoms: C_24  and  C_25 
REMARK       I    between atoms: C_25  and  N_26 
REMARK    7  A    between atoms: N_26  and  C_27 
REMARK    8  A    between atoms: C_27  and  C_28 
ROOT
HETATM    1  C   UNL     1      43.073  -8.638  -1.720  1.00  0.00     0.001 A 
HETATM    2  C   UNL     1      42.622  -8.647  -0.405  1.00  0.00     0.019 A 
HETATM    3  C   UNL     1      41.578  -9.508  -0.027  1.00  0.00     0.059 A 
HETATM    4  C   UNL     1      40.981 -10.368  -0.947  1.00  0.00     0.055 A 
HETATM    5  N   UNL     1      39.926 -11.220  -0.519  1.00  0.00    -0.290 N 
HETATM    6  C   UNL     1      39.404 -11.159   0.766  1.00  0.00     0.332 C 
HETATM    7  O   UNL     1      38.368 -11.765   1.048  1.00  0.00    -0.246 OA
HETATM    8  N   UNL     1      40.063 -10.354   1.680  1.00  0.00    -0.261 N 
HETATM    9  C   UNL     1      41.116  -9.507   1.369  1.00  0.00     0.264 C 
HETATM   10  O   UNL     1      41.661  -8.763   2.181  1.00  0.00    -0.267 OA
HETATM   11  C   UNL     1      41.445 -10.342  -2.272  1.00  0.00     0.031 A 
HETATM   12  C   UNL     1      42.484  -9.483  -2.653  1.00  0.00     0.002 A 
ENDROOT
BRANCH   8  13
HETATM   13  C   UNL     1      39.597 -10.372   3.062  1.00  0.00     0.175 C 
BRANCH  13  14
HETATM   14  C   UNL     1      40.007 -11.639   3.786  1.00  0.00    -0.040 A 
HETATM   15  C   UNL     1      41.298 -12.165   3.637  1.00  0.00     0.010 A 
HETATM   16  C   UNL     1      41.682 -13.338   4.304  1.00  0.00     0.017 A 
HETATM   17  C   UNL     1      40.776 -14.004   5.136  1.00  0.00     0.032 A 
HETATM   18  C   UNL     1      39.483 -13.478   5.283  1.00  0.00     0.017 A 
HETATM   19  C   UNL     1      39.100 -12.313   4.612  1.00  0.00     0.010 A 
BRANCH  17  20
HETATM   20  C   UNL     1      41.100 -15.259   5.885  1.00  0.00     0.251 C 
HETATM   21  N   UNL     1      42.383 -15.414   6.367  1.00  0.00    -0.353 N 
HETATM   22  H   UNL     1      43.059 -14.669   6.321  1.00  0.00     0.163 HD
HETATM   23  O   UNL     1      40.236 -16.115   6.036  1.00  0.00    -0.268 OA
BRANCH  21  24
HETATM   24  C   UNL     1      42.763 -16.602   7.104  1.00  0.00     0.161 C 
BRANCH  24  25
HETATM   25  C   UNL     1      43.403 -17.651   6.224  1.00  0.00    -0.038 A 
HETATM   26  C   UNL     1      43.592 -18.951   6.724  1.00  0.00     0.048 A 
HETATM   27  C   UNL     1      44.106 -19.911   5.876  1.00  0.00     0.105 A 
HETATM   28  C   UNL     1      44.434 -19.628   4.573  1.00  0.00     0.105 A 
HETATM   29  O   UNL     1      44.333 -21.214   6.196  1.00  0.00    -0.323 OA
HETATM   30  O   UNL     1      44.912 -20.713   3.908  1.00  0.00    -0.323 OA
HETATM   31  C   UNL     1      44.261 -18.370   4.041  1.00  0.00     0.040 A 
HETATM   32  C   UNL     1      44.811 -21.723   4.934  1.00  0.00     0.352 A 
HETATM   33  C   UNL     1      43.727 -17.379   4.873  1.00  0.00     0.012 A 
ENDBRANCH  24  25
ENDBRANCH  21  24
ENDBRANCH  17  20
ENDBRANCH  13  14
ENDBRANCH   8  13
BRANCH   5  34
HETATM   34  C   UNL     1      39.373 -12.228  -1.435  1.00  0.00     0.237 C 
BRANCH  34  35
HETATM   35  C   UNL     1      39.693 -13.684  -1.075  1.00  0.00     0.240 C 
HETATM   36  N   UNL     1      40.174 -13.854   0.211  1.00  0.00    -0.326 N 
HETATM   37  H   UNL     1      40.230 -13.017   0.780  1.00  0.00     0.169 HD
HETATM   38  O   UNL     1      39.611 -14.556  -1.937  1.00  0.00    -0.271 OA
BRANCH  36  39
HETATM   39  C   UNL     1      40.643 -15.044   0.805  1.00  0.00     0.036 A 
HETATM   40  C   UNL     1      41.840 -15.675   0.460  1.00  0.00     0.053 A 
HETATM   41  C   UNL     1      42.235 -16.840   1.124  1.00  0.00     0.036 A 
HETATM   42 CL   UNL     1      43.726 -17.597   0.709  1.00  0.00    -0.084 Cl
HETATM   43  C   UNL     1      41.441 -17.395   2.124  1.00  0.00     0.024 A 
HETATM   44  C   UNL     1      40.242 -16.778   2.469  1.00  0.00     0.004 A 
HETATM   45  C   UNL     1      39.848 -15.606   1.816  1.00  0.00     0.029 A 
ENDBRANCH  36  39
ENDBRANCH  34  35
ENDBRANCH   5  34
TORSDOF 8
ENDMDL
MODEL 6
REMARK VINA RESULT:      -8.8      4.191      7.117
REMARK  8 active torsions:
REMARK  status: ('A' for Active; 'I' for Inactive)
REMARK    1  A    between atoms: N_5  and  C_6 
REMARK    2  A    between atoms: C_6  and  C_7 
REMARK       I    between atoms: C_7  and  N_8 
REMARK    3  A    between atoms: N_8  and  C_9 
REMARK    4  A    between atoms: N_19  and  C_20 
REMARK    5  A    between atoms: C_20  and  C_21 
REMARK    6  A    between atoms: C_24  and  C_25 
REMARK       I    between atoms: C_25  and  N_26 
REMARK    7  A    between atoms: N_26  and  C_27 
REMARK    8  A    between atoms: C_27  and  C_28 
ROOT
HETATM    1  C   UNL     1      44.300 -19.714   3.395  1.00  0.00     0.001 A 
HETATM    2  C   UNL     1      43.409 -19.055   2.555  1.00  0.00     0.019 A 
HETATM    3  C   UNL     1      42.649 -17.979   3.043  1.00  0.00     0.059 A 
HETATM    4  C   UNL     1      42.772 -17.546   4.362  1.00  0.00     0.055 A 
HETATM    5  N   UNL     1      41.980 -16.455   4.813  1.00  0.00    -0.290 N 
HETATM    6  C   UNL     1      41.017 -15.861   4.008  1.00  0.00     0.332 C 
HETATM    7  O   UNL     1      40.217 -15.054   4.485  1.00  0.00    -0.246 OA
HETATM    8  N   UNL     1      40.968 -16.256   2.682  1.00  0.00    -0.261 N 
HETATM    9  C   UNL     1      41.715 -17.291   2.139  1.00  0.00     0.264 C 
HETATM   10  O   UNL     1      41.627 -17.662   0.971  1.00  0.00    -0.267 OA
HETATM   11  C   UNL     1      43.672 -18.226   5.198  1.00  0.00     0.031 A 
HETATM   12  C   UNL     1      44.430 -19.301   4.716  1.00  0.00     0.002 A 
ENDROOT
BRANCH   8  13
HETATM   13  C   UNL     1      40.041 -15.558   1.797  1.00  0.00     0.175 C 
BRANCH  13  14
HETATM   14  C   UNL     1      40.721 -14.445   1.024  1.00  0.00    -0.040 A 
HETATM   15  C   UNL     1      41.465 -13.460   1.688  1.00  0.00     0.010 A 
HETATM   16  C   UNL     1      42.095 -12.428   0.976  1.00  0.00     0.017 A 
HETATM   17  C   UNL     1      41.993 -12.369  -0.418  1.00  0.00     0.032 A 
HETATM   18  C   UNL     1      41.246 -13.355  -1.081  1.00  0.00     0.017 A 
HETATM   19  C   UNL     1      40.613 -14.378  -0.370  1.00  0.00     0.010 A 
BRANCH  17  20
HETATM   20  C   UNL     1      42.632 -11.305  -1.255  1.00  0.00     0.251 C 
HETATM   21  N   UNL     1      42.254 -11.206  -2.578  1.00  0.00    -0.353 N 
HETATM   22  H   UNL     1      41.495 -11.751  -2.953  1.00  0.00     0.163 HD
HETATM   23  O   UNL     1      43.476 -10.568  -0.758  1.00  0.00    -0.268 OA
BRANCH  21  24
HETATM   24  C   UNL     1      42.829 -10.197  -3.443  1.00  0.00     0.161 C 
BRANCH  24  25
HETATM   25  C   UNL     1      41.969  -9.909  -4.652  1.00  0.00    -0.038 A 
HETATM   26  C   UNL     1      42.528  -9.244  -5.756  1.00  0.00     0.048 A 
HETATM   27  C   UNL     1      41.745  -9.063  -6.878  1.00  0.00     0.105 A 
HETATM   28  C   UNL     1      40.448  -9.511  -6.938  1.00  0.00     0.105 A 
HETATM   29  O   UNL     1      42.138  -8.458  -8.032  1.00  0.00    -0.323 OA
HETATM   30  O   UNL     1      39.858  -9.242  -8.133  1.00  0.00    -0.323 OA
HETATM   31  C   UNL     1      39.862 -10.172  -5.881  1.00  0.00     0.040 A 
HETATM   32  C   UNL     1      40.948  -8.607  -8.834  1.00  0.00     0.352 A 
HETATM   33  C   UNL     1      40.637 -10.383  -4.735  1.00  0.00     0.012 A 
ENDBRANCH  24  25
ENDBRANCH  21  24
ENDBRANCH  17  20
ENDBRANCH  13  14
ENDBRANCH   8  13
BRANCH   5  34
HETATM   34  C   UNL     1      42.189 -15.895   6.156  1.00  0.00     0.237 C 
BRANCH  34  35
HETATM   35  C   UNL     1      43.123 -14.681   6.221  1.00  0.00     0.240 C 
HETATM   36  N   UNL     1      43.879 -14.612   7.377  1.00  0.00    -0.326 N 
HETATM   37  H   UNL     1      43.761 -15.377   8.032  1.00  0.00     0.169 HD
HETATM   38  O   UNL     1      43.073 -13.827   5.338  1.00  0.00    -0.271 OA
BRANCH  36  39
HETATM   39  C   UNL     1      44.753 -13.580   7.775  1.00  0.00     0.036 A 
HETATM   40  C   UNL     1      44.495 -12.692   8.822  1.00  0.00     0.053 A 
HETATM   41  C   UNL     1      45.435 -11.715   9.161  1.00  0.00     0.036 A 
HETATM   42 CL   UNL     1      45.120 -10.642  10.470  1.00  0.00    -0.084 Cl
HETATM   43  C   UNL     1      46.631 -11.602   8.456  1.00  0.00     0.024 A 
HETATM   44  C   UNL     1      46.893 -12.476   7.406  1.00  0.00     0.004 A 
HETATM   45  C   UNL     1      45.961 -13.463   7.071  1.00  0.00     0.029 A 
ENDBRANCH  36  39
ENDBRANCH  34  35
ENDBRANCH   5  34
TORSDOF 8
ENDMDL
MODEL 7
REMARK VINA RESULT:      -8.6      3.939      9.463
REMARK  8 active torsions:
REMARK  status: ('A' for Active; 'I' for Inactive)
REMARK    1  A    between atoms: N_5  and  C_6 
REMARK    2  A    between atoms: C_6  and  C_7 
REMARK       I    between atoms: C_7  and  N_8 
REMARK    3  A    between atoms: N_8  and  C_9 
REMARK    4  A    between atoms: N_19  and  C_20 
REMARK    5  A    between atoms: C_20  and  C_21 
REMARK    6  A    between atoms: C_24  and  C_25 
REMARK       I    between atoms: C_25  and  N_26 
REMARK    7  A    between atoms: N_26  and  C_27 
REMARK    8  A    between atoms: C_27  and  C_28 
ROOT
HETATM    1  C   UNL     1      42.162 -10.926  13.412  1.00  0.00     0.001 A 
HETATM    2  C   UNL     1      43.130 -11.576  12.653  1.00  0.00     0.019 A 
HETATM    3  C   UNL     1      43.102 -11.484  11.252  1.00  0.00     0.059 A 
HETATM    4  C   UNL     1      42.121 -10.743  10.595  1.00  0.00     0.055 A 
HETATM    5  N   UNL     1      42.131 -10.681   9.174  1.00  0.00    -0.290 N 
HETATM    6  C   UNL     1      43.032 -11.410   8.411  1.00  0.00     0.332 C 
HETATM    7  O   UNL     1      42.893 -11.490   7.188  1.00  0.00    -0.246 OA
HETATM    8  N   UNL     1      44.042 -12.075   9.085  1.00  0.00    -0.261 N 
HETATM    9  C   UNL     1      44.136 -12.174  10.466  1.00  0.00     0.264 C 
HETATM   10  O   UNL     1      45.011 -12.808  11.051  1.00  0.00    -0.267 OA
HETATM   11  C   UNL     1      41.149 -10.097  11.375  1.00  0.00     0.031 A 
HETATM   12  C   UNL     1      41.172 -10.189  12.773  1.00  0.00     0.002 A 
ENDROOT
BRANCH   8  13
HETATM   13  C   UNL     1      45.063 -12.748   8.290  1.00  0.00     0.175 C 
BRANCH  13  14
HETATM   14  C   UNL     1      44.463 -13.746   7.320  1.00  0.00    -0.040 A 
HETATM   15  C   UNL     1      43.978 -14.983   7.768  1.00  0.00     0.010 A 
HETATM   16  C   UNL     1      43.422 -15.909   6.874  1.00  0.00     0.017 A 
HETATM   17  C   UNL     1      43.341 -15.610   5.510  1.00  0.00     0.032 A 
HETATM   18  C   UNL     1      43.828 -14.373   5.061  1.00  0.00     0.017 A 
HETATM   19  C   UNL     1      44.388 -13.453   5.953  1.00  0.00     0.010 A 
BRANCH  17  20
HETATM   20  C   UNL     1      42.764 -16.538   4.487  1.00  0.00     0.251 C 
HETATM   21  N   UNL     1      43.596 -17.004   3.490  1.00  0.00    -0.353 N 
HETATM   22  H   UNL     1      44.586 -16.823   3.501  1.00  0.00     0.163 HD
HETATM   23  O   UNL     1      41.578 -16.845   4.547  1.00  0.00    -0.268 OA
BRANCH  21  24
HETATM   24  C   UNL     1      43.104 -17.908   2.472  1.00  0.00     0.161 C 
BRANCH  24  25
HETATM   25  C   UNL     1      43.606 -19.322   2.659  1.00  0.00    -0.038 A 
HETATM   26  C   UNL     1      44.204 -19.687   3.878  1.00  0.00     0.048 A 
HETATM   27  C   UNL     1      44.584 -21.003   4.053  1.00  0.00     0.105 A 
HETATM   28  C   UNL     1      44.393 -21.949   3.075  1.00  0.00     0.105 A 
HETATM   29  O   UNL     1      45.156 -21.522   5.172  1.00  0.00    -0.323 OA
HETATM   30  O   UNL     1      44.826 -23.182   3.453  1.00  0.00    -0.323 OA
HETATM   31  C   UNL     1      43.808 -21.636   1.870  1.00  0.00     0.040 A 
HETATM   32  C   UNL     1      45.275 -22.910   4.797  1.00  0.00     0.352 A 
HETATM   33  C   UNL     1      43.399 -20.312   1.669  1.00  0.00     0.012 A 
ENDBRANCH  24  25
ENDBRANCH  21  24
ENDBRANCH  17  20
ENDBRANCH  13  14
ENDBRANCH   8  13
BRANCH   5  34
HETATM   34  C   UNL     1      41.191  -9.799   8.466  1.00  0.00     0.237 C 
BRANCH  34  35
HETATM   35  C   UNL     1      40.238 -10.506   7.494  1.00  0.00     0.240 C 
HETATM   36  N   UNL     1      40.559 -10.328   6.161  1.00  0.00    -0.326 N 
HETATM   37  H   UNL     1      41.396  -9.788   5.973  1.00  0.00     0.169 HD
HETATM   38  O   UNL     1      39.236 -11.069   7.927  1.00  0.00    -0.271 OA
BRANCH  36  39
HETATM   39  C   UNL     1      39.833 -10.766   5.034  1.00  0.00     0.036 A 
HETATM   40  C   UNL     1      40.002 -12.012   4.427  1.00  0.00     0.053 A 
HETATM   41  C   UNL     1      39.217 -12.368   3.327  1.00  0.00     0.036 A 
HETATM   42 CL   UNL     1      39.415 -13.918   2.601  1.00  0.00    -0.084 Cl
HETATM   43  C   UNL     1      38.269 -11.487   2.812  1.00  0.00     0.024 A 
HETATM   44  C   UNL     1      38.100 -10.240   3.405  1.00  0.00     0.004 A 
HETATM   45  C   UNL     1      38.875  -9.884   4.513  1.00  0.00     0.029 A 
ENDBRANCH  36  39
ENDBRANCH  34  35
ENDBRANCH   5  34
TORSDOF 8
ENDMDL
MODEL 8
REMARK VINA RESULT:      -8.5      3.610      8.997
REMARK  8 active torsions:
REMARK  status: ('A' for Active; 'I' for Inactive)
REMARK    1  A    between atoms: N_5  and  C_6 
REMARK    2  A    between atoms: C_6  and  C_7 
REMARK       I    between atoms: C_7  and  N_8 
REMARK    3  A    between atoms: N_8  and  C_9 
REMARK    4  A    between atoms: N_19  and  C_20 
REMARK    5  A    between atoms: C_20  and  C_21 
REMARK    6  A    between atoms: C_24  and  C_25 
REMARK       I    between atoms: C_25  and  N_26 
REMARK    7  A    between atoms: N_26  and  C_27 
REMARK    8  A    between atoms: C_27  and  C_28 
ROOT
HETATM    1  C   UNL     1      42.846 -10.783  -2.580  1.00  0.00     0.001 A 
HETATM    2  C   UNL     1      42.207 -10.927  -1.353  1.00  0.00     0.019 A 
HETATM    3  C   UNL     1      41.160 -11.853  -1.212  1.00  0.00     0.059 A 
HETATM    4  C   UNL     1      40.746 -12.645  -2.281  1.00  0.00     0.055 A 
HETATM    5  N   UNL     1      39.680 -13.567  -2.092  1.00  0.00    -0.290 N 
HETATM    6  C   UNL     1      38.972 -13.641  -0.900  1.00  0.00     0.332 C 
HETATM    7  O   UNL     1      37.935 -14.305  -0.830  1.00  0.00    -0.246 OA
HETATM    8  N   UNL     1      39.451 -12.902   0.169  1.00  0.00    -0.261 N 
HETATM    9  C   UNL     1      40.498 -11.995   0.094  1.00  0.00     0.264 C 
HETATM   10  O   UNL     1      40.882 -11.310   1.039  1.00  0.00    -0.267 OA
HETATM   11  C   UNL     1      41.398 -12.484  -3.514  1.00  0.00     0.031 A 
HETATM   12  C   UNL     1      42.441 -11.560  -3.659  1.00  0.00     0.002 A 
ENDROOT
BRANCH   8  13
HETATM   13  C   UNL     1      38.787 -13.060   1.458  1.00  0.00     0.175 C 
BRANCH  13  14
HETATM   14  C   UNL     1      39.554 -13.986   2.383  1.00  0.00    -0.040 A 
HETATM   15  C   UNL     1      40.004 -13.540   3.634  1.00  0.00     0.010 A 
HETATM   16  C   UNL     1      40.714 -14.392   4.492  1.00  0.00     0.017 A 
HETATM   17  C   UNL     1      40.984 -15.711   4.111  1.00  0.00     0.032 A 
HETATM   18  C   UNL     1      40.535 -16.156   2.858  1.00  0.00     0.017 A 
HETATM   19  C   UNL     1      39.833 -15.303   2.001  1.00  0.00     0.010 A 
BRANCH  17  20
HETATM   20  C   UNL     1      41.733 -16.687   4.963  1.00  0.00     0.251 C 
HETATM   21  N   UNL     1      43.085 -16.842   4.737  1.00  0.00    -0.353 N 
HETATM   22  H   UNL     1      43.586 -16.245   4.100  1.00  0.00     0.163 HD
HETATM   23  O   UNL     1      41.134 -17.330   5.819  1.00  0.00    -0.268 OA
BRANCH  21  24
HETATM   24  C   UNL     1      43.871 -17.765   5.529  1.00  0.00     0.161 C 
BRANCH  24  25
HETATM   25  C   UNL     1      44.032 -19.112   4.860  1.00  0.00    -0.038 A 
HETATM   26  C   UNL     1      43.796 -19.230   3.479  1.00  0.00     0.048 A 
HETATM   27  C   UNL     1      44.026 -20.451   2.877  1.00  0.00     0.105 A 
HETATM   28  C   UNL     1      44.473 -21.538   3.589  1.00  0.00     0.105 A 
HETATM   29  O   UNL     1      43.866 -20.727   1.555  1.00  0.00    -0.323 OA
HETATM   30  O   UNL     1      44.645 -22.637   2.807  1.00  0.00    -0.323 OA
HETATM   31  C   UNL     1      44.720 -21.465   4.941  1.00  0.00     0.040 A 
HETATM   32  C   UNL     1      44.293 -22.105   1.513  1.00  0.00     0.352 A 
HETATM   33  C   UNL     1      44.510 -20.235   5.576  1.00  0.00     0.012 A 
ENDBRANCH  24  25
ENDBRANCH  21  24
ENDBRANCH  17  20
ENDBRANCH  13  14
ENDBRANCH   8  13
BRANCH   5  34
HETATM   34  C   UNL     1      39.315 -14.506  -3.162  1.00  0.00     0.237 C 
BRANCH  34  35
HETATM   35  C   UNL     1      37.882 -14.372  -3.690  1.00  0.00     0.240 C 
HETATM   36  N   UNL     1      37.497 -13.071  -3.955  1.00  0.00    -0.326 N 
HETATM   37  H   UNL     1      38.204 -12.359  -3.809  1.00  0.00     0.169 HD
HETATM   38  O   UNL     1      37.158 -15.364  -3.741  1.00  0.00    -0.271 OA
BRANCH  36  39
HETATM   39  C   UNL     1      36.226 -12.612  -4.357  1.00  0.00     0.036 A 
HETATM   40  C   UNL     1      35.439 -11.729  -3.614  1.00  0.00     0.053 A 
HETATM   41  C   UNL     1      34.200 -11.310  -4.106  1.00  0.00     0.036 A 
HETATM   42 CL   UNL     1      33.248 -10.201  -3.195  1.00  0.00    -0.084 Cl
HETATM   43  C   UNL     1      33.726 -11.773  -5.331  1.00  0.00     0.024 A 
HETATM   44  C   UNL     1      34.499 -12.659  -6.075  1.00  0.00     0.004 A 
HETATM   45  C   UNL     1      35.745 -13.072  -5.592  1.00  0.00     0.029 A 
ENDBRANCH  36  39
ENDBRANCH  34  35
ENDBRANCH   5  34
TORSDOF 8
ENDMDL
MODEL 9
REMARK VINA RESULT:      -8.4      1.447      2.141
REMARK  8 active torsions:
REMARK  status: ('A' for Active; 'I' for Inactive)
REMARK    1  A    between atoms: N_5  and  C_6 
REMARK    2  A    between atoms: C_6  and  C_7 
REMARK       I    between atoms: C_7  and  N_8 
REMARK    3  A    between atoms: N_8  and  C_9 
REMARK    4  A    between atoms: N_19  and  C_20 
REMARK    5  A    between atoms: C_20  and  C_21 
REMARK    6  A    between atoms: C_24  and  C_25 
REMARK       I    between atoms: C_25  and  N_26 
REMARK    7  A    between atoms: N_26  and  C_27 
REMARK    8  A    between atoms: C_27  and  C_28 
ROOT
HETATM    1  C   UNL     1      44.640 -21.824   4.758  1.00  0.00     0.001 A 
HETATM    2  C   UNL     1      44.256 -20.799   5.616  1.00  0.00     0.019 A 
HETATM    3  C   UNL     1      44.012 -19.513   5.108  1.00  0.00     0.059 A 
HETATM    4  C   UNL     1      44.140 -19.236   3.748  1.00  0.00     0.055 A 
HETATM    5  N   UNL     1      43.885 -17.918   3.279  1.00  0.00    -0.290 N 
HETATM    6  C   UNL     1      43.603 -16.870   4.145  1.00  0.00     0.332 C 
HETATM    7  O   UNL     1      43.581 -15.708   3.731  1.00  0.00    -0.246 OA
HETATM    8  N   UNL     1      43.406 -17.184   5.479  1.00  0.00    -0.261 N 
HETATM    9  C   UNL     1      43.604 -18.442   6.029  1.00  0.00     0.264 C 
HETATM   10  O   UNL     1      43.471 -18.696   7.224  1.00  0.00    -0.267 OA
HETATM   11  C   UNL     1      44.533 -20.281   2.896  1.00  0.00     0.031 A 
HETATM   12  C   UNL     1      44.780 -21.564   3.400  1.00  0.00     0.002 A 
ENDROOT
BRANCH   8  13
HETATM   13  C   UNL     1      42.993 -16.112   6.377  1.00  0.00     0.175 C 
BRANCH  13  14
HETATM   14  C   UNL     1      42.160 -15.063   5.667  1.00  0.00    -0.040 A 
HETATM   15  C   UNL     1      42.634 -13.752   5.515  1.00  0.00     0.010 A 
HETATM   16  C   UNL     1      41.866 -12.778   4.859  1.00  0.00     0.017 A 
HETATM   17  C   UNL     1      40.608 -13.103   4.341  1.00  0.00     0.032 A 
HETATM   18  C   UNL     1      40.134 -14.415   4.496  1.00  0.00     0.017 A 
HETATM   19  C   UNL     1      40.898 -15.383   5.156  1.00  0.00     0.010 A 
BRANCH  17  20
HETATM   20  C   UNL     1      39.724 -12.128   3.628  1.00  0.00     0.251 C 
HETATM   21  N   UNL     1      40.217 -11.510   2.499  1.00  0.00    -0.353 N 
HETATM   22  H   UNL     1      41.098 -11.778   2.091  1.00  0.00     0.163 HD
HETATM   23  O   UNL     1      38.603 -11.892   4.068  1.00  0.00    -0.268 OA
BRANCH  21  24
HETATM   24  C   UNL     1      39.412 -10.561   1.758  1.00  0.00     0.161 C 
BRANCH  24  25
HETATM   25  C   UNL     1      39.710 -10.578   0.276  1.00  0.00    -0.038 A 
HETATM   26  C   UNL     1      40.998 -10.927  -0.166  1.00  0.00     0.048 A 
HETATM   27  C   UNL     1      41.224 -11.013  -1.525  1.00  0.00     0.105 A 
HETATM   28  C   UNL     1      40.231 -10.766  -2.442  1.00  0.00     0.105 A 
HETATM   29  O   UNL     1      42.401 -11.353  -2.115  1.00  0.00    -0.323 OA
HETATM   30  O   UNL     1      40.658 -10.916  -3.724  1.00  0.00    -0.323 OA
HETATM   31  C   UNL     1      38.955 -10.426  -2.053  1.00  0.00     0.040 A 
HETATM   32  C   UNL     1      42.025 -11.323  -3.507  1.00  0.00     0.352 A 
HETATM   33  C   UNL     1      38.693 -10.347  -0.681  1.00  0.00     0.012 A 
ENDBRANCH  24  25
ENDBRANCH  21  24
ENDBRANCH  17  20
ENDBRANCH  13  14
ENDBRANCH   8  13
BRANCH   5  34
HETATM   34  C   UNL     1      43.882 -17.634   1.837  1.00  0.00     0.237 C 
BRANCH  34  35
HETATM   35  C   UNL     1      42.512 -17.285   1.242  1.00  0.00     0.240 C 
HETATM   36  N   UNL     1      42.451 -16.030   0.665  1.00  0.00    -0.326 N 
HETATM   37  H   UNL     1      43.313 -15.497   0.666  1.00  0.00     0.169 HD
HETATM   38  O   UNL     1      41.568 -18.056   1.399  1.00  0.00    -0.271 OA
BRANCH  36  39
HETATM   39  C   UNL     1      41.320 -15.385   0.122  1.00  0.00     0.036 A 
HETATM   40  C   UNL     1      40.224 -14.957   0.874  1.00  0.00     0.053 A 
HETATM   41  C   UNL     1      39.158 -14.304   0.250  1.00  0.00     0.036 A 
HETATM   42 CL   UNL     1      37.822 -13.757   1.189  1.00  0.00    -0.084 Cl
HETATM   43  C   UNL     1      39.165 -14.081  -1.125  1.00  0.00     0.024 A 
HETATM   44  C   UNL     1      40.249 -14.511  -1.884  1.00  0.00     0.004 A 
HETATM   45  C   UNL     1      41.323 -15.155  -1.262  1.00  0.00     0.029 A 
ENDBRANCH  36  39
ENDBRANCH  34  35
ENDBRANCH   5  34
TORSDOF 8
ENDMDL
MODEL 10
REMARK VINA RESULT:      -8.3      4.334      7.201
REMARK  8 active torsions:
REMARK  status: ('A' for Active; 'I' for Inactive)
REMARK    1  A    between atoms: N_5  and  C_6 
REMARK    2  A    between atoms: C_6  and  C_7 
REMARK       I    between atoms: C_7  and  N_8 
REMARK    3  A    between atoms: N_8  and  C_9 
REMARK    4  A    between atoms: N_19  and  C_20 
REMARK    5  A    between atoms: C_20  and  C_21 
REMARK    6  A    between atoms: C_24  and  C_25 
REMARK       I    between atoms: C_25  and  N_26 
REMARK    7  A    between atoms: N_26  and  C_27 
REMARK    8  A    between atoms: C_27  and  C_28 
ROOT
HETATM    1  C   UNL     1      44.295 -19.601   2.926  1.00  0.00     0.001 A 
HETATM    2  C   UNL     1      44.056 -18.413   2.244  1.00  0.00     0.019 A 
HETATM    3  C   UNL     1      43.475 -17.324   2.913  1.00  0.00     0.059 A 
HETATM    4  C   UNL     1      43.134 -17.402   4.262  1.00  0.00     0.055 A 
HETATM    5  N   UNL     1      42.545 -16.275   4.898  1.00  0.00    -0.290 N 
HETATM    6  C   UNL     1      42.210 -15.125   4.196  1.00  0.00     0.332 C 
HETATM    7  O   UNL     1      41.527 -14.246   4.728  1.00  0.00    -0.246 OA
HETATM    8  N   UNL     1      42.628 -15.041   2.879  1.00  0.00    -0.261 N 
HETATM    9  C   UNL     1      43.232 -16.074   2.177  1.00  0.00     0.264 C 
HETATM   10  O   UNL     1      43.555 -16.002   0.993  1.00  0.00    -0.267 OA
HETATM   11  C   UNL     1      43.377 -18.610   4.935  1.00  0.00     0.031 A 
HETATM   12  C   UNL     1      43.955 -19.699   4.270  1.00  0.00     0.002 A 
ENDROOT
BRANCH   8  13
HETATM   13  C   UNL     1      42.386 -13.792   2.166  1.00  0.00     0.175 C 
BRANCH  13  14
HETATM   14  C   UNL     1      41.631 -14.013   0.870  1.00  0.00    -0.040 A 
HETATM   15  C   UNL     1      42.166 -13.589  -0.355  1.00  0.00     0.010 A 
HETATM   16  C   UNL     1      41.470 -13.791  -1.556  1.00  0.00     0.017 A 
HETATM   17  C   UNL     1      40.224 -14.426  -1.550  1.00  0.00     0.032 A 
HETATM   18  C   UNL     1      39.689 -14.849  -0.324  1.00  0.00     0.017 A 
HETATM   19  C   UNL     1      40.380 -14.641   0.873  1.00  0.00     0.010 A 
BRANCH  17  20
HETATM   20  C   UNL     1      39.414 -14.682  -2.783  1.00  0.00     0.251 C 
HETATM   21  N   UNL     1      38.059 -14.889  -2.638  1.00  0.00    -0.353 N 
HETATM   22  H   UNL     1      37.597 -14.766  -1.752  1.00  0.00     0.163 HD
HETATM   23  O   UNL     1      39.969 -14.718  -3.876  1.00  0.00    -0.268 OA
BRANCH  21  24
HETATM   24  C   UNL     1      37.216 -15.138  -3.789  1.00  0.00     0.161 C 
BRANCH  24  25
HETATM   25  C   UNL     1      36.519 -13.889  -4.278  1.00  0.00    -0.038 A 
HETATM   26  C   UNL     1      35.556 -13.989  -5.298  1.00  0.00     0.048 A 
HETATM   27  C   UNL     1      34.876 -12.847  -5.672  1.00  0.00     0.105 A 
HETATM   28  C   UNL     1      35.119 -11.632  -5.079  1.00  0.00     0.105 A 
HETATM   29  O   UNL     1      33.907 -12.776  -6.623  1.00  0.00    -0.323 OA
HETATM   30  O   UNL     1      34.337 -10.641  -5.585  1.00  0.00    -0.323 OA
HETATM   31  C   UNL     1      36.049 -11.489  -4.075  1.00  0.00     0.040 A 
HETATM   32  C   UNL     1      33.546 -11.382  -6.538  1.00  0.00     0.352 A 
HETATM   33  C   UNL     1      36.743 -12.633  -3.664  1.00  0.00     0.012 A 
ENDBRANCH  24  25
ENDBRANCH  21  24
ENDBRANCH  17  20
ENDBRANCH  13  14
ENDBRANCH   8  13
BRANCH   5  34
HETATM   34  C   UNL     1      42.301 -16.286   6.348  1.00  0.00     0.237 C 
BRANCH  34  35
HETATM   35  C   UNL     1      43.410 -15.661   7.202  1.00  0.00     0.240 C 
HETATM   36  N   UNL     1      43.587 -14.305   6.992  1.00  0.00    -0.326 N 
HETATM   37  H   UNL     1      42.953 -13.871   6.332  1.00  0.00     0.169 HD
HETATM   38  O   UNL     1      44.113 -16.380   7.908  1.00  0.00    -0.271 OA
BRANCH  36  39
HETATM   39  C   UNL     1      44.577 -13.469   7.548  1.00  0.00     0.036 A 
HETATM   40  C   UNL     1      44.402 -12.708   8.707  1.00  0.00     0.053 A 
HETATM   41  C   UNL     1      45.451 -11.926   9.197  1.00  0.00     0.036 A 
HETATM   42 CL   UNL     1      45.234 -11.012  10.640  1.00  0.00    -0.084 Cl
HETATM   43  C   UNL     1      46.677 -11.882   8.537  1.00  0.00     0.024 A 
HETATM   44  C   UNL     1      46.858 -12.631   7.378  1.00  0.00     0.004 A 
HETATM   45  C   UNL     1      45.815 -13.423   6.890  1.00  0.00     0.029 A 
ENDBRANCH  36  39
ENDBRANCH  34  35
ENDBRANCH   5  34
TORSDOF 8
ENDMDL
