MODEL 1
REMARK VINA RESULT:      -9.7      0.000      0.000
REMARK  4 active torsions:
REMARK  status: ('A' for Active; 'I' for Inactive)
REMARK    1  A    between atoms: C_3  and  C_4 
REMARK    2  A    between atoms: C_4  and  N_5 
REMARK       I    between atoms: N_5  and  C_6 
REMARK       I    between atoms: C_6  and  N_7 
REMARK    3  A    between atoms: N_7  and  C_8 
REMARK    4  A    between atoms: C_17  and  C_18 
ROOT
HETATM    1  C   UNL     1      43.572 -13.815   3.632  1.00  0.00     0.049 C 
HETATM    2  C   UNL     1      42.851 -15.099   3.326  1.00  0.00    -0.053 A 
HETATM    3  C   UNL     1      41.684 -15.132   2.534  1.00  0.00    -0.035 A 
HETATM    4  C   UNL     1      41.098 -16.375   2.229  1.00  0.00     0.010 A 
HETATM    5  C   UNL     1      41.610 -17.561   2.758  1.00  0.00     0.014 A 
HETATM    6  C   UNL     1      42.698 -17.515   3.631  1.00  0.00    -0.004 A 
HETATM    7  C   UNL     1      43.335 -16.295   3.883  1.00  0.00     0.021 A 
ENDROOT
BRANCH   3   8
HETATM    8  C   UNL     1      41.040 -13.879   1.989  1.00  0.00     0.163 C 
BRANCH   8   9
HETATM    9  N   UNL     1      40.099 -14.171   0.936  1.00  0.00    -0.339 N 
HETATM   10  C   UNL     1      40.336 -13.660  -0.313  1.00  0.00     0.316 C 
HETATM   11  N   UNL     1      39.395 -14.060  -1.222  1.00  0.00    -0.339 N 
HETATM   12  O   UNL     1      41.268 -12.911  -0.572  1.00  0.00    -0.247 OA
HETATM   13  H   UNL     1      38.718 -14.748  -0.931  1.00  0.00     0.164 HD
HETATM   14  H   UNL     1      39.614 -15.053   0.987  1.00  0.00     0.164 HD
BRANCH  11  15
HETATM   15  C   UNL     1      39.520 -13.749  -2.641  1.00  0.00     0.086 C 
HETATM   16  C   UNL     1      40.546 -14.672  -3.313  1.00  0.00     0.025 C 
HETATM   17  C   UNL     1      40.031 -16.102  -3.468  1.00  0.00     0.002 C 
HETATM   18  C   UNL     1      38.692 -16.139  -4.198  1.00  0.00     0.000 C 
HETATM   19  C   UNL     1      37.653 -15.251  -3.521  1.00  0.00     0.002 C 
HETATM   20  C   UNL     1      38.160 -13.820  -3.344  1.00  0.00     0.025 C 
ENDBRANCH  11  15
ENDBRANCH   8   9
ENDBRANCH   3   8
BRANCH   6  21
HETATM   21  C   UNL     1      43.239 -18.746   4.272  1.00  0.00     0.098 A 
HETATM   22  N   UNL     1      43.303 -18.742   5.571  1.00  0.00    -0.169 NA
HETATM   23  N   UNL     1      43.822 -19.827   6.225  1.00  0.00    -0.238 N 
HETATM   24  C   UNL     1      43.849 -19.758   7.671  1.00  0.00     0.183 C 
HETATM   25  C   UNL     1      44.375 -20.934   5.595  1.00  0.00     0.274 A 
HETATM   26  O   UNL     1      44.909 -21.868   6.190  1.00  0.00    -0.266 OA
HETATM   27  C   UNL     1      44.267 -20.970   4.126  1.00  0.00     0.046 A 
HETATM   28  C   UNL     1      43.663 -19.912   3.455  1.00  0.00     0.011 A 
HETATM   29  C   UNL     1      44.723 -22.096   3.423  1.00  0.00     0.018 A 
HETATM   30  C   UNL     1      43.452 -20.016   2.072  1.00  0.00     0.015 A 
HETATM   31  C   UNL     1      43.905 -21.137   1.369  1.00  0.00     0.001 A 
HETATM   32  C   UNL     1      44.551 -22.171   2.041  1.00  0.00     0.001 A 
ENDBRANCH   6  21
TORSDOF 4
ENDMDL
MODEL 2
REMARK VINA RESULT:      -9.6      5.638      8.847
REMARK  4 active torsions:
REMARK  status: ('A' for Active; 'I' for Inactive)
REMARK    1  A    between atoms: C_3  and  C_4 
REMARK    2  A    between atoms: C_4  and  N_5 
REMARK       I    between atoms: N_5  and  C_6 
REMARK       I    between atoms: C_6  and  N_7 
REMARK    3  A    between atoms: N_7  and  C_8 
REMARK    4  A    between atoms: C_17  and  C_18 
ROOT
HETATM    1  C   UNL     1      39.531 -13.519   5.762  1.00  0.00     0.049 C 
HETATM    2  C   UNL     1      40.997 -13.850   5.835  1.00  0.00    -0.053 A 
HETATM    3  C   UNL     1      41.963 -12.893   6.209  1.00  0.00    -0.035 A 
HETATM    4  C   UNL     1      43.310 -13.287   6.324  1.00  0.00     0.010 A 
HETATM    5  C   UNL     1      43.709 -14.585   6.002  1.00  0.00     0.014 A 
HETATM    6  C   UNL     1      42.768 -15.499   5.526  1.00  0.00    -0.004 A 
HETATM    7  C   UNL     1      41.415 -15.143   5.478  1.00  0.00     0.021 A 
ENDROOT
BRANCH   3   8
HETATM    8  C   UNL     1      41.606 -11.455   6.502  1.00  0.00     0.163 C 
BRANCH   8   9
HETATM    9  N   UNL     1      42.148 -11.012   7.763  1.00  0.00    -0.339 N 
HETATM   10  C   UNL     1      41.280 -10.740   8.788  1.00  0.00     0.316 C 
HETATM   11  N   UNL     1      41.932 -10.383   9.937  1.00  0.00    -0.339 N 
HETATM   12  O   UNL     1      40.062 -10.787   8.675  1.00  0.00    -0.247 OA
HETATM   13  H   UNL     1      42.937 -10.461   9.955  1.00  0.00     0.164 HD
HETATM   14  H   UNL     1      43.062 -11.353   8.015  1.00  0.00     0.164 HD
BRANCH  11  15
HETATM   15  C   UNL     1      41.217 -10.181  11.192  1.00  0.00     0.086 C 
HETATM   16  C   UNL     1      41.632 -11.232  12.231  1.00  0.00     0.025 C 
HETATM   17  C   UNL     1      43.044 -10.997  12.766  1.00  0.00     0.002 C 
HETATM   18  C   UNL     1      43.208  -9.584  13.314  1.00  0.00     0.000 C 
HETATM   19  C   UNL     1      42.830  -8.528  12.280  1.00  0.00     0.002 C 
HETATM   20  C   UNL     1      41.426  -8.758  11.722  1.00  0.00     0.025 C 
ENDBRANCH  11  15
ENDBRANCH   8   9
ENDBRANCH   3   8
BRANCH   6  21
HETATM   21  C   UNL     1      43.156 -16.876   5.108  1.00  0.00     0.098 A 
HETATM   22  N   UNL     1      43.303 -17.750   6.059  1.00  0.00    -0.169 NA
HETATM   23  N   UNL     1      43.692 -19.025   5.750  1.00  0.00    -0.238 N 
HETATM   24  C   UNL     1      43.821 -19.949   6.859  1.00  0.00     0.183 C 
HETATM   25  C   UNL     1      44.030 -19.457   4.474  1.00  0.00     0.274 A 
HETATM   26  O   UNL     1      44.453 -20.583   4.219  1.00  0.00    -0.266 OA
HETATM   27  C   UNL     1      43.824 -18.489   3.383  1.00  0.00     0.046 A 
HETATM   28  C   UNL     1      43.346 -17.216   3.674  1.00  0.00     0.011 A 
HETATM   29  C   UNL     1      44.059 -18.878   2.055  1.00  0.00     0.018 A 
HETATM   30  C   UNL     1      43.034 -16.349   2.617  1.00  0.00     0.015 A 
HETATM   31  C   UNL     1      43.266 -16.734   1.293  1.00  0.00     0.001 A 
HETATM   32  C   UNL     1      43.789 -17.994   1.011  1.00  0.00     0.001 A 
ENDBRANCH   6  21
TORSDOF 4
ENDMDL
MODEL 3
REMARK VINA RESULT:      -9.4      5.575      8.960
REMARK  4 active torsions:
REMARK  status: ('A' for Active; 'I' for Inactive)
REMARK    1  A    between atoms: C_3  and  C_4 
REMARK    2  A    between atoms: C_4  and  N_5 
REMARK       I    between atoms: N_5  and  C_6 
REMARK       I    between atoms: C_6  and  N_7 
REMARK    3  A    between atoms: N_7  and  C_8 
REMARK    4  A    between atoms: C_17  and  C_18 
ROOT
HETATM    1  C   UNL     1      39.356 -13.703   5.420  1.00  0.00     0.049 C 
HETATM    2  C   UNL     1      40.841 -13.930   5.488  1.00  0.00    -0.053 A 
HETATM    3  C   UNL     1      41.725 -12.956   5.999  1.00  0.00    -0.035 A 
HETATM    4  C   UNL     1      43.096 -13.259   6.098  1.00  0.00     0.010 A 
HETATM    5  C   UNL     1      43.599 -14.474   5.631  1.00  0.00     0.014 A 
HETATM    6  C   UNL     1      42.739 -15.391   5.025  1.00  0.00    -0.004 A 
HETATM    7  C   UNL     1      41.364 -15.134   4.987  1.00  0.00     0.021 A 
ENDROOT
BRANCH   3   8
HETATM    8  C   UNL     1      41.253 -11.595   6.455  1.00  0.00     0.163 C 
BRANCH   8   9
HETATM    9  N   UNL     1      41.061 -11.543   7.883  1.00  0.00    -0.339 N 
HETATM   10  C   UNL     1      41.671 -10.538   8.588  1.00  0.00     0.316 C 
HETATM   11  N   UNL     1      41.360 -10.579   9.920  1.00  0.00    -0.339 N 
HETATM   12  O   UNL     1      42.427  -9.719   8.083  1.00  0.00    -0.247 OA
HETATM   13  H   UNL     1      40.660 -11.237  10.223  1.00  0.00     0.164 HD
HETATM   14  H   UNL     1      40.185 -11.887   8.242  1.00  0.00     0.164 HD
BRANCH  11  15
HETATM   15  C   UNL     1      41.787  -9.529  10.838  1.00  0.00     0.086 C 
HETATM   16  C   UNL     1      40.873  -9.478  12.071  1.00  0.00     0.025 C 
HETATM   17  C   UNL     1      41.093 -10.665  13.008  1.00  0.00     0.002 C 
HETATM   18  C   UNL     1      42.558 -10.796  13.411  1.00  0.00     0.000 C 
HETATM   19  C   UNL     1      43.475 -10.881  12.195  1.00  0.00     0.002 C 
HETATM   20  C   UNL     1      43.256  -9.710  11.238  1.00  0.00     0.025 C 
ENDBRANCH  11  15
ENDBRANCH   8   9
ENDBRANCH   3   8
BRANCH   6  21
HETATM   21  C   UNL     1      43.240 -16.673   4.453  1.00  0.00     0.098 A 
HETATM   22  N   UNL     1      43.442 -16.694   3.169  1.00  0.00    -0.169 NA
HETATM   23  N   UNL     1      43.868 -17.849   2.571  1.00  0.00    -0.238 N 
HETATM   24  C   UNL     1      44.086 -17.795   1.141  1.00  0.00     0.183 C 
HETATM   25  C   UNL     1      44.033 -19.061   3.231  1.00  0.00     0.274 A 
HETATM   26  O   UNL     1      44.342 -20.111   2.671  1.00  0.00    -0.266 OA
HETATM   27  C   UNL     1      43.852 -19.038   4.692  1.00  0.00     0.046 A 
HETATM   28  C   UNL     1      43.502 -17.848   5.323  1.00  0.00     0.011 A 
HETATM   29  C   UNL     1      44.087 -20.201   5.441  1.00  0.00     0.018 A 
HETATM   30  C   UNL     1      43.457 -17.810   6.724  1.00  0.00     0.015 A 
HETATM   31  C   UNL     1      43.692 -18.968   7.473  1.00  0.00     0.001 A 
HETATM   32  C   UNL     1      43.996 -20.166   6.831  1.00  0.00     0.001 A 
ENDBRANCH   6  21
TORSDOF 4
ENDMDL
MODEL 4
REMARK VINA RESULT:      -9.3      1.092      2.467
REMARK  4 active torsions:
REMARK  status: ('A' for Active; 'I' for Inactive)
REMARK    1  A    between atoms: C_3  and  C_4 
REMARK    2  A    between atoms: C_4  and  N_5 
REMARK       I    between atoms: N_5  and  C_6 
REMARK       I    between atoms: C_6  and  N_7 
REMARK    3  A    between atoms: N_7  and  C_8 
REMARK    4  A    between atoms: C_17  and  C_18 
ROOT
HETATM    1  C   UNL     1      43.687 -14.012   3.251  1.00  0.00     0.049 C 
HETATM    2  C   UNL     1      42.933 -15.274   2.931  1.00  0.00    -0.053 A 
HETATM    3  C   UNL     1      41.681 -15.254   2.282  1.00  0.00    -0.035 A 
HETATM    4  C   UNL     1      41.061 -16.473   1.949  1.00  0.00     0.010 A 
HETATM    5  C   UNL     1      41.630 -17.693   2.317  1.00  0.00     0.014 A 
HETATM    6  C   UNL     1      42.814 -17.708   3.056  1.00  0.00    -0.004 A 
HETATM    7  C   UNL     1      43.478 -16.506   3.329  1.00  0.00     0.021 A 
ENDROOT
BRANCH   3   8
HETATM    8  C   UNL     1      40.978 -13.966   1.920  1.00  0.00     0.163 C 
BRANCH   8   9
HETATM    9  N   UNL     1      40.005 -14.160   0.873  1.00  0.00    -0.339 N 
HETATM   10  C   UNL     1      40.282 -13.669  -0.376  1.00  0.00     0.316 C 
HETATM   11  N   UNL     1      39.299 -13.970  -1.280  1.00  0.00    -0.339 N 
HETATM   12  O   UNL     1      41.281 -13.013  -0.640  1.00  0.00    -0.247 OA
HETATM   13  H   UNL     1      38.560 -14.590  -0.986  1.00  0.00     0.164 HD
HETATM   14  H   UNL     1      39.436 -14.990   0.923  1.00  0.00     0.164 HD
BRANCH  11  15
HETATM   15  C   UNL     1      39.444 -13.666  -2.699  1.00  0.00     0.086 C 
HETATM   16  C   UNL     1      40.486 -14.587  -3.350  1.00  0.00     0.025 C 
HETATM   17  C   UNL     1      39.980 -16.021  -3.504  1.00  0.00     0.002 C 
HETATM   18  C   UNL     1      38.653 -16.070  -4.254  1.00  0.00     0.000 C 
HETATM   19  C   UNL     1      37.599 -15.184  -3.598  1.00  0.00     0.002 C 
HETATM   20  C   UNL     1      38.095 -13.749  -3.421  1.00  0.00     0.025 C 
ENDBRANCH  11  15
ENDBRANCH   8   9
ENDBRANCH   3   8
BRANCH   6  21
HETATM   21  C   UNL     1      43.426 -18.982   3.528  1.00  0.00     0.098 A 
HETATM   22  N   UNL     1      43.833 -19.804   2.607  1.00  0.00    -0.169 NA
HETATM   23  N   UNL     1      44.373 -21.009   2.968  1.00  0.00    -0.238 N 
HETATM   24  C   UNL     1      44.818 -21.868   1.890  1.00  0.00     0.183 C 
HETATM   25  C   UNL     1      44.455 -21.474   4.274  1.00  0.00     0.274 A 
HETATM   26  O   UNL     1      44.871 -22.590   4.581  1.00  0.00    -0.266 OA
HETATM   27  C   UNL     1      44.040 -20.533   5.328  1.00  0.00     0.046 A 
HETATM   28  C   UNL     1      43.569 -19.272   4.978  1.00  0.00     0.011 A 
HETATM   29  C   UNL     1      44.175 -20.896   6.677  1.00  0.00     0.018 A 
HETATM   30  C   UNL     1      43.298 -18.342   5.992  1.00  0.00     0.015 A 
HETATM   31  C   UNL     1      43.433 -18.700   7.336  1.00  0.00     0.001 A 
HETATM   32  C   UNL     1      43.860 -19.980   7.680  1.00  0.00     0.001 A 
ENDBRANCH   6  21
TORSDOF 4
ENDMDL
MODEL 5
REMARK VINA RESULT:      -9.0      2.864      4.559
REMARK  4 active torsions:
REMARK  status: ('A' for Active; 'I' for Inactive)
REMARK    1  A    between atoms: C_3  and  C_4 
REMARK    2  A    between atoms: C_4  and  N_5 
REMARK       I    between atoms: N_5  and  C_6 
REMARK       I    between atoms: C_6  and  N_7 
REMARK    3  A    between atoms: N_7  and  C_8 
REMARK    4  A    between atoms: C_17  and  C_18 
ROOT
HETATM    1  C   UNL     1      41.356 -15.759  -1.166  1.00  0.00     0.049 C 
HETATM    2  C   UNL     1      41.210 -16.036   0.305  1.00  0.00    -0.053 A 
HETATM    3  C   UNL     1      40.313 -15.312   1.119  1.00  0.00    -0.035 A 
HETATM    4  C   UNL     1      40.175 -15.669   2.473  1.00  0.00     0.010 A 
HETATM    5  C   UNL     1      40.964 -16.674   3.036  1.00  0.00     0.014 A 
HETATM    6  C   UNL     1      41.928 -17.313   2.256  1.00  0.00    -0.004 A 
HETATM    7  C   UNL     1      42.024 -17.020   0.891  1.00  0.00     0.021 A 
ENDROOT
BRANCH   3   8
HETATM    8  C   UNL     1      39.483 -14.168   0.587  1.00  0.00     0.163 C 
BRANCH   8   9
HETATM    9  N   UNL     1      40.175 -12.907   0.690  1.00  0.00    -0.339 N 
HETATM   10  C   UNL     1      40.387 -12.182  -0.453  1.00  0.00     0.316 C 
HETATM   11  N   UNL     1      41.005 -10.987  -0.201  1.00  0.00    -0.339 N 
HETATM   12  O   UNL     1      40.081 -12.576  -1.571  1.00  0.00    -0.247 OA
HETATM   13  H   UNL     1      41.136 -10.715   0.761  1.00  0.00     0.164 HD
HETATM   14  H   UNL     1      40.060 -12.389   1.547  1.00  0.00     0.164 HD
BRANCH  11  15
HETATM   15  C   UNL     1      41.208  -9.994  -1.249  1.00  0.00     0.086 C 
HETATM   16  C   UNL     1      41.234  -8.577  -0.660  1.00  0.00     0.025 C 
HETATM   17  C   UNL     1      42.512  -8.298   0.130  1.00  0.00     0.002 C 
HETATM   18  C   UNL     1      43.759  -8.572  -0.706  1.00  0.00     0.000 C 
HETATM   19  C   UNL     1      43.761  -9.989  -1.271  1.00  0.00     0.002 C 
HETATM   20  C   UNL     1      42.481 -10.290  -2.050  1.00  0.00     0.025 C 
ENDBRANCH  11  15
ENDBRANCH   8   9
ENDBRANCH   3   8
BRANCH   6  21
HETATM   21  C   UNL     1      42.838 -18.346   2.828  1.00  0.00     0.098 A 
HETATM   22  N   UNL     1      43.000 -19.428   2.125  1.00  0.00    -0.169 NA
HETATM   23  N   UNL     1      43.794 -20.433   2.605  1.00  0.00    -0.238 N 
HETATM   24  C   UNL     1      43.940 -21.602   1.762  1.00  0.00     0.183 C 
HETATM   25  C   UNL     1      44.399 -20.428   3.856  1.00  0.00     0.274 A 
HETATM   26  O   UNL     1      45.047 -21.369   4.310  1.00  0.00    -0.266 OA
HETATM   27  C   UNL     1      44.260 -19.189   4.641  1.00  0.00     0.046 A 
HETATM   28  C   UNL     1      43.526 -18.126   4.125  1.00  0.00     0.011 A 
HETATM   29  C   UNL     1      44.916 -19.072   5.877  1.00  0.00     0.018 A 
HETATM   30  C   UNL     1      43.508 -16.910   4.824  1.00  0.00     0.015 A 
HETATM   31  C   UNL     1      44.161 -16.791   6.055  1.00  0.00     0.001 A 
HETATM   32  C   UNL     1      44.855 -17.875   6.587  1.00  0.00     0.001 A 
ENDBRANCH   6  21
TORSDOF 4
ENDMDL
MODEL 6
REMARK VINA RESULT:      -8.9      5.773      9.492
REMARK  4 active torsions:
REMARK  status: ('A' for Active; 'I' for Inactive)
REMARK    1  A    between atoms: C_3  and  C_4 
REMARK    2  A    between atoms: C_4  and  N_5 
REMARK       I    between atoms: N_5  and  C_6 
REMARK       I    between atoms: C_6  and  N_7 
REMARK    3  A    between atoms: N_7  and  C_8 
REMARK    4  A    between atoms: C_17  and  C_18 
ROOT
HETATM    1  C   UNL     1      42.612 -11.935   6.552  1.00  0.00     0.049 C 
HETATM    2  C   UNL     1      43.165 -13.314   6.320  1.00  0.00    -0.053 A 
HETATM    3  C   UNL     1      44.204 -13.847   7.112  1.00  0.00    -0.035 A 
HETATM    4  C   UNL     1      44.628 -15.170   6.887  1.00  0.00     0.010 A 
HETATM    5  C   UNL     1      44.089 -15.931   5.848  1.00  0.00     0.014 A 
HETATM    6  C   UNL     1      43.140 -15.364   4.996  1.00  0.00    -0.004 A 
HETATM    7  C   UNL     1      42.656 -14.076   5.255  1.00  0.00     0.021 A 
ENDROOT
BRANCH   3   8
HETATM    8  C   UNL     1      44.877 -13.051   8.206  1.00  0.00     0.163 C 
BRANCH   8   9
HETATM    9  N   UNL     1      44.001 -12.835   9.331  1.00  0.00    -0.339 N 
HETATM   10  C   UNL     1      43.701 -11.546   9.687  1.00  0.00     0.316 C 
HETATM   11  N   UNL     1      42.821 -11.490  10.734  1.00  0.00    -0.339 N 
HETATM   12  O   UNL     1      44.190 -10.563   9.147  1.00  0.00    -0.247 OA
HETATM   13  H   UNL     1      42.408 -12.353  11.052  1.00  0.00     0.164 HD
HETATM   14  H   UNL     1      43.297 -13.534   9.506  1.00  0.00     0.164 HD
BRANCH  11  15
HETATM   15  C   UNL     1      42.257 -10.226  11.193  1.00  0.00     0.086 C 
HETATM   16  C   UNL     1      40.828 -10.426  11.718  1.00  0.00     0.025 C 
HETATM   17  C   UNL     1      40.797 -11.158  13.059  1.00  0.00     0.002 C 
HETATM   18  C   UNL     1      41.675 -10.465  14.096  1.00  0.00     0.000 C 
HETATM   19  C   UNL     1      43.106 -10.290  13.600  1.00  0.00     0.002 C 
HETATM   20  C   UNL     1      43.155  -9.574  12.251  1.00  0.00     0.025 C 
ENDBRANCH  11  15
ENDBRANCH   8   9
ENDBRANCH   3   8
BRANCH   6  21
HETATM   21  C   UNL     1      42.584 -16.113   3.835  1.00  0.00     0.098 A 
HETATM   22  N   UNL     1      41.676 -15.502   3.133  1.00  0.00    -0.169 NA
HETATM   23  N   UNL     1      41.096 -16.144   2.072  1.00  0.00    -0.238 N 
HETATM   24  C   UNL     1      40.104 -15.397   1.327  1.00  0.00     0.183 C 
HETATM   25  C   UNL     1      41.348 -17.464   1.719  1.00  0.00     0.274 A 
HETATM   26  O   UNL     1      40.765 -18.056   0.813  1.00  0.00    -0.266 OA
HETATM   27  C   UNL     1      42.407 -18.151   2.478  1.00  0.00     0.046 A 
HETATM   28  C   UNL     1      43.065 -17.479   3.504  1.00  0.00     0.011 A 
HETATM   29  C   UNL     1      42.781 -19.456   2.124  1.00  0.00     0.018 A 
HETATM   30  C   UNL     1      44.154 -18.098   4.132  1.00  0.00     0.015 A 
HETATM   31  C   UNL     1      44.530 -19.399   3.781  1.00  0.00     0.001 A 
HETATM   32  C   UNL     1      43.837 -20.083   2.785  1.00  0.00     0.001 A 
ENDBRANCH   6  21
TORSDOF 4
ENDMDL
MODEL 7
REMARK VINA RESULT:      -8.8      5.874      9.173
REMARK  4 active torsions:
REMARK  status: ('A' for Active; 'I' for Inactive)
REMARK    1  A    between atoms: C_3  and  C_4 
REMARK    2  A    between atoms: C_4  and  N_5 
REMARK       I    between atoms: N_5  and  C_6 
REMARK       I    between atoms: C_6  and  N_7 
REMARK    3  A    between atoms: N_7  and  C_8 
REMARK    4  A    between atoms: C_17  and  C_18 
ROOT
HETATM    1  C   UNL     1      41.387 -10.776   4.151  1.00  0.00     0.049 C 
HETATM    2  C   UNL     1      40.991 -12.080   4.787  1.00  0.00    -0.053 A 
HETATM    3  C   UNL     1      40.188 -12.135   5.945  1.00  0.00    -0.035 A 
HETATM    4  C   UNL     1      39.797 -13.390   6.450  1.00  0.00     0.010 A 
HETATM    5  C   UNL     1      40.251 -14.574   5.865  1.00  0.00     0.014 A 
HETATM    6  C   UNL     1      41.135 -14.516   4.786  1.00  0.00    -0.004 A 
HETATM    7  C   UNL     1      41.472 -13.277   4.230  1.00  0.00     0.021 A 
ENDROOT
BRANCH   3   8
HETATM    8  C   UNL     1      39.722 -10.892   6.666  1.00  0.00     0.163 C 
BRANCH   8   9
HETATM    9  N   UNL     1      40.637 -10.499   7.709  1.00  0.00    -0.339 N 
HETATM   10  C   UNL     1      40.359 -10.873   8.997  1.00  0.00     0.316 C 
HETATM   11  N   UNL     1      41.336 -10.479   9.872  1.00  0.00    -0.339 N 
HETATM   12  O   UNL     1      39.340 -11.465   9.326  1.00  0.00    -0.247 OA
HETATM   13  H   UNL     1      42.177 -10.075   9.491  1.00  0.00     0.164 HD
HETATM   14  H   UNL     1      41.608 -10.409   7.457  1.00  0.00     0.164 HD
BRANCH  11  15
HETATM   15  C   UNL     1      41.318 -10.885  11.272  1.00  0.00     0.086 C 
HETATM   16  C   UNL     1      42.708 -11.359  11.720  1.00  0.00     0.025 C 
HETATM   17  C   UNL     1      43.700 -10.206  11.859  1.00  0.00     0.002 C 
HETATM   18  C   UNL     1      43.166  -9.114  12.780  1.00  0.00     0.000 C 
HETATM   19  C   UNL     1      41.800  -8.610  12.327  1.00  0.00     0.002 C 
HETATM   20  C   UNL     1      40.798  -9.754  12.167  1.00  0.00     0.025 C 
ENDBRANCH  11  15
ENDBRANCH   8   9
ENDBRANCH   3   8
BRANCH   6  21
HETATM   21  C   UNL     1      41.698 -15.750   4.170  1.00  0.00     0.098 A 
HETATM   22  N   UNL     1      41.207 -16.099   3.018  1.00  0.00    -0.169 NA
HETATM   23  N   UNL     1      41.653 -17.241   2.411  1.00  0.00    -0.238 N 
HETATM   24  C   UNL     1      41.071 -17.559   1.123  1.00  0.00     0.183 C 
HETATM   25  C   UNL     1      42.560 -18.129   2.975  1.00  0.00     0.274 A 
HETATM   26  O   UNL     1      42.896 -19.191   2.455  1.00  0.00    -0.266 OA
HETATM   27  C   UNL     1      43.158 -17.722   4.258  1.00  0.00     0.046 A 
HETATM   28  C   UNL     1      42.776 -16.519   4.845  1.00  0.00     0.011 A 
HETATM   29  C   UNL     1      44.148 -18.522   4.850  1.00  0.00     0.018 A 
HETATM   30  C   UNL     1      43.443 -16.083   5.998  1.00  0.00     0.015 A 
HETATM   31  C   UNL     1      44.430 -16.878   6.589  1.00  0.00     0.001 A 
HETATM   32  C   UNL     1      44.775 -18.103   6.022  1.00  0.00     0.001 A 
ENDBRANCH   6  21
TORSDOF 4
ENDMDL
MODEL 8
REMARK VINA RESULT:      -8.6      4.219     10.106
REMARK  4 active torsions:
REMARK  status: ('A' for Active; 'I' for Inactive)
REMARK    1  A    between atoms: C_3  and  C_4 
REMARK    2  A    between atoms: C_4  and  N_5 
REMARK       I    between atoms: N_5  and  C_6 
REMARK       I    between atoms: C_6  and  N_7 
REMARK    3  A    between atoms: N_7  and  C_8 
REMARK    4  A    between atoms: C_17  and  C_18 
ROOT
HETATM    1  C   UNL     1      41.954 -17.484   4.970  1.00  0.00     0.049 C 
HETATM    2  C   UNL     1      42.281 -16.218   4.227  1.00  0.00    -0.053 A 
HETATM    3  C   UNL     1      43.286 -15.331   4.665  1.00  0.00    -0.035 A 
HETATM    4  C   UNL     1      43.589 -14.198   3.886  1.00  0.00     0.010 A 
HETATM    5  C   UNL     1      42.861 -13.904   2.732  1.00  0.00     0.014 A 
HETATM    6  C   UNL     1      41.794 -14.724   2.360  1.00  0.00    -0.004 A 
HETATM    7  C   UNL     1      41.531 -15.893   3.084  1.00  0.00     0.021 A 
ENDROOT
BRANCH   3   8
HETATM    8  C   UNL     1      44.062 -15.554   5.942  1.00  0.00     0.163 C 
BRANCH   8   9
HETATM    9  N   UNL     1      43.602 -14.699   7.009  1.00  0.00    -0.339 N 
HETATM   10  C   UNL     1      44.450 -13.732   7.482  1.00  0.00     0.316 C 
HETATM   11  N   UNL     1      43.866 -12.962   8.452  1.00  0.00    -0.339 N 
HETATM   12  O   UNL     1      45.604 -13.596   7.099  1.00  0.00    -0.247 OA
HETATM   13  H   UNL     1      42.884 -13.096   8.635  1.00  0.00     0.164 HD
HETATM   14  H   UNL     1      42.615 -14.500   7.044  1.00  0.00     0.164 HD
BRANCH  11  15
HETATM   15  C   UNL     1      44.534 -11.789   9.003  1.00  0.00     0.086 C 
HETATM   16  C   UNL     1      43.524 -10.665   9.276  1.00  0.00     0.025 C 
HETATM   17  C   UNL     1      42.627 -10.967  10.476  1.00  0.00     0.002 C 
HETATM   18  C   UNL     1      43.447 -11.288  11.722  1.00  0.00     0.000 C 
HETATM   19  C   UNL     1      44.431 -12.426  11.473  1.00  0.00     0.002 C 
HETATM   20  C   UNL     1      45.326 -12.148  10.266  1.00  0.00     0.025 C 
ENDBRANCH  11  15
ENDBRANCH   8   9
ENDBRANCH   3   8
BRANCH   6  21
HETATM   21  C   UNL     1      40.947 -14.416   1.174  1.00  0.00     0.098 A 
HETATM   22  N   UNL     1      41.234 -15.052   0.077  1.00  0.00    -0.169 NA
HETATM   23  N   UNL     1      40.520 -14.793  -1.061  1.00  0.00    -0.238 N 
HETATM   24  C   UNL     1      40.885 -15.548  -2.242  1.00  0.00     0.183 C 
HETATM   25  C   UNL     1      39.533 -13.821  -1.165  1.00  0.00     0.274 A 
HETATM   26  O   UNL     1      38.950 -13.542  -2.212  1.00  0.00    -0.266 OA
HETATM   27  C   UNL     1      39.167 -13.127   0.081  1.00  0.00     0.046 A 
HETATM   28  C   UNL     1      39.828 -13.443   1.264  1.00  0.00     0.011 A 
HETATM   29  C   UNL     1      38.119 -12.194   0.077  1.00  0.00     0.018 A 
HETATM   30  C   UNL     1      39.386 -12.869   2.465  1.00  0.00     0.015 A 
HETATM   31  C   UNL     1      38.341 -11.940   2.462  1.00  0.00     0.001 A 
HETATM   32  C   UNL     1      37.715 -11.593   1.268  1.00  0.00     0.001 A 
ENDBRANCH   6  21
TORSDOF 4
ENDMDL
MODEL 9
REMARK VINA RESULT:      -8.5      2.232      9.028
REMARK  4 active torsions:
REMARK  status: ('A' for Active; 'I' for Inactive)
REMARK    1  A    between atoms: C_3  and  C_4 
REMARK    2  A    between atoms: C_4  and  N_5 
REMARK       I    between atoms: N_5  and  C_6 
REMARK       I    between atoms: C_6  and  N_7 
REMARK    3  A    between atoms: N_7  and  C_8 
REMARK    4  A    between atoms: C_17  and  C_18 
ROOT
HETATM    1  C   UNL     1      40.211 -13.737   5.381  1.00  0.00     0.049 C 
HETATM    2  C   UNL     1      40.138 -14.505   4.090  1.00  0.00    -0.053 A 
HETATM    3  C   UNL     1      40.657 -15.811   3.965  1.00  0.00    -0.035 A 
HETATM    4  C   UNL     1      40.494 -16.500   2.748  1.00  0.00     0.010 A 
HETATM    5  C   UNL     1      39.896 -15.885   1.647  1.00  0.00     0.014 A 
HETATM    6  C   UNL     1      39.483 -14.555   1.740  1.00  0.00    -0.004 A 
HETATM    7  C   UNL     1      39.571 -13.883   2.964  1.00  0.00     0.021 A 
ENDROOT
BRANCH   3   8
HETATM    8  C   UNL     1      41.377 -16.506   5.096  1.00  0.00     0.163 C 
BRANCH   8   9
HETATM    9  N   UNL     1      41.790 -17.840   4.732  1.00  0.00    -0.339 N 
HETATM   10  C   UNL     1      43.067 -18.026   4.271  1.00  0.00     0.316 C 
HETATM   11  N   UNL     1      43.337 -19.343   4.016  1.00  0.00    -0.339 N 
HETATM   12  O   UNL     1      43.859 -17.113   4.085  1.00  0.00    -0.247 OA
HETATM   13  H   UNL     1      42.649 -20.029   4.286  1.00  0.00     0.164 HD
HETATM   14  H   UNL     1      41.369 -18.604   5.236  1.00  0.00     0.164 HD
BRANCH  11  15
HETATM   15  C   UNL     1      44.675 -19.792   3.646  1.00  0.00     0.086 C 
HETATM   16  C   UNL     1      45.293 -20.642   4.765  1.00  0.00     0.025 C 
HETATM   17  C   UNL     1      44.644 -22.020   4.877  1.00  0.00     0.002 C 
HETATM   18  C   UNL     1      44.667 -22.761   3.544  1.00  0.00     0.000 C 
HETATM   19  C   UNL     1      44.025 -21.941   2.430  1.00  0.00     0.002 C 
HETATM   20  C   UNL     1      44.652 -20.552   2.315  1.00  0.00     0.025 C 
ENDBRANCH  11  15
ENDBRANCH   8   9
ENDBRANCH   3   8
BRANCH   6  21
HETATM   21  C   UNL     1      38.899 -13.834   0.574  1.00  0.00     0.098 A 
HETATM   22  N   UNL     1      37.891 -13.052   0.823  1.00  0.00    -0.169 NA
HETATM   23  N   UNL     1      37.283 -12.385  -0.207  1.00  0.00    -0.238 N 
HETATM   24  C   UNL     1      36.176 -11.520   0.147  1.00  0.00     0.183 C 
HETATM   25  C   UNL     1      37.613 -12.540  -1.547  1.00  0.00     0.274 A 
HETATM   26  O   UNL     1      37.010 -11.996  -2.471  1.00  0.00    -0.266 OA
HETATM   27  C   UNL     1      38.782 -13.388  -1.837  1.00  0.00     0.046 A 
HETATM   28  C   UNL     1      39.462 -14.002  -0.790  1.00  0.00     0.011 A 
HETATM   29  C   UNL     1      39.232 -13.523  -3.159  1.00  0.00     0.018 A 
HETATM   30  C   UNL     1      40.646 -14.702  -1.067  1.00  0.00     0.015 A 
HETATM   31  C   UNL     1      41.097 -14.837  -2.384  1.00  0.00     0.001 A 
HETATM   32  C   UNL     1      40.385 -14.258  -3.431  1.00  0.00     0.001 A 
ENDBRANCH   6  21
TORSDOF 4
ENDMDL
MODEL 10
REMARK VINA RESULT:      -8.5      2.938      3.559
REMARK  4 active torsions:
REMARK  status: ('A' for Active; 'I' for Inactive)
REMARK    1  A    between atoms: C_3  and  C_4 
REMARK    2  A    between atoms: C_4  and  N_5 
REMARK       I    between atoms: N_5  and  C_6 
REMARK       I    between atoms: C_6  and  N_7 
REMARK    3  A    between atoms: N_7  and  C_8 
REMARK    4  A    between atoms: C_17  and  C_18 
ROOT
HETATM    1  C   UNL     1      43.698 -13.467   6.321  1.00  0.00     0.049 C 
HETATM    2  C   UNL     1      42.770 -14.586   5.935  1.00  0.00    -0.053 A 
HETATM    3  C   UNL     1      41.393 -14.374   5.712  1.00  0.00    -0.035 A 
HETATM    4  C   UNL     1      40.593 -15.450   5.286  1.00  0.00     0.010 A 
HETATM    5  C   UNL     1      41.126 -16.734   5.153  1.00  0.00     0.014 A 
HETATM    6  C   UNL     1      42.463 -16.963   5.481  1.00  0.00    -0.004 A 
HETATM    7  C   UNL     1      43.287 -15.889   5.834  1.00  0.00     0.021 A 
ENDROOT
BRANCH   3   8
HETATM    8  C   UNL     1      40.741 -13.025   5.906  1.00  0.00     0.163 C 
BRANCH   8   9
HETATM    9  N   UNL     1      39.661 -12.809   4.974  1.00  0.00    -0.339 N 
HETATM   10  C   UNL     1      39.925 -12.127   3.816  1.00  0.00     0.316 C 
HETATM   11  N   UNL     1      38.826 -12.044   3.004  1.00  0.00    -0.339 N 
HETATM   12  O   UNL     1      41.011 -11.629   3.555  1.00  0.00    -0.247 OA
HETATM   13  H   UNL     1      38.002 -12.562   3.267  1.00  0.00     0.164 HD
HETATM   14  H   UNL     1      38.939 -13.511   4.940  1.00  0.00     0.164 HD
BRANCH  11  15
HETATM   15  C   UNL     1      38.907 -11.481   1.661  1.00  0.00     0.086 C 
HETATM   16  C   UNL     1      38.593 -12.548   0.603  1.00  0.00     0.025 C 
HETATM   17  C   UNL     1      37.112 -12.922   0.573  1.00  0.00     0.002 C 
HETATM   18  C   UNL     1      36.227 -11.692   0.397  1.00  0.00     0.000 C 
HETATM   19  C   UNL     1      36.506 -10.637   1.463  1.00  0.00     0.002 C 
HETATM   20  C   UNL     1      37.987 -10.264   1.517  1.00  0.00     0.025 C 
ENDBRANCH  11  15
ENDBRANCH   8   9
ENDBRANCH   3   8
BRANCH   6  21
HETATM   21  C   UNL     1      43.061 -18.327   5.418  1.00  0.00     0.098 A 
HETATM   22  N   UNL     1      43.167 -18.965   6.546  1.00  0.00    -0.169 NA
HETATM   23  N   UNL     1      43.738 -20.209   6.567  1.00  0.00    -0.238 N 
HETATM   24  C   UNL     1      43.810 -20.866   7.856  1.00  0.00     0.183 C 
HETATM   25  C   UNL     1      44.303 -20.833   5.463  1.00  0.00     0.274 A 
HETATM   26  O   UNL     1      44.883 -21.917   5.508  1.00  0.00    -0.266 OA
HETATM   27  C   UNL     1      44.149 -20.141   4.172  1.00  0.00     0.046 A 
HETATM   28  C   UNL     1      43.492 -18.915   4.124  1.00  0.00     0.011 A 
HETATM   29  C   UNL     1      44.614 -20.749   2.996  1.00  0.00     0.018 A 
HETATM   30  C   UNL     1      43.240 -18.328   2.875  1.00  0.00     0.015 A 
HETATM   31  C   UNL     1      43.702 -18.932   1.702  1.00  0.00     0.001 A 
HETATM   32  C   UNL     1      44.399 -20.136   1.762  1.00  0.00     0.001 A 
ENDBRANCH   6  21
TORSDOF 4
ENDMDL
