MODEL 1
REMARK VINA RESULT:      -9.6      0.000      0.000
REMARK  7 active torsions:
REMARK  status: ('A' for Active; 'I' for Inactive)
REMARK    1  A    between atoms: C_4  and  C_5 
REMARK    2  A    between atoms: C_5  and  O_6 
REMARK    3  A    between atoms: C_5  and  C_7 
REMARK    4  A    between atoms: C_9  and  C_10 
REMARK    5  A    between atoms: C_10  and  N_11 
REMARK       I    between atoms: N_11  and  C_12 
REMARK    6  A    between atoms: C_12  and  C_13 
REMARK       I    between atoms: C_13  and  N_14 
REMARK    7  A    between atoms: N_14  and  C_15 
ROOT
HETATM    1  N   UNL     1      44.335 -13.255   8.111  1.00  0.00    -0.348 N 
HETATM    2  C   UNL     1      45.274 -12.354   8.549  1.00  0.00     0.310 C 
HETATM    3  O   UNL     1      46.451 -12.317   8.216  1.00  0.00    -0.262 OA
HETATM    4  H   UNL     1      43.426 -13.231   8.568  1.00  0.00     0.163 HD
ENDROOT
BRANCH   2   5
HETATM    5  C   UNL     1      44.736 -11.338   9.582  1.00  0.00     0.313 C 
HETATM    6  N   UNL     1      43.527 -11.739  10.111  1.00  0.00    -0.319 N 
HETATM    7  H   UNL     1      43.187 -12.627   9.747  1.00  0.00     0.169 HD
HETATM    8  O   UNL     1      45.383 -10.325   9.803  1.00  0.00    -0.262 OA
BRANCH   6   9
HETATM    9  C   UNL     1      42.717 -11.051  11.028  1.00  0.00     0.036 A 
HETATM   10  C   UNL     1      43.045 -10.878  12.371  1.00  0.00     0.039 A 
HETATM   11  C   UNL     1      42.207 -10.139  13.223  1.00  0.00    -0.028 A 
HETATM   12  C   UNL     1      41.020  -9.580  12.732  1.00  0.00     0.050 A 
HETATM   13  C   UNL     1      42.523 -10.018  14.684  1.00  0.00     0.050 C 
HETATM   14  N   UNL     1      40.193  -8.820  13.601  1.00  0.00    -0.317 N 
HETATM   15  C   UNL     1      40.653  -9.802  11.396  1.00  0.00    -0.028 A 
HETATM   16  C   UNL     1      40.625  -8.389  14.852  1.00  0.00     0.224 C 
HETATM   17  C   UNL     1      38.914  -8.314  13.112  1.00  0.00     0.132 C 
HETATM   18  O   UNL     1      39.926  -7.712  15.610  1.00  0.00    -0.273 OA
HETATM   19  C   UNL     1      42.069  -8.672  15.202  1.00  0.00     0.108 C 
HETATM   20  C   UNL     1      38.338  -9.122  11.963  1.00  0.00     0.025 C 
HETATM   21  C   UNL     1      39.367  -9.243  10.850  1.00  0.00     0.042 C 
HETATM   22  C   UNL     1      41.515 -10.517  10.549  1.00  0.00     0.039 A 
ENDBRANCH   6   9
ENDBRANCH   2   5
BRANCH   1  23
HETATM   23  C   UNL     1      44.703 -14.376   7.288  1.00  0.00     0.169 C 
BRANCH  23  24
HETATM   24  C   UNL     1      43.615 -14.623   6.298  1.00  0.00     0.001 A 
HETATM   25  S   UNL     1      43.343 -16.199   5.684  1.00  0.00    -0.095 SA
HETATM   26  C   UNL     1      42.050 -15.672   4.684  1.00  0.00     0.017 A 
HETATM   27  C   UNL     1      41.833 -14.313   4.832  1.00  0.00     0.018 A 
HETATM   28  C   UNL     1      42.729 -13.712   5.761  1.00  0.00     0.017 A 
BRANCH  26  29
HETATM   29  C   UNL     1      41.335 -16.663   3.805  1.00  0.00     0.198 C 
BRANCH  29  30
HETATM   30  C   UNL     1      42.242 -17.376   2.839  1.00  0.00     0.016 A 
HETATM   31  S   UNL     1      42.756 -16.576   1.408  1.00  0.00    -0.103 SA
HETATM   32  C   UNL     1      43.641 -17.940   0.882  1.00  0.00     0.050 A 
HETATM   33  C   UNL     1      43.555 -18.987   1.770  1.00  0.00     0.008 A 
HETATM   34  C   UNL     1      42.744 -18.665   2.897  1.00  0.00     0.018 A 
ENDBRANCH  29  30
BRANCH  29  35
HETATM   35  O   UNL     1      40.780 -17.667   4.657  1.00  0.00    -0.385 OA
HETATM   36  H   UNL     1      41.218 -17.556   5.518  1.00  0.00     0.210 HD
ENDBRANCH  29  35
ENDBRANCH  26  29
ENDBRANCH  23  24
ENDBRANCH   1  23
TORSDOF 7
ENDMDL
MODEL 2
REMARK VINA RESULT:      -9.5      3.733     11.301
REMARK  7 active torsions:
REMARK  status: ('A' for Active; 'I' for Inactive)
REMARK    1  A    between atoms: C_4  and  C_5 
REMARK    2  A    between atoms: C_5  and  O_6 
REMARK    3  A    between atoms: C_5  and  C_7 
REMARK    4  A    between atoms: C_9  and  C_10 
REMARK    5  A    between atoms: C_10  and  N_11 
REMARK       I    between atoms: N_11  and  C_12 
REMARK    6  A    between atoms: C_12  and  C_13 
REMARK       I    between atoms: C_13  and  N_14 
REMARK    7  A    between atoms: N_14  and  C_15 
ROOT
HETATM    1  N   UNL     1      41.406 -11.669   6.686  1.00  0.00    -0.348 N 
HETATM    2  C   UNL     1      40.263 -12.351   6.349  1.00  0.00     0.310 C 
HETATM    3  O   UNL     1      39.116 -11.940   6.464  1.00  0.00    -0.262 OA
HETATM    4  H   UNL     1      42.280 -12.187   6.642  1.00  0.00     0.163 HD
ENDROOT
BRANCH   2   5
HETATM    5  C   UNL     1      40.517 -13.777   5.811  1.00  0.00     0.313 C 
HETATM    6  N   UNL     1      41.862 -14.080   5.783  1.00  0.00    -0.319 N 
HETATM    7  H   UNL     1      42.465 -13.333   6.119  1.00  0.00     0.169 HD
HETATM    8  O   UNL     1      39.561 -14.453   5.459  1.00  0.00    -0.262 OA
BRANCH   6   9
HETATM    9  C   UNL     1      42.472 -15.252   5.308  1.00  0.00     0.036 A 
HETATM   10  C   UNL     1      43.119 -16.174   6.130  1.00  0.00     0.039 A 
HETATM   11  C   UNL     1      43.670 -17.348   5.591  1.00  0.00    -0.028 A 
HETATM   12  C   UNL     1      43.588 -17.599   4.215  1.00  0.00     0.050 A 
HETATM   13  C   UNL     1      44.431 -18.301   6.464  1.00  0.00     0.050 C 
HETATM   14  N   UNL     1      44.132 -18.800   3.689  1.00  0.00    -0.317 N 
HETATM   15  C   UNL     1      42.992 -16.647   3.374  1.00  0.00    -0.028 A 
HETATM   16  C   UNL     1      44.522 -19.861   4.502  1.00  0.00     0.224 C 
HETATM   17  C   UNL     1      44.126 -19.018   2.246  1.00  0.00     0.132 C 
HETATM   18  O   UNL     1      44.978 -20.917   4.059  1.00  0.00    -0.273 OA
HETATM   19  C   UNL     1      44.231 -19.720   5.979  1.00  0.00     0.108 C 
HETATM   20  C   UNL     1      44.088 -17.734   1.435  1.00  0.00     0.025 C 
HETATM   21  C   UNL     1      42.920 -16.872   1.889  1.00  0.00     0.042 C 
HETATM   22  C   UNL     1      42.419 -15.491   3.931  1.00  0.00     0.039 A 
ENDBRANCH   6   9
ENDBRANCH   2   5
BRANCH   1  23
HETATM   23  C   UNL     1      41.347 -10.403   7.365  1.00  0.00     0.169 C 
BRANCH  23  24
HETATM   24  C   UNL     1      41.601 -10.626   8.819  1.00  0.00     0.001 A 
HETATM   25  S   UNL     1      40.292 -10.832   9.904  1.00  0.00    -0.095 SA
HETATM   26  C   UNL     1      41.337 -11.001  11.256  1.00  0.00     0.017 A 
HETATM   27  C   UNL     1      42.663 -10.909  10.871  1.00  0.00     0.018 A 
HETATM   28  C   UNL     1      42.814 -10.697   9.471  1.00  0.00     0.017 A 
BRANCH  26  29
HETATM   29  C   UNL     1      40.755 -11.212  12.628  1.00  0.00     0.198 C 
BRANCH  29  30
HETATM   30  C   UNL     1      41.228 -10.209  13.645  1.00  0.00     0.016 A 
HETATM   31  S   UNL     1      40.480  -8.664  13.724  1.00  0.00    -0.103 SA
HETATM   32  C   UNL     1      41.513  -8.153  14.985  1.00  0.00     0.050 A 
HETATM   33  C   UNL     1      42.413  -9.130  15.346  1.00  0.00     0.008 A 
HETATM   34  C   UNL     1      42.252 -10.314  14.570  1.00  0.00     0.018 A 
ENDBRANCH  29  30
BRANCH  29  35
HETATM   35  O   UNL     1      39.339 -11.045  12.522  1.00  0.00    -0.385 OA
HETATM   36  H   UNL     1      38.952 -11.621  13.202  1.00  0.00     0.210 HD
ENDBRANCH  29  35
ENDBRANCH  26  29
ENDBRANCH  23  24
ENDBRANCH   1  23
TORSDOF 7
ENDMDL
MODEL 3
REMARK VINA RESULT:      -9.5      3.748     11.355
REMARK  7 active torsions:
REMARK  status: ('A' for Active; 'I' for Inactive)
REMARK    1  A    between atoms: C_4  and  C_5 
REMARK    2  A    between atoms: C_5  and  O_6 
REMARK    3  A    between atoms: C_5  and  C_7 
REMARK    4  A    between atoms: C_9  and  C_10 
REMARK    5  A    between atoms: C_10  and  N_11 
REMARK       I    between atoms: N_11  and  C_12 
REMARK    6  A    between atoms: C_12  and  C_13 
REMARK       I    between atoms: C_13  and  N_14 
REMARK    7  A    between atoms: N_14  and  C_15 
ROOT
HETATM    1  N   UNL     1      41.540 -11.806   6.685  1.00  0.00    -0.348 N 
HETATM    2  C   UNL     1      40.346 -12.373   6.315  1.00  0.00     0.310 C 
HETATM    3  O   UNL     1      39.247 -11.836   6.358  1.00  0.00    -0.262 OA
HETATM    4  H   UNL     1      42.353 -12.417   6.703  1.00  0.00     0.163 HD
ENDROOT
BRANCH   2   5
HETATM    5  C   UNL     1      40.466 -13.838   5.839  1.00  0.00     0.313 C 
HETATM    6  N   UNL     1      41.759 -14.306   5.947  1.00  0.00    -0.319 N 
HETATM    7  H   UNL     1      42.418 -13.626   6.320  1.00  0.00     0.169 HD
HETATM    8  O   UNL     1      39.468 -14.404   5.416  1.00  0.00    -0.262 OA
BRANCH   6   9
HETATM    9  C   UNL     1      42.257 -15.561   5.561  1.00  0.00     0.036 A 
HETATM   10  C   UNL     1      42.281 -16.010   4.242  1.00  0.00     0.039 A 
HETATM   11  C   UNL     1      42.836 -17.261   3.923  1.00  0.00    -0.028 A 
HETATM   12  C   UNL     1      43.358 -18.079   4.933  1.00  0.00     0.050 A 
HETATM   13  C   UNL     1      42.792 -17.775   2.515  1.00  0.00     0.050 C 
HETATM   14  N   UNL     1      43.933 -19.331   4.592  1.00  0.00    -0.317 N 
HETATM   15  C   UNL     1      43.282 -17.659   6.270  1.00  0.00    -0.028 A 
HETATM   16  C   UNL     1      44.232 -19.681   3.278  1.00  0.00     0.224 C 
HETATM   17  C   UNL     1      44.395 -20.220   5.653  1.00  0.00     0.132 C 
HETATM   18  O   UNL     1      44.749 -20.757   2.968  1.00  0.00    -0.273 OA
HETATM   19  C   UNL     1      44.021 -18.611   2.231  1.00  0.00     0.108 C 
HETATM   20  C   UNL     1      43.699 -19.995   6.985  1.00  0.00     0.025 C 
HETATM   21  C   UNL     1      43.803 -18.531   7.380  1.00  0.00     0.042 C 
HETATM   22  C   UNL     1      42.751 -16.393   6.571  1.00  0.00     0.039 A 
ENDBRANCH   6   9
ENDBRANCH   2   5
BRANCH   1  23
HETATM   23  C   UNL     1      41.590 -10.515   7.317  1.00  0.00     0.169 C 
BRANCH  23  24
HETATM   24  C   UNL     1      41.778 -10.707   8.785  1.00  0.00     0.001 A 
HETATM   25  S   UNL     1      40.421 -10.856   9.819  1.00  0.00    -0.095 SA
HETATM   26  C   UNL     1      41.405 -11.013  11.218  1.00  0.00     0.017 A 
HETATM   27  C   UNL     1      42.747 -10.960  10.886  1.00  0.00     0.018 A 
HETATM   28  C   UNL     1      42.961 -10.788   9.490  1.00  0.00     0.017 A 
BRANCH  26  29
HETATM   29  C   UNL     1      40.761 -11.176  12.569  1.00  0.00     0.198 C 
BRANCH  29  30
HETATM   30  C   UNL     1      41.250 -10.187  13.592  1.00  0.00     0.016 A 
HETATM   31  S   UNL     1      40.521  -8.634  13.687  1.00  0.00    -0.103 SA
HETATM   32  C   UNL     1      41.565  -8.146  14.949  1.00  0.00     0.050 A 
HETATM   33  C   UNL     1      42.453  -9.137  15.298  1.00  0.00     0.008 A 
HETATM   34  C   UNL     1      42.275 -10.313  14.513  1.00  0.00     0.018 A 
ENDBRANCH  29  30
BRANCH  29  35
HETATM   35  O   UNL     1      39.362 -10.935  12.407  1.00  0.00    -0.385 OA
HETATM   36  H   UNL     1      39.291 -10.198  11.777  1.00  0.00     0.210 HD
ENDBRANCH  29  35
ENDBRANCH  26  29
ENDBRANCH  23  24
ENDBRANCH   1  23
TORSDOF 7
ENDMDL
MODEL 4
REMARK VINA RESULT:      -9.5      0.460      2.069
REMARK  7 active torsions:
REMARK  status: ('A' for Active; 'I' for Inactive)
REMARK    1  A    between atoms: C_4  and  C_5 
REMARK    2  A    between atoms: C_5  and  O_6 
REMARK    3  A    between atoms: C_5  and  C_7 
REMARK    4  A    between atoms: C_9  and  C_10 
REMARK    5  A    between atoms: C_10  and  N_11 
REMARK       I    between atoms: N_11  and  C_12 
REMARK    6  A    between atoms: C_12  and  C_13 
REMARK       I    between atoms: C_13  and  N_14 
REMARK    7  A    between atoms: N_14  and  C_15 
ROOT
HETATM    1  N   UNL     1      44.292 -13.213   8.098  1.00  0.00    -0.348 N 
HETATM    2  C   UNL     1      45.255 -12.362   8.581  1.00  0.00     0.310 C 
HETATM    3  O   UNL     1      46.453 -12.412   8.333  1.00  0.00    -0.262 OA
HETATM    4  H   UNL     1      43.357 -13.116   8.487  1.00  0.00     0.163 HD
ENDROOT
BRANCH   2   5
HETATM    5  C   UNL     1      44.715 -11.283   9.546  1.00  0.00     0.313 C 
HETATM    6  N   UNL     1      43.453 -11.595  10.005  1.00  0.00    -0.319 N 
HETATM    7  H   UNL     1      43.083 -12.473   9.646  1.00  0.00     0.169 HD
HETATM    8  O   UNL     1      45.406 -10.302   9.779  1.00  0.00    -0.262 OA
BRANCH   6   9
HETATM    9  C   UNL     1      42.628 -10.831  10.846  1.00  0.00     0.036 A 
HETATM   10  C   UNL     1      41.493 -10.151  10.406  1.00  0.00     0.039 A 
HETATM   11  C   UNL     1      40.689  -9.442  11.313  1.00  0.00    -0.028 A 
HETATM   12  C   UNL     1      41.028  -9.397  12.671  1.00  0.00     0.050 A 
HETATM   13  C   UNL     1      39.512  -8.649  10.827  1.00  0.00     0.050 C 
HETATM   14  N   UNL     1      40.193  -8.692  13.578  1.00  0.00    -0.317 N 
HETATM   15  C   UNL     1      42.201 -10.028  13.111  1.00  0.00    -0.028 A 
HETATM   16  C   UNL     1      38.919  -8.252  13.231  1.00  0.00     0.224 C 
HETATM   17  C   UNL     1      40.596  -8.571  14.976  1.00  0.00     0.132 C 
HETATM   18  O   UNL     1      38.176  -7.656  14.012  1.00  0.00    -0.273 OA
HETATM   19  C   UNL     1      38.413  -8.663  11.866  1.00  0.00     0.108 C 
HETATM   20  C   UNL     1      42.095  -8.686  15.192  1.00  0.00     0.025 C 
HETATM   21  C   UNL     1      42.610  -9.968  14.558  1.00  0.00     0.042 C 
HETATM   22  C   UNL     1      42.981 -10.758  12.198  1.00  0.00     0.039 A 
ENDBRANCH   6   9
ENDBRANCH   2   5
BRANCH   1  23
HETATM   23  C   UNL     1      44.642 -14.379   7.333  1.00  0.00     0.169 C 
BRANCH  23  24
HETATM   24  C   UNL     1      43.591 -14.608   6.298  1.00  0.00     0.001 A 
HETATM   25  S   UNL     1      43.278 -16.188   5.716  1.00  0.00    -0.095 SA
HETATM   26  C   UNL     1      42.058 -15.635   4.641  1.00  0.00     0.017 A 
HETATM   27  C   UNL     1      41.895 -14.265   4.741  1.00  0.00     0.018 A 
HETATM   28  C   UNL     1      42.772 -13.676   5.695  1.00  0.00     0.017 A 
BRANCH  26  29
HETATM   29  C   UNL     1      41.342 -16.620   3.755  1.00  0.00     0.198 C 
BRANCH  29  30
HETATM   30  C   UNL     1      42.252 -17.348   2.804  1.00  0.00     0.016 A 
HETATM   31  S   UNL     1      42.689 -16.610   1.315  1.00  0.00    -0.103 SA
HETATM   32  C   UNL     1      43.619 -17.963   0.840  1.00  0.00     0.050 A 
HETATM   33  C   UNL     1      43.603 -18.961   1.786  1.00  0.00     0.008 A 
HETATM   34  C   UNL     1      42.811 -18.609   2.917  1.00  0.00     0.018 A 
ENDBRANCH  29  30
BRANCH  29  35
HETATM   35  O   UNL     1      40.763 -17.614   4.604  1.00  0.00    -0.385 OA
HETATM   36  H   UNL     1      41.353 -17.682   5.374  1.00  0.00     0.210 HD
ENDBRANCH  29  35
ENDBRANCH  26  29
ENDBRANCH  23  24
ENDBRANCH   1  23
TORSDOF 7
ENDMDL
MODEL 5
REMARK VINA RESULT:      -9.4      7.302     10.933
REMARK  7 active torsions:
REMARK  status: ('A' for Active; 'I' for Inactive)
REMARK    1  A    between atoms: C_4  and  C_5 
REMARK    2  A    between atoms: C_5  and  O_6 
REMARK    3  A    between atoms: C_5  and  C_7 
REMARK    4  A    between atoms: C_9  and  C_10 
REMARK    5  A    between atoms: C_10  and  N_11 
REMARK       I    between atoms: N_11  and  C_12 
REMARK    6  A    between atoms: C_12  and  C_13 
REMARK       I    between atoms: C_13  and  N_14 
REMARK    7  A    between atoms: N_14  and  C_15 
ROOT
HETATM    1  N   UNL     1      41.176 -13.022   2.843  1.00  0.00    -0.348 N 
HETATM    2  C   UNL     1      41.852 -13.414   3.971  1.00  0.00     0.310 C 
HETATM    3  O   UNL     1      42.495 -12.688   4.717  1.00  0.00    -0.262 OA
HETATM    4  H   UNL     1      40.784 -13.760   2.262  1.00  0.00     0.163 HD
ENDROOT
BRANCH   2   5
HETATM    5  C   UNL     1      41.779 -14.931   4.253  1.00  0.00     0.313 C 
HETATM    6  N   UNL     1      42.944 -15.575   3.893  1.00  0.00    -0.319 N 
HETATM    7  H   UNL     1      43.658 -14.959   3.509  1.00  0.00     0.169 HD
HETATM    8  O   UNL     1      40.748 -15.395   4.719  1.00  0.00    -0.262 OA
BRANCH   6   9
HETATM    9  C   UNL     1      43.224 -16.949   3.950  1.00  0.00     0.036 A 
HETATM   10  C   UNL     1      43.185 -17.792   2.839  1.00  0.00     0.039 A 
HETATM   11  C   UNL     1      43.520 -19.150   2.962  1.00  0.00    -0.028 A 
HETATM   12  C   UNL     1      43.883 -19.678   4.207  1.00  0.00     0.050 A 
HETATM   13  C   UNL     1      43.404 -20.071   1.783  1.00  0.00     0.050 C 
HETATM   14  N   UNL     1      44.238 -21.049   4.310  1.00  0.00    -0.317 N 
HETATM   15  C   UNL     1      43.866 -18.850   5.339  1.00  0.00    -0.028 A 
HETATM   16  C   UNL     1      44.487 -21.840   3.192  1.00  0.00     0.224 C 
HETATM   17  C   UNL     1      44.530 -21.617   5.622  1.00  0.00     0.132 C 
HETATM   18  O   UNL     1      44.814 -23.026   3.266  1.00  0.00    -0.273 OA
HETATM   19  C   UNL     1      44.473 -21.138   1.852  1.00  0.00     0.108 C 
HETATM   20  C   UNL     1      43.868 -20.874   6.770  1.00  0.00     0.025 C 
HETATM   21  C   UNL     1      44.218 -19.396   6.696  1.00  0.00     0.042 C 
HETATM   22  C   UNL     1      43.557 -17.486   5.198  1.00  0.00     0.039 A 
ENDBRANCH   6   9
ENDBRANCH   2   5
BRANCH   1  23
HETATM   23  C   UNL     1      41.285 -11.681   2.334  1.00  0.00     0.169 C 
BRANCH  23  24
HETATM   24  C   UNL     1      41.684 -11.743   0.898  1.00  0.00     0.001 A 
HETATM   25  S   UNL     1      41.662 -13.235   0.057  1.00  0.00    -0.095 SA
HETATM   26  C   UNL     1      42.221 -12.514  -1.398  1.00  0.00     0.017 A 
HETATM   27  C   UNL     1      42.408 -11.153  -1.234  1.00  0.00     0.018 A 
HETATM   28  C   UNL     1      42.097 -10.710   0.082  1.00  0.00     0.017 A 
BRANCH  26  29
HETATM   29  C   UNL     1      42.441 -13.368  -2.618  1.00  0.00     0.198 C 
BRANCH  29  30
HETATM   30  C   UNL     1      41.238 -14.183  -3.008  1.00  0.00     0.016 A 
HETATM   31  S   UNL     1      39.763 -13.390  -3.391  1.00  0.00    -0.103 SA
HETATM   32  C   UNL     1      38.958 -14.872  -3.664  1.00  0.00     0.050 A 
HETATM   33  C   UNL     1      39.785 -15.954  -3.471  1.00  0.00     0.008 A 
HETATM   34  C   UNL     1      41.099 -15.558  -3.088  1.00  0.00     0.018 A 
ENDBRANCH  29  30
BRANCH  29  35
HETATM   35  O   UNL     1      42.707 -12.488  -3.713  1.00  0.00    -0.385 OA
HETATM   36  H   UNL     1      42.036 -12.693  -4.387  1.00  0.00     0.210 HD
ENDBRANCH  29  35
ENDBRANCH  26  29
ENDBRANCH  23  24
ENDBRANCH   1  23
TORSDOF 7
ENDMDL
MODEL 6
REMARK VINA RESULT:      -9.3      3.155      9.493
REMARK  7 active torsions:
REMARK  status: ('A' for Active; 'I' for Inactive)
REMARK    1  A    between atoms: C_4  and  C_5 
REMARK    2  A    between atoms: C_5  and  O_6 
REMARK    3  A    between atoms: C_5  and  C_7 
REMARK    4  A    between atoms: C_9  and  C_10 
REMARK    5  A    between atoms: C_10  and  N_11 
REMARK       I    between atoms: N_11  and  C_12 
REMARK    6  A    between atoms: C_12  and  C_13 
REMARK       I    between atoms: C_13  and  N_14 
REMARK    7  A    between atoms: N_14  and  C_15 
ROOT
HETATM    1  N   UNL     1      44.473 -12.299  10.209  1.00  0.00    -0.348 N 
HETATM    2  C   UNL     1      45.284 -11.836   9.202  1.00  0.00     0.310 C 
HETATM    3  O   UNL     1      45.846 -10.749   9.170  1.00  0.00    -0.262 OA
HETATM    4  H   UNL     1      43.985 -13.175  10.039  1.00  0.00     0.163 HD
ENDROOT
BRANCH   2   5
HETATM    5  C   UNL     1      45.434 -12.814   8.015  1.00  0.00     0.313 C 
HETATM    6  N   UNL     1      44.281 -13.539   7.802  1.00  0.00    -0.319 N 
HETATM    7  H   UNL     1      43.525 -13.318   8.445  1.00  0.00     0.169 HD
HETATM    8  O   UNL     1      46.505 -12.866   7.427  1.00  0.00    -0.262 OA
BRANCH   6   9
HETATM    9  C   UNL     1      44.063 -14.554   6.856  1.00  0.00     0.036 A 
HETATM   10  C   UNL     1      43.492 -14.333   5.604  1.00  0.00     0.039 A 
HETATM   11  C   UNL     1      43.344 -15.389   4.690  1.00  0.00    -0.028 A 
HETATM   12  C   UNL     1      43.757 -16.683   5.034  1.00  0.00     0.050 A 
HETATM   13  C   UNL     1      42.660 -15.166   3.374  1.00  0.00     0.050 C 
HETATM   14  N   UNL     1      43.619 -17.736   4.091  1.00  0.00    -0.317 N 
HETATM   15  C   UNL     1      44.277 -16.924   6.314  1.00  0.00    -0.028 A 
HETATM   16  C   UNL     1      43.326 -17.502   2.751  1.00  0.00     0.224 C 
HETATM   17  C   UNL     1      43.966 -19.098   4.483  1.00  0.00     0.132 C 
HETATM   18  O   UNL     1      43.222 -18.403   1.917  1.00  0.00    -0.273 OA
HETATM   19  C   UNL     1      43.273 -16.054   2.314  1.00  0.00     0.108 C 
HETATM   20  C   UNL     1      43.873 -19.346   5.978  1.00  0.00     0.025 C 
HETATM   21  C   UNL     1      44.697 -18.309   6.725  1.00  0.00     0.042 C 
HETATM   22  C   UNL     1      44.446 -15.853   7.208  1.00  0.00     0.039 A 
ENDBRANCH   6   9
ENDBRANCH   2   5
BRANCH   1  23
HETATM   23  C   UNL     1      44.081 -11.452  11.302  1.00  0.00     0.169 C 
BRANCH  23  24
HETATM   24  C   UNL     1      42.642 -11.093  11.140  1.00  0.00     0.001 A 
HETATM   25  S   UNL     1      42.033 -10.626   9.609  1.00  0.00    -0.095 SA
HETATM   26  C   UNL     1      40.448 -10.385  10.225  1.00  0.00     0.017 A 
HETATM   27  C   UNL     1      40.395 -10.669  11.578  1.00  0.00     0.018 A 
HETATM   28  C   UNL     1      41.654 -11.079  12.103  1.00  0.00     0.017 A 
BRANCH  26  29
HETATM   29  C   UNL     1      39.352  -9.918   9.304  1.00  0.00     0.198 C 
BRANCH  29  30
HETATM   30  C   UNL     1      39.414 -10.536   7.933  1.00  0.00     0.016 A 
HETATM   31  S   UNL     1      39.496  -9.522   6.549  1.00  0.00    -0.103 SA
HETATM   32  C   UNL     1      39.497 -10.859   5.485  1.00  0.00     0.050 A 
HETATM   33  C   UNL     1      39.437 -12.057   6.159  1.00  0.00     0.008 A 
HETATM   34  C   UNL     1      39.384 -11.871   7.571  1.00  0.00     0.018 A 
ENDBRANCH  29  30
BRANCH  29  35
HETATM   35  O   UNL     1      38.109 -10.328   9.878  1.00  0.00    -0.385 OA
HETATM   36  H   UNL     1      38.040 -11.283   9.707  1.00  0.00     0.210 HD
ENDBRANCH  29  35
ENDBRANCH  26  29
ENDBRANCH  23  24
ENDBRANCH   1  23
TORSDOF 7
ENDMDL
MODEL 7
REMARK VINA RESULT:      -9.2      3.167      9.297
REMARK  7 active torsions:
REMARK  status: ('A' for Active; 'I' for Inactive)
REMARK    1  A    between atoms: C_4  and  C_5 
REMARK    2  A    between atoms: C_5  and  O_6 
REMARK    3  A    between atoms: C_5  and  C_7 
REMARK    4  A    between atoms: C_9  and  C_10 
REMARK    5  A    between atoms: C_10  and  N_11 
REMARK       I    between atoms: N_11  and  C_12 
REMARK    6  A    between atoms: C_12  and  C_13 
REMARK       I    between atoms: C_13  and  N_14 
REMARK    7  A    between atoms: N_14  and  C_15 
ROOT
HETATM    1  N   UNL     1      44.476 -12.277  10.304  1.00  0.00    -0.348 N 
HETATM    2  C   UNL     1      45.272 -11.773   9.305  1.00  0.00     0.310 C 
HETATM    3  O   UNL     1      45.802 -10.670   9.291  1.00  0.00    -0.262 OA
HETATM    4  H   UNL     1      44.013 -13.164  10.119  1.00  0.00     0.163 HD
ENDROOT
BRANCH   2   5
HETATM    5  C   UNL     1      45.451 -12.726   8.102  1.00  0.00     0.313 C 
HETATM    6  N   UNL     1      44.292 -13.420   7.823  1.00  0.00    -0.319 N 
HETATM    7  H   UNL     1      43.514 -13.196   8.440  1.00  0.00     0.169 HD
HETATM    8  O   UNL     1      46.544 -12.789   7.557  1.00  0.00    -0.262 OA
BRANCH   6   9
HETATM    9  C   UNL     1      44.091 -14.407   6.846  1.00  0.00     0.036 A 
HETATM   10  C   UNL     1      44.497 -15.733   6.991  1.00  0.00     0.039 A 
HETATM   11  C   UNL     1      44.223 -16.678   5.989  1.00  0.00    -0.028 A 
HETATM   12  C   UNL     1      43.551 -16.293   4.822  1.00  0.00     0.050 A 
HETATM   13  C   UNL     1      44.727 -18.085   6.113  1.00  0.00     0.050 C 
HETATM   14  N   UNL     1      43.265 -17.265   3.827  1.00  0.00    -0.317 N 
HETATM   15  C   UNL     1      43.194 -14.949   4.642  1.00  0.00    -0.028 A 
HETATM   16  C   UNL     1      43.395 -18.631   4.060  1.00  0.00     0.224 C 
HETATM   17  C   UNL     1      42.645 -16.846   2.574  1.00  0.00     0.132 C 
HETATM   18  O   UNL     1      43.132 -19.487   3.213  1.00  0.00    -0.273 OA
HETATM   19  C   UNL     1      43.748 -19.044   5.472  1.00  0.00     0.108 C 
HETATM   20  C   UNL     1      42.904 -15.392   2.220  1.00  0.00     0.025 C 
HETATM   21  C   UNL     1      42.502 -14.499   3.384  1.00  0.00     0.042 C 
HETATM   22  C   UNL     1      43.447 -14.020   5.665  1.00  0.00     0.039 A 
ENDBRANCH   6   9
ENDBRANCH   2   5
BRANCH   1  23
HETATM   23  C   UNL     1      44.060 -11.459  11.411  1.00  0.00     0.169 C 
BRANCH  23  24
HETATM   24  C   UNL     1      42.616 -11.123  11.244  1.00  0.00     0.001 A 
HETATM   25  S   UNL     1      42.034 -10.522   9.749  1.00  0.00    -0.095 SA
HETATM   26  C   UNL     1      40.428 -10.383  10.341  1.00  0.00     0.017 A 
HETATM   27  C   UNL     1      40.348 -10.800  11.657  1.00  0.00     0.018 A 
HETATM   28  C   UNL     1      41.603 -11.228  12.175  1.00  0.00     0.017 A 
BRANCH  26  29
HETATM   29  C   UNL     1      39.344  -9.855   9.439  1.00  0.00     0.198 C 
BRANCH  29  30
HETATM   30  C   UNL     1      39.403 -10.405   8.040  1.00  0.00     0.016 A 
HETATM   31  S   UNL     1      39.445  -9.326   6.704  1.00  0.00    -0.103 SA
HETATM   32  C   UNL     1      39.465 -10.611   5.578  1.00  0.00     0.050 A 
HETATM   33  C   UNL     1      39.440 -11.840   6.195  1.00  0.00     0.008 A 
HETATM   34  C   UNL     1      39.399 -11.723   7.615  1.00  0.00     0.018 A 
ENDBRANCH  29  30
BRANCH  29  35
HETATM   35  O   UNL     1      38.092 -10.274   9.987  1.00  0.00    -0.385 OA
HETATM   36  H   UNL     1      37.925  -9.689  10.746  1.00  0.00     0.210 HD
ENDBRANCH  29  35
ENDBRANCH  26  29
ENDBRANCH  23  24
ENDBRANCH   1  23
TORSDOF 7
ENDMDL
MODEL 8
REMARK VINA RESULT:      -9.1      3.547     11.516
REMARK  7 active torsions:
REMARK  status: ('A' for Active; 'I' for Inactive)
REMARK    1  A    between atoms: C_4  and  C_5 
REMARK    2  A    between atoms: C_5  and  O_6 
REMARK    3  A    between atoms: C_5  and  C_7 
REMARK    4  A    between atoms: C_9  and  C_10 
REMARK    5  A    between atoms: C_10  and  N_11 
REMARK       I    between atoms: N_11  and  C_12 
REMARK    6  A    between atoms: C_12  and  C_13 
REMARK       I    between atoms: C_13  and  N_14 
REMARK    7  A    between atoms: N_14  and  C_15 
ROOT
HETATM    1  N   UNL     1      41.755 -12.261   6.538  1.00  0.00    -0.348 N 
HETATM    2  C   UNL     1      42.090 -12.433   5.218  1.00  0.00     0.310 C 
HETATM    3  O   UNL     1      41.758 -11.710   4.288  1.00  0.00    -0.262 OA
HETATM    4  H   UNL     1      42.009 -13.010   7.178  1.00  0.00     0.163 HD
ENDROOT
BRANCH   2   5
HETATM    5  C   UNL     1      42.941 -13.693   4.944  1.00  0.00     0.313 C 
HETATM    6  N   UNL     1      42.159 -14.824   4.835  1.00  0.00    -0.319 N 
HETATM    7  H   UNL     1      41.162 -14.653   4.946  1.00  0.00     0.169 HD
HETATM    8  O   UNL     1      44.157 -13.580   4.876  1.00  0.00    -0.262 OA
BRANCH   6   9
HETATM    9  C   UNL     1      42.581 -16.149   4.645  1.00  0.00     0.036 A 
HETATM   10  C   UNL     1      42.507 -16.816   3.423  1.00  0.00     0.039 A 
HETATM   11  C   UNL     1      42.989 -18.129   3.295  1.00  0.00    -0.028 A 
HETATM   12  C   UNL     1      43.537 -18.790   4.402  1.00  0.00     0.050 A 
HETATM   13  C   UNL     1      42.840 -18.871   2.000  1.00  0.00     0.050 C 
HETATM   14  N   UNL     1      44.038 -20.110   4.251  1.00  0.00    -0.317 N 
HETATM   15  C   UNL     1      43.559 -18.147   5.649  1.00  0.00    -0.028 A 
HETATM   16  C   UNL     1      44.242 -20.692   3.003  1.00  0.00     0.224 C 
HETATM   17  C   UNL     1      44.526 -20.829   5.424  1.00  0.00     0.132 C 
HETATM   18  O   UNL     1      44.694 -21.829   2.856  1.00  0.00    -0.273 OA
HETATM   19  C   UNL     1      44.013 -19.804   1.800  1.00  0.00     0.108 C 
HETATM   20  C   UNL     1      43.921 -20.347   6.731  1.00  0.00     0.025 C 
HETATM   21  C   UNL     1      44.109 -18.844   6.863  1.00  0.00     0.042 C 
HETATM   22  C   UNL     1      43.100 -16.823   5.756  1.00  0.00     0.039 A 
ENDBRANCH   6   9
ENDBRANCH   2   5
BRANCH   1  23
HETATM   23  C   UNL     1      40.823 -11.244   6.946  1.00  0.00     0.169 C 
BRANCH  23  24
HETATM   24  C   UNL     1      41.323 -10.609   8.200  1.00  0.00     0.001 A 
HETATM   25  S   UNL     1      42.752 -11.183   8.951  1.00  0.00    -0.095 SA
HETATM   26  C   UNL     1      42.636 -10.037  10.225  1.00  0.00     0.017 A 
HETATM   27  C   UNL     1      41.525  -9.229  10.063  1.00  0.00     0.018 A 
HETATM   28  C   UNL     1      40.773  -9.555   8.900  1.00  0.00     0.017 A 
BRANCH  26  29
HETATM   29  C   UNL     1      43.674 -10.026  11.316  1.00  0.00     0.198 C 
BRANCH  29  30
HETATM   30  C   UNL     1      43.092  -9.930  12.700  1.00  0.00     0.016 A 
HETATM   31  S   UNL     1      41.715 -10.871  13.109  1.00  0.00    -0.103 SA
HETATM   32  C   UNL     1      41.658 -10.225  14.689  1.00  0.00     0.050 A 
HETATM   33  C   UNL     1      42.661  -9.311  14.912  1.00  0.00     0.008 A 
HETATM   34  C   UNL     1      43.487  -9.137  13.763  1.00  0.00     0.018 A 
ENDBRANCH  29  30
BRANCH  29  35
HETATM   35  O   UNL     1      44.371 -11.273  11.254  1.00  0.00    -0.385 OA
HETATM   36  H   UNL     1      43.693 -11.962  11.361  1.00  0.00     0.210 HD
ENDBRANCH  29  35
ENDBRANCH  26  29
ENDBRANCH  23  24
ENDBRANCH   1  23
TORSDOF 7
ENDMDL
MODEL 9
REMARK VINA RESULT:      -9.1      3.747     11.260
REMARK  7 active torsions:
REMARK  status: ('A' for Active; 'I' for Inactive)
REMARK    1  A    between atoms: C_4  and  C_5 
REMARK    2  A    between atoms: C_5  and  O_6 
REMARK    3  A    between atoms: C_5  and  C_7 
REMARK    4  A    between atoms: C_9  and  C_10 
REMARK    5  A    between atoms: C_10  and  N_11 
REMARK       I    between atoms: N_11  and  C_12 
REMARK    6  A    between atoms: C_12  and  C_13 
REMARK       I    between atoms: C_13  and  N_14 
REMARK    7  A    between atoms: N_14  and  C_15 
ROOT
HETATM    1  N   UNL     1      41.180 -11.472   6.640  1.00  0.00    -0.348 N 
HETATM    2  C   UNL     1      40.597 -12.588   6.093  1.00  0.00     0.310 C 
HETATM    3  O   UNL     1      39.398 -12.827   6.047  1.00  0.00    -0.262 OA
HETATM    4  H   UNL     1      42.195 -11.470   6.707  1.00  0.00     0.163 HD
ENDROOT
BRANCH   2   5
HETATM    5  C   UNL     1      41.606 -13.612   5.528  1.00  0.00     0.313 C 
HETATM    6  N   UNL     1      41.293 -14.900   5.907  1.00  0.00    -0.319 N 
HETATM    7  H   UNL     1      40.459 -14.974   6.485  1.00  0.00     0.169 HD
HETATM    8  O   UNL     1      42.545 -13.206   4.857  1.00  0.00    -0.262 OA
BRANCH   6   9
HETATM    9  C   UNL     1      42.006 -16.078   5.632  1.00  0.00     0.036 A 
HETATM   10  C   UNL     1      42.591 -16.874   6.616  1.00  0.00     0.039 A 
HETATM   11  C   UNL     1      43.253 -18.064   6.272  1.00  0.00    -0.028 A 
HETATM   12  C   UNL     1      43.346 -18.457   4.931  1.00  0.00     0.050 A 
HETATM   13  C   UNL     1      43.946 -18.880   7.323  1.00  0.00     0.050 C 
HETATM   14  N   UNL     1      44.002 -19.673   4.601  1.00  0.00    -0.317 N 
HETATM   15  C   UNL     1      42.813 -17.630   3.930  1.00  0.00    -0.028 A 
HETATM   16  C   UNL     1      44.338 -20.622   5.562  1.00  0.00     0.224 C 
HETATM   17  C   UNL     1      44.176 -20.035   3.198  1.00  0.00     0.132 C 
HETATM   18  O   UNL     1      44.890 -21.690   5.290  1.00  0.00    -0.273 OA
HETATM   19  C   UNL     1      43.867 -20.349   6.973  1.00  0.00     0.108 C 
HETATM   20  C   UNL     1      44.178 -18.844   2.255  1.00  0.00     0.025 C 
HETATM   21  C   UNL     1      42.928 -18.008   2.479  1.00  0.00     0.042 C 
HETATM   22  C   UNL     1      42.128 -16.458   4.291  1.00  0.00     0.039 A 
ENDBRANCH   6   9
ENDBRANCH   2   5
BRANCH   1  23
HETATM   23  C   UNL     1      40.404 -10.504   7.367  1.00  0.00     0.169 C 
BRANCH  23  24
HETATM   24  C   UNL     1      40.711 -10.637   8.821  1.00  0.00     0.001 A 
HETATM   25  S   UNL     1      42.319 -10.466   9.386  1.00  0.00    -0.095 SA
HETATM   26  C   UNL     1      41.861 -10.751  11.016  1.00  0.00     0.017 A 
HETATM   27  C   UNL     1      40.498 -10.963  11.116  1.00  0.00     0.018 A 
HETATM   28  C   UNL     1      39.837 -10.894   9.857  1.00  0.00     0.017 A 
BRANCH  26  29
HETATM   29  C   UNL     1      42.909 -10.749  12.097  1.00  0.00     0.198 C 
BRANCH  29  30
HETATM   30  C   UNL     1      42.540  -9.912  13.292  1.00  0.00     0.016 A 
HETATM   31  S   UNL     1      42.339  -8.216  13.110  1.00  0.00    -0.103 SA
HETATM   32  C   UNL     1      41.998  -8.010  14.772  1.00  0.00     0.050 A 
HETATM   33  C   UNL     1      42.035  -9.200  15.459  1.00  0.00     0.008 A 
HETATM   34  C   UNL     1      42.352 -10.298  14.608  1.00  0.00     0.018 A 
ENDBRANCH  29  30
BRANCH  29  35
HETATM   35  O   UNL     1      43.040 -12.092  12.567  1.00  0.00    -0.385 OA
HETATM   36  H   UNL     1      42.137 -12.450  12.603  1.00  0.00     0.210 HD
ENDBRANCH  29  35
ENDBRANCH  26  29
ENDBRANCH  23  24
ENDBRANCH   1  23
TORSDOF 7
ENDMDL
MODEL 10
REMARK VINA RESULT:      -9.0      2.662      3.825
REMARK  7 active torsions:
REMARK  status: ('A' for Active; 'I' for Inactive)
REMARK    1  A    between atoms: C_4  and  C_5 
REMARK    2  A    between atoms: C_5  and  O_6 
REMARK    3  A    between atoms: C_5  and  C_7 
REMARK    4  A    between atoms: C_9  and  C_10 
REMARK    5  A    between atoms: C_10  and  N_11 
REMARK       I    between atoms: N_11  and  C_12 
REMARK    6  A    between atoms: C_12  and  C_13 
REMARK       I    between atoms: C_13  and  N_14 
REMARK    7  A    between atoms: N_14  and  C_15 
ROOT
HETATM    1  N   UNL     1      40.052 -13.438   6.798  1.00  0.00    -0.348 N 
HETATM    2  C   UNL     1      39.390 -12.260   6.559  1.00  0.00     0.310 C 
HETATM    3  O   UNL     1      38.586 -12.052   5.660  1.00  0.00    -0.262 OA
HETATM    4  H   UNL     1      40.776 -13.421   7.512  1.00  0.00     0.163 HD
ENDROOT
BRANCH   2   5
HETATM    5  C   UNL     1      39.761 -11.120   7.535  1.00  0.00     0.313 C 
HETATM    6  N   UNL     1      39.784 -11.556   8.843  1.00  0.00    -0.319 N 
HETATM    7  H   UNL     1      39.561 -12.542   8.958  1.00  0.00     0.169 HD
HETATM    8  O   UNL     1      39.963 -10.002   7.085  1.00  0.00    -0.262 OA
BRANCH   6   9
HETATM    9  C   UNL     1      40.023 -10.798  10.000  1.00  0.00     0.036 A 
HETATM   10  C   UNL     1      39.174  -9.788  10.452  1.00  0.00     0.039 A 
HETATM   11  C   UNL     1      39.454  -9.100  11.644  1.00  0.00    -0.028 A 
HETATM   12  C   UNL     1      40.601  -9.411  12.385  1.00  0.00     0.050 A 
HETATM   13  C   UNL     1      38.581  -7.964  12.088  1.00  0.00     0.050 C 
HETATM   14  N   UNL     1      40.859  -8.719  13.599  1.00  0.00    -0.317 N 
HETATM   15  C   UNL     1      41.491 -10.383  11.906  1.00  0.00    -0.028 A 
HETATM   16  C   UNL     1      39.901  -7.922  14.220  1.00  0.00     0.224 C 
HETATM   17  C   UNL     1      42.098  -8.981  14.323  1.00  0.00     0.132 C 
HETATM   18  O   UNL     1      40.104  -7.330  15.282  1.00  0.00    -0.273 OA
HETATM   19  C   UNL     1      38.522  -7.916  13.599  1.00  0.00     0.108 C 
HETATM   20  C   UNL     1      43.222  -9.498  13.442  1.00  0.00     0.025 C 
HETATM   21  C   UNL     1      42.748 -10.714  12.662  1.00  0.00     0.042 C 
HETATM   22  C   UNL     1      41.184 -11.084  10.727  1.00  0.00     0.039 A 
ENDBRANCH   6   9
ENDBRANCH   2   5
BRANCH   1  23
HETATM   23  C   UNL     1      39.962 -14.544   5.883  1.00  0.00     0.169 C 
BRANCH  23  24
HETATM   24  C   UNL     1      41.287 -15.227   5.824  1.00  0.00     0.001 A 
HETATM   25  S   UNL     1      41.397 -16.923   6.038  1.00  0.00    -0.095 SA
HETATM   26  C   UNL     1      43.105 -16.915   5.859  1.00  0.00     0.017 A 
HETATM   27  C   UNL     1      43.572 -15.632   5.631  1.00  0.00     0.018 A 
HETATM   28  C   UNL     1      42.528 -14.664   5.608  1.00  0.00     0.017 A 
BRANCH  26  29
HETATM   29  C   UNL     1      43.873 -18.205   5.966  1.00  0.00     0.198 C 
BRANCH  29  30
HETATM   30  C   UNL     1      44.052 -18.910   4.648  1.00  0.00     0.016 A 
HETATM   31  S   UNL     1      44.879 -20.415   4.596  1.00  0.00    -0.103 SA
HETATM   32  C   UNL     1      44.709 -20.527   2.900  1.00  0.00     0.050 A 
HETATM   33  C   UNL     1      44.038 -19.447   2.374  1.00  0.00     0.008 A 
HETATM   34  C   UNL     1      43.663 -18.512   3.381  1.00  0.00     0.018 A 
ENDBRANCH  29  30
BRANCH  29  35
HETATM   35  O   UNL     1      45.184 -17.884   6.435  1.00  0.00    -0.385 OA
HETATM   36  H   UNL     1      45.273 -18.324   7.298  1.00  0.00     0.210 HD
ENDBRANCH  29  35
ENDBRANCH  26  29
ENDBRANCH  23  24
ENDBRANCH   1  23
TORSDOF 7
ENDMDL
