MODEL 1
REMARK VINA RESULT:      -8.7      0.000      0.000
REMARK  7 active torsions:
REMARK  status: ('A' for Active; 'I' for Inactive)
REMARK       I    between atoms: C_2  and  N_3 
REMARK    1  A    between atoms: N_3  and  C_4 
REMARK    2  A    between atoms: C_7  and  N_8 
REMARK       I    between atoms: N_8  and  C_9 
REMARK    3  A    between atoms: C_9  and  C_10 
REMARK    4  A    between atoms: C_11  and  C_12 
REMARK    5  A    between atoms: C_13  and  O_14 
REMARK    6  A    between atoms: N_20  and  C_21 
REMARK    7  A    between atoms: C_24  and  O_25 
ROOT
HETATM    1  C   UNL     1      42.145 -12.630   2.902  1.00  0.00     0.106 C 
HETATM    2  C   UNL     1      41.723 -12.529   1.427  1.00  0.00     0.142 C 
HETATM    3  N   UNL     1      40.585 -13.429   1.084  1.00  0.00    -0.308 N 
HETATM    4  C   UNL     1      39.518 -13.597   1.982  1.00  0.00     0.225 C 
HETATM    5  O   UNL     1      38.383 -13.953   1.664  1.00  0.00    -0.273 OA
HETATM    6  C   UNL     1      39.827 -13.450   3.462  1.00  0.00     0.104 C 
HETATM    7  C   UNL     1      40.945 -12.499   3.828  1.00  0.00     0.026 C 
ENDROOT
BRANCH   1   8
HETATM    8  C   UNL     1      42.964 -13.884   3.233  1.00  0.00     0.228 C 
HETATM    9  N   UNL     1      42.800 -14.944   2.362  1.00  0.00    -0.327 N 
HETATM   10  H   UNL     1      42.395 -14.747   1.454  1.00  0.00     0.169 HD
HETATM   11  O   UNL     1      43.619 -13.914   4.273  1.00  0.00    -0.273 OA
BRANCH   9  12
HETATM   12  C   UNL     1      43.109 -16.301   2.594  1.00  0.00     0.034 A 
HETATM   13  C   UNL     1      42.632 -17.038   3.676  1.00  0.00     0.032 A 
HETATM   14  C   UNL     1      42.898 -18.412   3.779  1.00  0.00     0.032 A 
HETATM   15  C   UNL     1      43.643 -19.069   2.803  1.00  0.00     0.034 A 
HETATM   16  C   UNL     1      44.150 -18.323   1.734  1.00  0.00     0.032 A 
HETATM   17  C   UNL     1      43.885 -16.952   1.629  1.00  0.00     0.032 A 
BRANCH  15  18
HETATM   18  N   UNL     1      43.905 -20.456   2.806  1.00  0.00    -0.328 N 
HETATM   19  C   UNL     1      44.686 -21.162   3.702  1.00  0.00     0.218 C 
HETATM   20  C   UNL     1      44.678 -22.650   3.445  1.00  0.00     0.117 C 
HETATM   21  O   UNL     1      45.323 -20.705   4.644  1.00  0.00    -0.274 OA
HETATM   22  H   UNL     1      43.435 -20.991   2.087  1.00  0.00     0.169 HD
ENDBRANCH  15  18
ENDBRANCH   9  12
ENDBRANCH   1   8
BRANCH   2  23
HETATM   23  C   UNL     1      41.476 -11.060   1.041  1.00  0.00    -0.001 A 
HETATM   24  C   UNL     1      42.273 -10.455   0.042  1.00  0.00     0.076 A 
HETATM   25  C   UNL     1      42.101  -9.101  -0.267  1.00  0.00     0.037 A 
HETATM   26  C   UNL     1      41.139  -8.339   0.397  1.00  0.00     0.003 A 
HETATM   27  C   UNL     1      40.338  -8.926   1.367  1.00  0.00     0.001 A 
HETATM   28  C   UNL     1      40.502 -10.275   1.686  1.00  0.00     0.012 A 
BRANCH  24  29
HETATM   29  O   UNL     1      43.193 -11.272  -0.563  1.00  0.00    -0.355 OA
HETATM   30  C   UNL     1      42.969 -11.614  -1.926  1.00  0.00     0.210 C 
ENDBRANCH  24  29
ENDBRANCH   2  23
BRANCH   3  31
HETATM   31  C   UNL     1      40.517 -13.964  -0.264  1.00  0.00     0.038 A 
HETATM   32  C   UNL     1      39.762 -13.328  -1.260  1.00  0.00     0.032 A 
HETATM   33  C   UNL     1      39.632 -13.876  -2.545  1.00  0.00     0.039 A 
HETATM   34  C   UNL     1      40.246 -15.081  -2.874  1.00  0.00     0.068 A 
HETATM   35  C   UNL     1      41.005 -15.726  -1.905  1.00  0.00     0.039 A 
HETATM   36  C   UNL     1      41.133 -15.176  -0.618  1.00  0.00     0.032 A 
BRANCH  34  37
HETATM   37  O   UNL     1      40.030 -15.511  -4.151  1.00  0.00    -0.356 OA
HETATM   38  C   UNL     1      38.803 -16.182  -4.405  1.00  0.00     0.210 C 
ENDBRANCH  34  37
ENDBRANCH   3  31
TORSDOF 7
ENDMDL
MODEL 2
REMARK VINA RESULT:      -8.0      1.879      2.291
REMARK  7 active torsions:
REMARK  status: ('A' for Active; 'I' for Inactive)
REMARK       I    between atoms: C_2  and  N_3 
REMARK    1  A    between atoms: N_3  and  C_4 
REMARK    2  A    between atoms: C_7  and  N_8 
REMARK       I    between atoms: N_8  and  C_9 
REMARK    3  A    between atoms: C_9  and  C_10 
REMARK    4  A    between atoms: C_11  and  C_12 
REMARK    5  A    between atoms: C_13  and  O_14 
REMARK    6  A    between atoms: N_20  and  C_21 
REMARK    7  A    between atoms: C_24  and  O_25 
ROOT
HETATM    1  C   UNL     1      41.966 -12.926   1.591  1.00  0.00     0.106 C 
HETATM    2  C   UNL     1      41.348 -12.442   0.270  1.00  0.00     0.142 C 
HETATM    3  N   UNL     1      39.861 -12.349   0.321  1.00  0.00    -0.308 N 
HETATM    4  C   UNL     1      39.219 -11.865   1.473  1.00  0.00     0.225 C 
HETATM    5  O   UNL     1      38.094 -11.366   1.491  1.00  0.00    -0.273 OA
HETATM    6  C   UNL     1      39.918 -12.089   2.802  1.00  0.00     0.104 C 
HETATM    7  C   UNL     1      41.430 -12.132   2.773  1.00  0.00     0.026 C 
ENDROOT
BRANCH   1   8
HETATM    8  C   UNL     1      41.825 -14.435   1.831  1.00  0.00     0.228 C 
HETATM    9  N   UNL     1      42.818 -15.006   2.604  1.00  0.00    -0.327 N 
HETATM   10  H   UNL     1      43.388 -14.386   3.168  1.00  0.00     0.169 HD
HETATM   11  O   UNL     1      40.927 -15.050   1.259  1.00  0.00    -0.273 OA
BRANCH   9  12
HETATM   12  C   UNL     1      43.163 -16.371   2.686  1.00  0.00     0.034 A 
HETATM   13  C   UNL     1      43.829 -17.072   1.682  1.00  0.00     0.032 A 
HETATM   14  C   UNL     1      44.231 -18.401   1.883  1.00  0.00     0.032 A 
HETATM   15  C   UNL     1      43.975 -19.049   3.089  1.00  0.00     0.034 A 
HETATM   16  C   UNL     1      43.278 -18.357   4.085  1.00  0.00     0.032 A 
HETATM   17  C   UNL     1      42.876 -17.030   3.886  1.00  0.00     0.032 A 
BRANCH  15  18
HETATM   18  N   UNL     1      44.396 -20.363   3.389  1.00  0.00    -0.328 N 
HETATM   19  C   UNL     1      44.093 -21.520   2.696  1.00  0.00     0.218 C 
HETATM   20  C   UNL     1      44.783 -22.740   3.259  1.00  0.00     0.117 C 
HETATM   21  O   UNL     1      43.373 -21.622   1.709  1.00  0.00    -0.274 OA
HETATM   22  H   UNL     1      45.019 -20.452   4.181  1.00  0.00     0.169 HD
ENDBRANCH  15  18
ENDBRANCH   9  12
ENDBRANCH   1   8
BRANCH   2  23
HETATM   23  C   UNL     1      42.023 -11.137  -0.190  1.00  0.00    -0.001 A 
HETATM   24  C   UNL     1      42.904 -11.157  -1.296  1.00  0.00     0.076 A 
HETATM   25  C   UNL     1      43.575  -9.990  -1.678  1.00  0.00     0.037 A 
HETATM   26  C   UNL     1      43.377  -8.798  -0.981  1.00  0.00     0.003 A 
HETATM   27  C   UNL     1      42.501  -8.761   0.095  1.00  0.00     0.001 A 
HETATM   28  C   UNL     1      41.828  -9.919   0.488  1.00  0.00     0.012 A 
BRANCH  24  29
HETATM   29  O   UNL     1      43.043 -12.367  -1.926  1.00  0.00    -0.355 OA
HETATM   30  C   UNL     1      42.393 -12.529  -3.182  1.00  0.00     0.210 C 
ENDBRANCH  24  29
ENDBRANCH   2  23
BRANCH   3  31
HETATM   31  C   UNL     1      39.117 -12.587  -0.904  1.00  0.00     0.038 A 
HETATM   32  C   UNL     1      38.812 -11.537  -1.782  1.00  0.00     0.032 A 
HETATM   33  C   UNL     1      38.034 -11.744  -2.930  1.00  0.00     0.039 A 
HETATM   34  C   UNL     1      37.527 -13.004  -3.233  1.00  0.00     0.068 A 
HETATM   35  C   UNL     1      37.821 -14.061  -2.381  1.00  0.00     0.039 A 
HETATM   36  C   UNL     1      38.602 -13.852  -1.231  1.00  0.00     0.032 A 
BRANCH  34  37
HETATM   37  O   UNL     1      36.774 -13.068  -4.370  1.00  0.00    -0.356 OA
HETATM   38  C   UNL     1      36.052 -14.272  -4.596  1.00  0.00     0.210 C 
ENDBRANCH  34  37
ENDBRANCH   3  31
TORSDOF 7
ENDMDL
MODEL 3
REMARK VINA RESULT:      -8.0      3.011      6.559
REMARK  7 active torsions:
REMARK  status: ('A' for Active; 'I' for Inactive)
REMARK       I    between atoms: C_2  and  N_3 
REMARK    1  A    between atoms: N_3  and  C_4 
REMARK    2  A    between atoms: C_7  and  N_8 
REMARK       I    between atoms: N_8  and  C_9 
REMARK    3  A    between atoms: C_9  and  C_10 
REMARK    4  A    between atoms: C_11  and  C_12 
REMARK    5  A    between atoms: C_13  and  O_14 
REMARK    6  A    between atoms: N_20  and  C_21 
REMARK    7  A    between atoms: C_24  and  O_25 
ROOT
HETATM    1  C   UNL     1      39.862 -11.294   0.775  1.00  0.00     0.106 C 
HETATM    2  C   UNL     1      40.460 -12.705   0.668  1.00  0.00     0.142 C 
HETATM    3  N   UNL     1      39.578 -13.758   1.246  1.00  0.00    -0.308 N 
HETATM    4  C   UNL     1      38.187 -13.702   1.054  1.00  0.00     0.225 C 
HETATM    5  O   UNL     1      37.432 -14.672   1.109  1.00  0.00    -0.273 OA
HETATM    6  C   UNL     1      37.565 -12.326   0.892  1.00  0.00     0.104 C 
HETATM    7  C   UNL     1      38.432 -11.261   0.258  1.00  0.00     0.026 C 
ENDROOT
BRANCH   1   8
HETATM    8  C   UNL     1      39.956 -10.680   2.178  1.00  0.00     0.228 C 
HETATM    9  N   UNL     1      41.116 -10.966   2.872  1.00  0.00    -0.327 N 
HETATM   10  H   UNL     1      41.909 -11.305   2.340  1.00  0.00     0.169 HD
HETATM   11  O   UNL     1      38.987 -10.075   2.632  1.00  0.00    -0.273 OA
BRANCH   9  12
HETATM   12  C   UNL     1      41.330 -10.869   4.263  1.00  0.00     0.034 A 
HETATM   13  C   UNL     1      41.308  -9.672   4.976  1.00  0.00     0.032 A 
HETATM   14  C   UNL     1      41.423  -9.670   6.375  1.00  0.00     0.032 A 
HETATM   15  C   UNL     1      41.562 -10.863   7.081  1.00  0.00     0.034 A 
HETATM   16  C   UNL     1      41.617 -12.062   6.362  1.00  0.00     0.032 A 
HETATM   17  C   UNL     1      41.501 -12.066   4.966  1.00  0.00     0.032 A 
BRANCH  15  18
HETATM   18  N   UNL     1      41.627 -10.949   8.488  1.00  0.00    -0.328 N 
HETATM   19  C   UNL     1      42.753 -10.858   9.284  1.00  0.00     0.218 C 
HETATM   20  C   UNL     1      42.437 -10.915  10.759  1.00  0.00     0.117 C 
HETATM   21  O   UNL     1      43.912 -10.717   8.909  1.00  0.00    -0.274 OA
HETATM   22  H   UNL     1      40.738 -11.053   8.961  1.00  0.00     0.169 HD
ENDBRANCH  15  18
ENDBRANCH   9  12
ENDBRANCH   1   8
BRANCH   2  23
HETATM   23  C   UNL     1      40.887 -12.997  -0.782  1.00  0.00    -0.001 A 
HETATM   24  C   UNL     1      42.091 -12.451  -1.281  1.00  0.00     0.076 A 
HETATM   25  C   UNL     1      42.452 -12.654  -2.618  1.00  0.00     0.037 A 
HETATM   26  C   UNL     1      41.636 -13.402  -3.466  1.00  0.00     0.003 A 
HETATM   27  C   UNL     1      40.459 -13.959  -2.984  1.00  0.00     0.001 A 
HETATM   28  C   UNL     1      40.087 -13.760  -1.653  1.00  0.00     0.012 A 
BRANCH  24  29
HETATM   29  O   UNL     1      42.837 -11.731  -0.383  1.00  0.00    -0.355 OA
HETATM   30  C   UNL     1      43.194 -10.402  -0.745  1.00  0.00     0.210 C 
ENDBRANCH  24  29
ENDBRANCH   2  23
BRANCH   3  31
HETATM   31  C   UNL     1      40.202 -14.929   1.837  1.00  0.00     0.038 A 
HETATM   32  C   UNL     1      40.393 -15.027   3.223  1.00  0.00     0.032 A 
HETATM   33  C   UNL     1      41.058 -16.120   3.796  1.00  0.00     0.039 A 
HETATM   34  C   UNL     1      41.562 -17.147   3.003  1.00  0.00     0.068 A 
HETATM   35  C   UNL     1      41.380 -17.074   1.627  1.00  0.00     0.039 A 
HETATM   36  C   UNL     1      40.712 -15.978   1.055  1.00  0.00     0.032 A 
BRANCH  34  37
HETATM   37  O   UNL     1      42.200 -18.144   3.682  1.00  0.00    -0.356 OA
HETATM   38  C   UNL     1      42.225 -18.044   5.100  1.00  0.00     0.210 C 
ENDBRANCH  34  37
ENDBRANCH   3  31
TORSDOF 7
ENDMDL
MODEL 4
REMARK VINA RESULT:      -7.7      2.060      5.258
REMARK  7 active torsions:
REMARK  status: ('A' for Active; 'I' for Inactive)
REMARK       I    between atoms: C_2  and  N_3 
REMARK    1  A    between atoms: N_3  and  C_4 
REMARK    2  A    between atoms: C_7  and  N_8 
REMARK       I    between atoms: N_8  and  C_9 
REMARK    3  A    between atoms: C_9  and  C_10 
REMARK    4  A    between atoms: C_11  and  C_12 
REMARK    5  A    between atoms: C_13  and  O_14 
REMARK    6  A    between atoms: N_20  and  C_21 
REMARK    7  A    between atoms: C_24  and  O_25 
ROOT
HETATM    1  C   UNL     1      40.318 -13.846  -1.404  1.00  0.00     0.106 C 
HETATM    2  C   UNL     1      40.121 -12.992  -0.142  1.00  0.00     0.142 C 
HETATM    3  N   UNL     1      41.395 -12.416   0.376  1.00  0.00    -0.308 N 
HETATM    4  C   UNL     1      42.364 -11.923  -0.513  1.00  0.00     0.225 C 
HETATM    5  O   UNL     1      43.219 -11.085  -0.225  1.00  0.00    -0.273 OA
HETATM    6  C   UNL     1      42.434 -12.564  -1.888  1.00  0.00     0.104 C 
HETATM    7  C   UNL     1      41.137 -13.105  -2.449  1.00  0.00     0.026 C 
ENDROOT
BRANCH   1   8
HETATM    8  C   UNL     1      40.901 -15.239  -1.131  1.00  0.00     0.228 C 
HETATM    9  N   UNL     1      41.032 -15.574   0.203  1.00  0.00    -0.327 N 
HETATM   10  H   UNL     1      40.506 -15.030   0.877  1.00  0.00     0.169 HD
HETATM   11  O   UNL     1      41.299 -15.917  -2.077  1.00  0.00    -0.273 OA
BRANCH   9  12
HETATM   12  C   UNL     1      41.848 -16.582   0.758  1.00  0.00     0.034 A 
HETATM   13  C   UNL     1      43.233 -16.490   0.880  1.00  0.00     0.032 A 
HETATM   14  C   UNL     1      43.962 -17.491   1.540  1.00  0.00     0.032 A 
HETATM   15  C   UNL     1      43.317 -18.598   2.088  1.00  0.00     0.034 A 
HETATM   16  C   UNL     1      41.931 -18.707   1.937  1.00  0.00     0.032 A 
HETATM   17  C   UNL     1      41.202 -17.708   1.279  1.00  0.00     0.032 A 
BRANCH  15  18
HETATM   18  N   UNL     1      43.971 -19.616   2.815  1.00  0.00    -0.328 N 
HETATM   19  C   UNL     1      44.395 -19.570   4.130  1.00  0.00     0.218 C 
HETATM   20  C   UNL     1      44.989 -20.875   4.603  1.00  0.00     0.117 C 
HETATM   21  O   UNL     1      44.309 -18.620   4.900  1.00  0.00    -0.274 OA
HETATM   22  H   UNL     1      44.109 -20.487   2.319  1.00  0.00     0.169 HD
ENDBRANCH  15  18
ENDBRANCH   9  12
ENDBRANCH   1   8
BRANCH   2  23
HETATM   23  C   UNL     1      39.027 -11.935  -0.376  1.00  0.00    -0.001 A 
HETATM   24  C   UNL     1      37.812 -12.015   0.343  1.00  0.00     0.076 A 
HETATM   25  C   UNL     1      36.785 -11.099   0.087  1.00  0.00     0.037 A 
HETATM   26  C   UNL     1      36.951 -10.097  -0.869  1.00  0.00     0.003 A 
HETATM   27  C   UNL     1      38.146  -9.998  -1.569  1.00  0.00     0.001 A 
HETATM   28  C   UNL     1      39.176 -10.907  -1.325  1.00  0.00     0.012 A 
BRANCH  24  29
HETATM   29  O   UNL     1      37.730 -13.027   1.265  1.00  0.00    -0.355 OA
HETATM   30  C   UNL     1      37.229 -14.281   0.818  1.00  0.00     0.210 C 
ENDBRANCH  24  29
ENDBRANCH   2  23
BRANCH   3  31
HETATM   31  C   UNL     1      41.520 -12.205   1.808  1.00  0.00     0.038 A 
HETATM   32  C   UNL     1      42.288 -13.068   2.603  1.00  0.00     0.032 A 
HETATM   33  C   UNL     1      42.358 -12.914   3.995  1.00  0.00     0.039 A 
HETATM   34  C   UNL     1      41.656 -11.899   4.639  1.00  0.00     0.068 A 
HETATM   35  C   UNL     1      40.893 -11.028   3.871  1.00  0.00     0.039 A 
HETATM   36  C   UNL     1      40.825 -11.184   2.476  1.00  0.00     0.032 A 
BRANCH  34  37
HETATM   37  O   UNL     1      41.797 -11.868   5.997  1.00  0.00    -0.356 OA
HETATM   38  C   UNL     1      41.467 -10.648   6.649  1.00  0.00     0.210 C 
ENDBRANCH  34  37
ENDBRANCH   3  31
TORSDOF 7
ENDMDL
MODEL 5
REMARK VINA RESULT:      -7.4      2.672      5.376
REMARK  7 active torsions:
REMARK  status: ('A' for Active; 'I' for Inactive)
REMARK       I    between atoms: C_2  and  N_3 
REMARK    1  A    between atoms: N_3  and  C_4 
REMARK    2  A    between atoms: C_7  and  N_8 
REMARK       I    between atoms: N_8  and  C_9 
REMARK    3  A    between atoms: C_9  and  C_10 
REMARK    4  A    between atoms: C_11  and  C_12 
REMARK    5  A    between atoms: C_13  and  O_14 
REMARK    6  A    between atoms: N_20  and  C_21 
REMARK    7  A    between atoms: C_24  and  O_25 
ROOT
HETATM    1  C   UNL     1      40.128 -14.448  -1.192  1.00  0.00     0.106 C 
HETATM    2  C   UNL     1      40.081 -12.916  -1.308  1.00  0.00     0.142 C 
HETATM    3  N   UNL     1      41.210 -12.356  -2.104  1.00  0.00    -0.308 N 
HETATM    4  C   UNL     1      41.654 -13.012  -3.264  1.00  0.00     0.225 C 
HETATM    5  O   UNL     1      42.255 -12.469  -4.191  1.00  0.00    -0.273 OA
HETATM    6  C   UNL     1      41.488 -14.521  -3.315  1.00  0.00     0.104 C 
HETATM    7  C   UNL     1      40.314 -15.098  -2.555  1.00  0.00     0.026 C 
ENDROOT
BRANCH   1   8
HETATM    8  C   UNL     1      41.165 -14.966  -0.187  1.00  0.00     0.228 C 
HETATM    9  N   UNL     1      41.241 -16.341  -0.073  1.00  0.00    -0.327 N 
HETATM   10  H   UNL     1      40.835 -16.897  -0.816  1.00  0.00     0.169 HD
HETATM   11  O   UNL     1      41.778 -14.160   0.509  1.00  0.00    -0.273 OA
BRANCH   9  12
HETATM   12  C   UNL     1      41.801 -17.084   0.988  1.00  0.00     0.034 A 
HETATM   13  C   UNL     1      43.055 -17.689   0.943  1.00  0.00     0.032 A 
HETATM   14  C   UNL     1      43.587 -18.320   2.079  1.00  0.00     0.032 A 
HETATM   15  C   UNL     1      42.873 -18.355   3.275  1.00  0.00     0.034 A 
HETATM   16  C   UNL     1      41.601 -17.776   3.311  1.00  0.00     0.032 A 
HETATM   17  C   UNL     1      41.069 -17.145   2.178  1.00  0.00     0.032 A 
BRANCH  15  18
HETATM   18  N   UNL     1      43.362 -18.918   4.473  1.00  0.00    -0.328 N 
HETATM   19  C   UNL     1      43.867 -18.249   5.572  1.00  0.00     0.218 C 
HETATM   20  C   UNL     1      44.225 -19.173   6.710  1.00  0.00     0.117 C 
HETATM   21  O   UNL     1      44.012 -17.038   5.695  1.00  0.00    -0.274 OA
HETATM   22  H   UNL     1      43.299 -19.926   4.539  1.00  0.00     0.169 HD
ENDBRANCH  15  18
ENDBRANCH   9  12
ENDBRANCH   1   8
BRANCH   2  23
HETATM   23  C   UNL     1      38.698 -12.460  -1.810  1.00  0.00    -0.001 A 
HETATM   24  C   UNL     1      37.879 -11.664  -0.977  1.00  0.00     0.076 A 
HETATM   25  C   UNL     1      36.594 -11.303  -1.397  1.00  0.00     0.037 A 
HETATM   26  C   UNL     1      36.113 -11.715  -2.640  1.00  0.00     0.003 A 
HETATM   27  C   UNL     1      36.914 -12.482  -3.475  1.00  0.00     0.001 A 
HETATM   28  C   UNL     1      38.196 -12.851  -3.066  1.00  0.00     0.012 A 
BRANCH  24  29
HETATM   29  O   UNL     1      38.426 -11.301   0.227  1.00  0.00    -0.355 OA
HETATM   30  C   UNL     1      38.465  -9.913   0.536  1.00  0.00     0.210 C 
ENDBRANCH  24  29
ENDBRANCH   2  23
BRANCH   3  31
HETATM   31  C   UNL     1      41.702 -11.034  -1.761  1.00  0.00     0.038 A 
HETATM   32  C   UNL     1      42.830 -10.869  -0.944  1.00  0.00     0.032 A 
HETATM   33  C   UNL     1      43.270  -9.597  -0.549  1.00  0.00     0.039 A 
HETATM   34  C   UNL     1      42.593  -8.450  -0.949  1.00  0.00     0.068 A 
HETATM   35  C   UNL     1      41.475  -8.587  -1.764  1.00  0.00     0.039 A 
HETATM   36  C   UNL     1      41.036  -9.863  -2.159  1.00  0.00     0.032 A 
BRANCH  34  37
HETATM   37  O   UNL     1      43.115  -7.277  -0.485  1.00  0.00    -0.356 OA
HETATM   38  C   UNL     1      44.432  -7.325   0.048  1.00  0.00     0.210 C 
ENDBRANCH  34  37
ENDBRANCH   3  31
TORSDOF 7
ENDMDL
MODEL 6
REMARK VINA RESULT:      -7.3      2.146      4.175
REMARK  7 active torsions:
REMARK  status: ('A' for Active; 'I' for Inactive)
REMARK       I    between atoms: C_2  and  N_3 
REMARK    1  A    between atoms: N_3  and  C_4 
REMARK    2  A    between atoms: C_7  and  N_8 
REMARK       I    between atoms: N_8  and  C_9 
REMARK    3  A    between atoms: C_9  and  C_10 
REMARK    4  A    between atoms: C_11  and  C_12 
REMARK    5  A    between atoms: C_13  and  O_14 
REMARK    6  A    between atoms: N_20  and  C_21 
REMARK    7  A    between atoms: C_24  and  O_25 
ROOT
HETATM    1  C   UNL     1      40.576 -13.681   2.841  1.00  0.00     0.106 C 
HETATM    2  C   UNL     1      40.861 -12.247   2.366  1.00  0.00     0.142 C 
HETATM    3  N   UNL     1      40.884 -12.118   0.882  1.00  0.00    -0.308 N 
HETATM    4  C   UNL     1      39.953 -12.815   0.094  1.00  0.00     0.225 C 
HETATM    5  O   UNL     1      39.609 -12.486  -1.041  1.00  0.00    -0.273 OA
HETATM    6  C   UNL     1      39.433 -14.133   0.639  1.00  0.00     0.104 C 
HETATM    7  C   UNL     1      39.353 -14.258   2.144  1.00  0.00     0.026 C 
ENDROOT
BRANCH   1   8
HETATM    8  C   UNL     1      41.778 -14.628   2.722  1.00  0.00     0.228 C 
HETATM    9  N   UNL     1      41.489 -15.970   2.875  1.00  0.00    -0.327 N 
HETATM   10  H   UNL     1      40.522 -16.256   2.779  1.00  0.00     0.169 HD
HETATM   11  O   UNL     1      42.905 -14.152   2.604  1.00  0.00    -0.273 OA
BRANCH   9  12
HETATM   12  C   UNL     1      42.390 -17.012   3.183  1.00  0.00     0.034 A 
HETATM   13  C   UNL     1      43.193 -17.040   4.321  1.00  0.00     0.032 A 
HETATM   14  C   UNL     1      43.985 -18.162   4.610  1.00  0.00     0.032 A 
HETATM   15  C   UNL     1      43.985 -19.272   3.768  1.00  0.00     0.034 A 
HETATM   16  C   UNL     1      43.203 -19.230   2.609  1.00  0.00     0.032 A 
HETATM   17  C   UNL     1      42.412 -18.111   2.319  1.00  0.00     0.032 A 
BRANCH  15  18
HETATM   18  N   UNL     1      44.708 -20.457   4.019  1.00  0.00    -0.328 N 
HETATM   19  C   UNL     1      44.671 -21.238   5.159  1.00  0.00     0.218 C 
HETATM   20  C   UNL     1      45.519 -22.482   5.047  1.00  0.00     0.117 C 
HETATM   21  O   UNL     1      44.025 -21.025   6.178  1.00  0.00    -0.274 OA
HETATM   22  H   UNL     1      45.290 -20.784   3.258  1.00  0.00     0.169 HD
ENDBRANCH  15  18
ENDBRANCH   9  12
ENDBRANCH   1   8
BRANCH   2  23
HETATM   23  C   UNL     1      39.899 -11.257   3.048  1.00  0.00    -0.001 A 
HETATM   24  C   UNL     1      40.247 -10.688   4.294  1.00  0.00     0.076 A 
HETATM   25  C   UNL     1      39.349  -9.841   4.954  1.00  0.00     0.037 A 
HETATM   26  C   UNL     1      38.110  -9.543   4.387  1.00  0.00     0.003 A 
HETATM   27  C   UNL     1      37.763 -10.082   3.155  1.00  0.00     0.001 A 
HETATM   28  C   UNL     1      38.649 -10.930   2.489  1.00  0.00     0.012 A 
BRANCH  24  29
HETATM   29  O   UNL     1      41.483 -11.030   4.782  1.00  0.00    -0.355 OA
HETATM   30  C   UNL     1      41.529 -11.705   6.033  1.00  0.00     0.210 C 
ENDBRANCH  24  29
ENDBRANCH   2  23
BRANCH   3  31
HETATM   31  C   UNL     1      41.757 -11.116   0.294  1.00  0.00     0.038 A 
HETATM   32  C   UNL     1      41.645  -9.762   0.641  1.00  0.00     0.032 A 
HETATM   33  C   UNL     1      42.434  -8.780   0.028  1.00  0.00     0.039 A 
HETATM   34  C   UNL     1      43.355  -9.116  -0.960  1.00  0.00     0.068 A 
HETATM   35  C   UNL     1      43.489 -10.452  -1.317  1.00  0.00     0.039 A 
HETATM   36  C   UNL     1      42.697 -11.436  -0.700  1.00  0.00     0.032 A 
BRANCH  34  37
HETATM   37  O   UNL     1      44.050  -8.065  -1.487  1.00  0.00    -0.356 OA
HETATM   38  C   UNL     1      43.381  -7.276  -2.462  1.00  0.00     0.210 C 
ENDBRANCH  34  37
ENDBRANCH   3  31
TORSDOF 7
ENDMDL
MODEL 7
REMARK VINA RESULT:      -7.3      3.872      7.714
REMARK  7 active torsions:
REMARK  status: ('A' for Active; 'I' for Inactive)
REMARK       I    between atoms: C_2  and  N_3 
REMARK    1  A    between atoms: N_3  and  C_4 
REMARK    2  A    between atoms: C_7  and  N_8 
REMARK       I    between atoms: N_8  and  C_9 
REMARK    3  A    between atoms: C_9  and  C_10 
REMARK    4  A    between atoms: C_11  and  C_12 
REMARK    5  A    between atoms: C_13  and  O_14 
REMARK    6  A    between atoms: N_20  and  C_21 
REMARK    7  A    between atoms: C_24  and  O_25 
ROOT
HETATM    1  C   UNL     1      42.104 -15.148   4.617  1.00  0.00     0.106 C 
HETATM    2  C   UNL     1      41.523 -15.500   3.238  1.00  0.00     0.142 C 
HETATM    3  N   UNL     1      41.442 -14.326   2.323  1.00  0.00    -0.308 N 
HETATM    4  C   UNL     1      42.479 -13.379   2.290  1.00  0.00     0.225 C 
HETATM    5  O   UNL     1      42.724 -12.640   1.337  1.00  0.00    -0.273 OA
HETATM    6  C   UNL     1      43.269 -13.171   3.571  1.00  0.00     0.104 C 
HETATM    7  C   UNL     1      43.405 -14.370   4.483  1.00  0.00     0.026 C 
ENDROOT
BRANCH   1   8
HETATM    8  C   UNL     1      41.120 -14.423   5.544  1.00  0.00     0.228 C 
HETATM    9  N   UNL     1      41.288 -13.055   5.630  1.00  0.00    -0.327 N 
HETATM   10  H   UNL     1      41.832 -12.602   4.905  1.00  0.00     0.169 HD
HETATM   11  O   UNL     1      40.330 -15.086   6.213  1.00  0.00    -0.273 OA
BRANCH   9  12
HETATM   12  C   UNL     1      40.809 -12.194   6.640  1.00  0.00     0.034 A 
HETATM   13  C   UNL     1      39.533 -12.272   7.194  1.00  0.00     0.032 A 
HETATM   14  C   UNL     1      39.168 -11.447   8.270  1.00  0.00     0.032 A 
HETATM   15  C   UNL     1      40.073 -10.535   8.808  1.00  0.00     0.034 A 
HETATM   16  C   UNL     1      41.343 -10.435   8.231  1.00  0.00     0.032 A 
HETATM   17  C   UNL     1      41.708 -11.257   7.158  1.00  0.00     0.032 A 
BRANCH  15  18
HETATM   18  N   UNL     1      39.801  -9.714   9.924  1.00  0.00    -0.328 N 
HETATM   19  C   UNL     1      39.861 -10.065  11.259  1.00  0.00     0.218 C 
HETATM   20  C   UNL     1      39.582  -8.905  12.185  1.00  0.00     0.117 C 
HETATM   21  O   UNL     1      40.131 -11.168  11.721  1.00  0.00    -0.274 OA
HETATM   22  H   UNL     1      39.572  -8.751   9.712  1.00  0.00     0.169 HD
ENDBRANCH  15  18
ENDBRANCH   9  12
ENDBRANCH   1   8
BRANCH   2  23
HETATM   23  C   UNL     1      42.276 -16.696   2.629  1.00  0.00    -0.001 A 
HETATM   24  C   UNL     1      42.321 -17.924   3.326  1.00  0.00     0.076 A 
HETATM   25  C   UNL     1      43.062 -18.995   2.813  1.00  0.00     0.037 A 
HETATM   26  C   UNL     1      43.752 -18.866   1.608  1.00  0.00     0.003 A 
HETATM   27  C   UNL     1      43.702 -17.670   0.904  1.00  0.00     0.001 A 
HETATM   28  C   UNL     1      42.970 -16.594   1.408  1.00  0.00     0.012 A 
BRANCH  24  29
HETATM   29  O   UNL     1      41.615 -17.969   4.501  1.00  0.00    -0.355 OA
HETATM   30  C   UNL     1      42.303 -18.419   5.663  1.00  0.00     0.210 C 
ENDBRANCH  24  29
ENDBRANCH   2  23
BRANCH   3  31
HETATM   31  C   UNL     1      40.371 -14.293   1.343  1.00  0.00     0.038 A 
HETATM   32  C   UNL     1      40.644 -14.337  -0.032  1.00  0.00     0.032 A 
HETATM   33  C   UNL     1      39.622 -14.235  -0.987  1.00  0.00     0.039 A 
HETATM   34  C   UNL     1      38.295 -14.076  -0.600  1.00  0.00     0.068 A 
HETATM   35  C   UNL     1      37.998 -14.037   0.757  1.00  0.00     0.039 A 
HETATM   36  C   UNL     1      39.024 -14.140   1.713  1.00  0.00     0.032 A 
BRANCH  34  37
HETATM   37  O   UNL     1      37.400 -13.975  -1.625  1.00  0.00    -0.356 OA
HETATM   38  C   UNL     1      37.879 -14.273  -2.930  1.00  0.00     0.210 C 
ENDBRANCH  34  37
ENDBRANCH   3  31
TORSDOF 7
ENDMDL
MODEL 8
REMARK VINA RESULT:      -7.3      3.183      9.071
REMARK  7 active torsions:
REMARK  status: ('A' for Active; 'I' for Inactive)
REMARK       I    between atoms: C_2  and  N_3 
REMARK    1  A    between atoms: N_3  and  C_4 
REMARK    2  A    between atoms: C_7  and  N_8 
REMARK       I    between atoms: N_8  and  C_9 
REMARK    3  A    between atoms: C_9  and  C_10 
REMARK    4  A    between atoms: C_11  and  C_12 
REMARK    5  A    between atoms: C_13  and  O_14 
REMARK    6  A    between atoms: N_20  and  C_21 
REMARK    7  A    between atoms: C_24  and  O_25 
ROOT
HETATM    1  C   UNL     1      41.906 -15.121   2.530  1.00  0.00     0.106 C 
HETATM    2  C   UNL     1      42.725 -15.190   3.829  1.00  0.00     0.142 C 
HETATM    3  N   UNL     1      42.118 -14.407   4.943  1.00  0.00    -0.308 N 
HETATM    4  C   UNL     1      40.727 -14.407   5.134  1.00  0.00     0.225 C 
HETATM    5  O   UNL     1      40.166 -14.165   6.203  1.00  0.00    -0.273 OA
HETATM    6  C   UNL     1      39.857 -14.596   3.904  1.00  0.00     0.104 C 
HETATM    7  C   UNL     1      40.439 -15.434   2.787  1.00  0.00     0.026 C 
ENDROOT
BRANCH   1   8
HETATM    8  C   UNL     1      42.063 -13.802   1.762  1.00  0.00     0.228 C 
HETATM    9  N   UNL     1      41.313 -13.699   0.606  1.00  0.00    -0.327 N 
HETATM   10  H   UNL     1      40.537 -14.340   0.491  1.00  0.00     0.169 HD
HETATM   11  O   UNL     1      42.893 -12.981   2.147  1.00  0.00    -0.273 OA
BRANCH   9  12
HETATM   12  C   UNL     1      41.514 -12.809  -0.470  1.00  0.00     0.034 A 
HETATM   13  C   UNL     1      41.096 -11.480  -0.475  1.00  0.00     0.032 A 
HETATM   14  C   UNL     1      41.428 -10.629  -1.541  1.00  0.00     0.032 A 
HETATM   15  C   UNL     1      42.183 -11.093  -2.615  1.00  0.00     0.034 A 
HETATM   16  C   UNL     1      42.575 -12.436  -2.625  1.00  0.00     0.032 A 
HETATM   17  C   UNL     1      42.245 -13.286  -1.563  1.00  0.00     0.032 A 
BRANCH  15  18
HETATM   18  N   UNL     1      42.605 -10.288  -3.694  1.00  0.00    -0.328 N 
HETATM   19  C   UNL     1      41.930 -10.045  -4.876  1.00  0.00     0.218 C 
HETATM   20  C   UNL     1      42.649  -9.066  -5.774  1.00  0.00     0.117 C 
HETATM   21  O   UNL     1      40.850 -10.513  -5.218  1.00  0.00    -0.274 OA
HETATM   22  H   UNL     1      43.488  -9.810  -3.564  1.00  0.00     0.169 HD
ENDBRANCH  15  18
ENDBRANCH   9  12
ENDBRANCH   1   8
BRANCH   2  23
HETATM   23  C   UNL     1      43.014 -16.655   4.202  1.00  0.00    -0.001 A 
HETATM   24  C   UNL     1      43.735 -17.477   3.306  1.00  0.00     0.076 A 
HETATM   25  C   UNL     1      43.942 -18.828   3.606  1.00  0.00     0.037 A 
HETATM   26  C   UNL     1      43.451 -19.375   4.791  1.00  0.00     0.003 A 
HETATM   27  C   UNL     1      42.756 -18.573   5.689  1.00  0.00     0.001 A 
HETATM   28  C   UNL     1      42.540 -17.226   5.399  1.00  0.00     0.012 A 
BRANCH  24  29
HETATM   29  O   UNL     1      44.185 -16.864   2.165  1.00  0.00    -0.355 OA
HETATM   30  C   UNL     1      43.880 -17.487   0.922  1.00  0.00     0.210 C 
ENDBRANCH  24  29
ENDBRANCH   2  23
BRANCH   3  31
HETATM   31  C   UNL     1      43.006 -13.812   5.926  1.00  0.00     0.038 A 
HETATM   32  C   UNL     1      44.226 -14.417   6.262  1.00  0.00     0.032 A 
HETATM   33  C   UNL     1      45.057 -13.888   7.260  1.00  0.00     0.039 A 
HETATM   34  C   UNL     1      44.693 -12.742   7.961  1.00  0.00     0.068 A 
HETATM   35  C   UNL     1      43.491 -12.121   7.641  1.00  0.00     0.039 A 
HETATM   36  C   UNL     1      42.660 -12.653   6.640  1.00  0.00     0.032 A 
BRANCH  34  37
HETATM   37  O   UNL     1      45.581 -12.339   8.916  1.00  0.00    -0.356 OA
HETATM   38  C   UNL     1      45.226 -11.198   9.685  1.00  0.00     0.210 C 
ENDBRANCH  34  37
ENDBRANCH   3  31
TORSDOF 7
ENDMDL
MODEL 9
REMARK VINA RESULT:      -7.2      2.225      5.109
REMARK  7 active torsions:
REMARK  status: ('A' for Active; 'I' for Inactive)
REMARK       I    between atoms: C_2  and  N_3 
REMARK    1  A    between atoms: N_3  and  C_4 
REMARK    2  A    between atoms: C_7  and  N_8 
REMARK       I    between atoms: N_8  and  C_9 
REMARK    3  A    between atoms: C_9  and  C_10 
REMARK    4  A    between atoms: C_11  and  C_12 
REMARK    5  A    between atoms: C_13  and  O_14 
REMARK    6  A    between atoms: N_20  and  C_21 
REMARK    7  A    between atoms: C_24  and  O_25 
ROOT
HETATM    1  C   UNL     1      40.510 -13.988  -1.928  1.00  0.00     0.106 C 
HETATM    2  C   UNL     1      39.722 -13.199  -0.870  1.00  0.00     0.142 C 
HETATM    3  N   UNL     1      40.597 -12.570   0.160  1.00  0.00    -0.308 N 
HETATM    4  C   UNL     1      41.820 -11.984  -0.210  1.00  0.00     0.225 C 
HETATM    5  O   UNL     1      42.401 -11.110   0.433  1.00  0.00    -0.273 OA
HETATM    6  C   UNL     1      42.528 -12.564  -1.422  1.00  0.00     0.104 C 
HETATM    7  C   UNL     1      41.648 -13.157  -2.500  1.00  0.00     0.026 C 
ENDROOT
BRANCH   1   8
HETATM    8  C   UNL     1      41.013 -15.354  -1.442  1.00  0.00     0.228 C 
HETATM    9  N   UNL     1      40.897 -15.577  -0.083  1.00  0.00    -0.327 N 
HETATM   10  H   UNL     1      40.266 -14.980   0.438  1.00  0.00     0.169 HD
HETATM   11  O   UNL     1      41.565 -16.107  -2.242  1.00  0.00    -0.273 OA
BRANCH   9  12
HETATM   12  C   UNL     1      41.583 -16.537   0.690  1.00  0.00     0.034 A 
HETATM   13  C   UNL     1      41.049 -17.769   1.063  1.00  0.00     0.032 A 
HETATM   14  C   UNL     1      41.835 -18.713   1.742  1.00  0.00     0.032 A 
HETATM   15  C   UNL     1      43.164 -18.441   2.057  1.00  0.00     0.034 A 
HETATM   16  C   UNL     1      43.690 -17.192   1.712  1.00  0.00     0.032 A 
HETATM   17  C   UNL     1      42.908 -16.248   1.033  1.00  0.00     0.032 A 
BRANCH  15  18
HETATM   18  N   UNL     1      44.033 -19.358   2.686  1.00  0.00    -0.328 N 
HETATM   19  C   UNL     1      44.238 -19.525   4.043  1.00  0.00     0.218 C 
HETATM   20  C   UNL     1      45.185 -20.658   4.360  1.00  0.00     0.117 C 
HETATM   21  O   UNL     1      43.724 -18.883   4.952  1.00  0.00    -0.274 OA
HETATM   22  H   UNL     1      44.531 -19.983   2.067  1.00  0.00     0.169 HD
ENDBRANCH  15  18
ENDBRANCH   9  12
ENDBRANCH   1   8
BRANCH   2  23
HETATM   23  C   UNL     1      38.767 -12.200  -1.548  1.00  0.00    -0.001 A 
HETATM   24  C   UNL     1      37.657 -12.680  -2.281  1.00  0.00     0.076 A 
HETATM   25  C   UNL     1      36.823 -11.783  -2.958  1.00  0.00     0.037 A 
HETATM   26  C   UNL     1      37.072 -10.411  -2.911  1.00  0.00     0.003 A 
HETATM   27  C   UNL     1      38.148  -9.926  -2.180  1.00  0.00     0.001 A 
HETATM   28  C   UNL     1      38.989 -10.811  -1.503  1.00  0.00     0.012 A 
BRANCH  24  29
HETATM   29  O   UNL     1      37.482 -14.040  -2.276  1.00  0.00    -0.355 OA
HETATM   30  C   UNL     1      37.334 -14.686  -3.535  1.00  0.00     0.210 C 
ENDBRANCH  24  29
ENDBRANCH   2  23
BRANCH   3  31
HETATM   31  C   UNL     1      40.070 -12.411   1.504  1.00  0.00     0.038 A 
HETATM   32  C   UNL     1      39.244 -11.327   1.835  1.00  0.00     0.032 A 
HETATM   33  C   UNL     1      38.788 -11.126   3.145  1.00  0.00     0.039 A 
HETATM   34  C   UNL     1      39.149 -11.995   4.170  1.00  0.00     0.068 A 
HETATM   35  C   UNL     1      39.962 -13.080   3.865  1.00  0.00     0.039 A 
HETATM   36  C   UNL     1      40.418 -13.280   2.550  1.00  0.00     0.032 A 
BRANCH  34  37
HETATM   37  O   UNL     1      38.651 -11.680   5.401  1.00  0.00    -0.356 OA
HETATM   38  C   UNL     1      39.350 -12.191   6.528  1.00  0.00     0.210 C 
ENDBRANCH  34  37
ENDBRANCH   3  31
TORSDOF 7
ENDMDL
MODEL 10
REMARK VINA RESULT:      -7.1      1.781      2.263
REMARK  7 active torsions:
REMARK  status: ('A' for Active; 'I' for Inactive)
REMARK       I    between atoms: C_2  and  N_3 
REMARK    1  A    between atoms: N_3  and  C_4 
REMARK    2  A    between atoms: C_7  and  N_8 
REMARK       I    between atoms: N_8  and  C_9 
REMARK    3  A    between atoms: C_9  and  C_10 
REMARK    4  A    between atoms: C_11  and  C_12 
REMARK    5  A    between atoms: C_13  and  O_14 
REMARK    6  A    between atoms: N_20  and  C_21 
REMARK    7  A    between atoms: C_24  and  O_25 
ROOT
HETATM    1  C   UNL     1      40.945 -11.048   3.517  1.00  0.00     0.106 C 
HETATM    2  C   UNL     1      40.963 -11.385   2.017  1.00  0.00     0.142 C 
HETATM    3  N   UNL     1      39.785 -12.190   1.587  1.00  0.00    -0.308 N 
HETATM    4  C   UNL     1      38.508 -11.912   2.103  1.00  0.00     0.225 C 
HETATM    5  O   UNL     1      37.449 -12.201   1.547  1.00  0.00    -0.273 OA
HETATM    6  C   UNL     1      38.439 -11.327   3.503  1.00  0.00     0.104 C 
HETATM    7  C   UNL     1      39.604 -10.463   3.933  1.00  0.00     0.026 C 
ENDROOT
BRANCH   1   8
HETATM    8  C   UNL     1      41.344 -12.218   4.425  1.00  0.00     0.228 C 
HETATM    9  N   UNL     1      42.075 -13.219   3.813  1.00  0.00    -0.327 N 
HETATM   10  H   UNL     1      42.521 -13.000   2.930  1.00  0.00     0.169 HD
HETATM   11  O   UNL     1      40.920 -12.252   5.579  1.00  0.00    -0.273 OA
BRANCH   9  12
HETATM   12  C   UNL     1      42.259 -14.543   4.262  1.00  0.00     0.034 A 
HETATM   13  C   UNL     1      41.508 -15.631   3.821  1.00  0.00     0.032 A 
HETATM   14  C   UNL     1      41.822 -16.934   4.236  1.00  0.00     0.032 A 
HETATM   15  C   UNL     1      42.892 -17.170   5.096  1.00  0.00     0.034 A 
HETATM   16  C   UNL     1      43.626 -16.075   5.565  1.00  0.00     0.032 A 
HETATM   17  C   UNL     1      43.313 -14.774   5.152  1.00  0.00     0.032 A 
BRANCH  15  18
HETATM   18  N   UNL     1      43.306 -18.453   5.513  1.00  0.00    -0.328 N 
HETATM   19  C   UNL     1      44.027 -19.381   4.784  1.00  0.00     0.218 C 
HETATM   20  C   UNL     1      44.361 -20.621   5.578  1.00  0.00     0.117 C 
HETATM   21  O   UNL     1      44.413 -19.270   3.626  1.00  0.00    -0.274 OA
HETATM   22  H   UNL     1      43.075 -18.699   6.467  1.00  0.00     0.169 HD
ENDBRANCH  15  18
ENDBRANCH   9  12
ENDBRANCH   1   8
BRANCH   2  23
HETATM   23  C   UNL     1      41.164 -10.107   1.183  1.00  0.00    -0.001 A 
HETATM   24  C   UNL     1      42.159 -10.075   0.180  1.00  0.00     0.076 A 
HETATM   25  C   UNL     1      42.395  -8.895  -0.535  1.00  0.00     0.037 A 
HETATM   26  C   UNL     1      41.649  -7.747  -0.274  1.00  0.00     0.003 A 
HETATM   27  C   UNL     1      40.656  -7.770   0.697  1.00  0.00     0.001 A 
HETATM   28  C   UNL     1      40.414  -8.939   1.419  1.00  0.00     0.012 A 
BRANCH  24  29
HETATM   29  O   UNL     1      42.847 -11.245  -0.016  1.00  0.00    -0.355 OA
HETATM   30  C   UNL     1      42.890 -11.766  -1.339  1.00  0.00     0.210 C 
ENDBRANCH  24  29
ENDBRANCH   2  23
BRANCH   3  31
HETATM   31  C   UNL     1      39.958 -13.127   0.490  1.00  0.00     0.038 A 
HETATM   32  C   UNL     1      40.804 -14.239   0.613  1.00  0.00     0.032 A 
HETATM   33  C   UNL     1      41.032 -15.109  -0.462  1.00  0.00     0.039 A 
HETATM   34  C   UNL     1      40.430 -14.893  -1.698  1.00  0.00     0.068 A 
HETATM   35  C   UNL     1      39.583 -13.801  -1.842  1.00  0.00     0.039 A 
HETATM   36  C   UNL     1      39.355 -12.930  -0.763  1.00  0.00     0.032 A 
BRANCH  34  37
HETATM   37  O   UNL     1      40.746 -15.804  -2.664  1.00  0.00    -0.356 OA
HETATM   38  C   UNL     1      39.762 -16.052  -3.661  1.00  0.00     0.210 C 
ENDBRANCH  34  37
ENDBRANCH   3  31
TORSDOF 7
ENDMDL
