MODEL 1
REMARK VINA RESULT:      -7.3      0.000      0.000
REMARK  6 active torsions:
REMARK  status: ('A' for Active; 'I' for Inactive)
REMARK    1  A    between atoms: C_2  and  O_3 
REMARK    2  A    between atoms: O_3  and  C_4 
REMARK    3  A    between atoms: C_4  and  C_5 
REMARK    4  A    between atoms: C_6  and  O_7 
REMARK    5  A    between atoms: C_12  and  O_13 
REMARK    6  A    between atoms: C_17  and  C_18 
ROOT
HETATM    1  C   UNL     1      43.690 -17.364   5.766  1.00  0.00     0.133 C 
HETATM    2  C   UNL     1      44.110 -18.065   7.094  1.00  0.00     0.073 C 
HETATM    3  C   UNL     1      43.492 -17.407   8.337  1.00  0.00     0.047 C 
HETATM    4  C   UNL     1      43.811 -19.594   7.119  1.00  0.00     0.097 C 
HETATM    5  C   UNL     1      44.135 -20.197   5.801  1.00  0.00     0.042 A 
HETATM    6  C   UNL     1      44.322 -19.539   4.604  1.00  0.00     0.030 A 
HETATM    7  C   UNL     1      44.698 -20.573   3.729  1.00  0.00     0.190 A 
HETATM    8  N   UNL     1      44.694 -21.777   4.289  1.00  0.00    -0.149 NA
HETATM    9  N   UNL     1      44.361 -21.522   5.566  1.00  0.00    -0.279 N 
HETATM   10  H   UNL     1      44.329 -22.299   6.218  1.00  0.00     0.189 HD
HETATM   11  C   UNL     1      44.242 -18.052   4.480  1.00  0.00     0.074 C 
ENDROOT
BRANCH  11  12
HETATM   12  C   UNL     1      43.506 -17.691   3.196  1.00  0.00    -0.048 A 
HETATM   13  C   UNL     1      42.455 -18.462   2.663  1.00  0.00     0.009 A 
HETATM   14  C   UNL     1      41.782 -18.062   1.505  1.00  0.00     0.024 A 
HETATM   15  C   UNL     1      42.140 -16.877   0.872  1.00  0.00     0.034 A 
HETATM   16 CL   UNL     1      41.306 -16.378  -0.546  1.00  0.00    -0.084 Cl
HETATM   17  C   UNL     1      43.167 -16.090   1.386  1.00  0.00     0.024 A 
HETATM   18  C   UNL     1      43.844 -16.494   2.541  1.00  0.00     0.009 A 
ENDBRANCH  11  12
BRANCH   1  19
HETATM   19  C   UNL     1      42.202 -17.084   5.713  1.00  0.00     0.267 C 
HETATM   20  O   UNL     1      41.365 -17.980   5.682  1.00  0.00    -0.265 OA
BRANCH  19  21
HETATM   21  O   UNL     1      41.918 -15.759   5.673  1.00  0.00    -0.321 OA
BRANCH  21  22
HETATM   22  C   UNL     1      40.580 -15.420   5.276  1.00  0.00     0.174 C 
HETATM   23  C   UNL     1      40.539 -15.055   3.804  1.00  0.00     0.034 C 
ENDBRANCH  21  22
ENDBRANCH  19  21
ENDBRANCH   1  19
BRANCH   2  24
HETATM   24  O   UNL     1      45.542 -17.910   7.231  1.00  0.00    -0.389 OA
HETATM   25  H   UNL     1      45.886 -17.458   6.441  1.00  0.00     0.210 HD
ENDBRANCH   2  24
BRANCH   7  26
HETATM   26  O   UNL     1      45.049 -20.522   2.441  1.00  0.00    -0.343 OA
HETATM   27  H   UNL     1      46.008 -20.408   2.370  1.00  0.00     0.219 HD
ENDBRANCH   7  26
TORSDOF 6
ENDMDL
MODEL 2
REMARK VINA RESULT:      -7.0      4.003      5.956
REMARK  6 active torsions:
REMARK  status: ('A' for Active; 'I' for Inactive)
REMARK    1  A    between atoms: C_2  and  O_3 
REMARK    2  A    between atoms: O_3  and  C_4 
REMARK    3  A    between atoms: C_4  and  C_5 
REMARK    4  A    between atoms: C_6  and  O_7 
REMARK    5  A    between atoms: C_12  and  O_13 
REMARK    6  A    between atoms: C_17  and  C_18 
ROOT
HETATM    1  C   UNL     1      41.676 -14.280   5.635  1.00  0.00     0.133 C 
HETATM    2  C   UNL     1      40.913 -12.934   5.830  1.00  0.00     0.073 C 
HETATM    3  C   UNL     1      41.685 -11.932   6.702  1.00  0.00     0.047 C 
HETATM    4  C   UNL     1      40.503 -12.245   4.494  1.00  0.00     0.097 C 
HETATM    5  C   UNL     1      40.023 -13.261   3.524  1.00  0.00     0.042 A 
HETATM    6  C   UNL     1      40.216 -14.626   3.579  1.00  0.00     0.030 A 
HETATM    7  C   UNL     1      39.473 -15.096   2.482  1.00  0.00     0.190 A 
HETATM    8  N   UNL     1      38.912 -14.130   1.762  1.00  0.00    -0.149 NA
HETATM    9  N   UNL     1      39.249 -13.013   2.428  1.00  0.00    -0.279 N 
HETATM   10  H   UNL     1      38.896 -12.125   2.086  1.00  0.00     0.189 HD
HETATM   11  C   UNL     1      40.952 -15.292   4.695  1.00  0.00     0.074 C 
ENDROOT
BRANCH  11  12
HETATM   12  C   UNL     1      41.845 -16.389   4.128  1.00  0.00    -0.048 A 
HETATM   13  C   UNL     1      42.579 -16.250   2.935  1.00  0.00     0.009 A 
HETATM   14  C   UNL     1      43.419 -17.271   2.482  1.00  0.00     0.024 A 
HETATM   15  C   UNL     1      43.549 -18.439   3.223  1.00  0.00     0.034 A 
HETATM   16 CL   UNL     1      44.591 -19.691   2.673  1.00  0.00    -0.084 Cl
HETATM   17  C   UNL     1      42.845 -18.596   4.414  1.00  0.00     0.024 A 
HETATM   18  C   UNL     1      41.999 -17.578   4.863  1.00  0.00     0.009 A 
ENDBRANCH  11  12
BRANCH   1  19
HETATM   19  C   UNL     1      43.135 -14.066   5.286  1.00  0.00     0.267 C 
HETATM   20  O   UNL     1      43.489 -13.391   4.326  1.00  0.00    -0.265 OA
BRANCH  19  21
HETATM   21  O   UNL     1      43.976 -14.719   6.126  1.00  0.00    -0.321 OA
BRANCH  21  22
HETATM   22  C   UNL     1      45.103 -13.959   6.592  1.00  0.00     0.174 C 
HETATM   23  C   UNL     1      44.810 -13.353   7.951  1.00  0.00     0.034 C 
ENDBRANCH  21  22
ENDBRANCH  19  21
ENDBRANCH   1  19
BRANCH   2  24
HETATM   24  O   UNL     1      39.692 -13.229   6.548  1.00  0.00    -0.389 OA
HETATM   25  H   UNL     1      38.933 -13.008   5.980  1.00  0.00     0.210 HD
ENDBRANCH   2  24
BRANCH   7  26
HETATM   26  O   UNL     1      39.255 -16.345   2.065  1.00  0.00    -0.343 OA
HETATM   27  H   UNL     1      39.603 -16.454   1.168  1.00  0.00     0.219 HD
ENDBRANCH   7  26
TORSDOF 6
ENDMDL
MODEL 3
REMARK VINA RESULT:      -6.8      1.706      1.898
REMARK  6 active torsions:
REMARK  status: ('A' for Active; 'I' for Inactive)
REMARK    1  A    between atoms: C_2  and  O_3 
REMARK    2  A    between atoms: O_3  and  C_4 
REMARK    3  A    between atoms: C_4  and  C_5 
REMARK    4  A    between atoms: C_6  and  O_7 
REMARK    5  A    between atoms: C_12  and  O_13 
REMARK    6  A    between atoms: C_17  and  C_18 
ROOT
HETATM    1  C   UNL     1      42.967 -16.427   5.638  1.00  0.00     0.133 C 
HETATM    2  C   UNL     1      43.715 -17.377   6.622  1.00  0.00     0.073 C 
HETATM    3  C   UNL     1      43.244 -17.220   8.076  1.00  0.00     0.047 C 
HETATM    4  C   UNL     1      43.646 -18.880   6.218  1.00  0.00     0.097 C 
HETATM    5  C   UNL     1      43.810 -19.021   4.749  1.00  0.00     0.042 A 
HETATM    6  C   UNL     1      43.682 -18.032   3.795  1.00  0.00     0.030 A 
HETATM    7  C   UNL     1      44.038 -18.691   2.606  1.00  0.00     0.190 A 
HETATM    8  N   UNL     1      44.306 -19.981   2.768  1.00  0.00    -0.149 NA
HETATM    9  N   UNL     1      44.176 -20.160   4.093  1.00  0.00    -0.279 N 
HETATM   10  H   UNL     1      44.373 -21.079   4.476  1.00  0.00     0.189 HD
HETATM   11  C   UNL     1      43.371 -16.613   4.143  1.00  0.00     0.074 C 
ENDROOT
BRANCH  11  12
HETATM   12  C   UNL     1      42.371 -16.054   3.137  1.00  0.00    -0.048 A 
HETATM   13  C   UNL     1      41.261 -16.780   2.664  1.00  0.00     0.009 A 
HETATM   14  C   UNL     1      40.349 -16.206   1.775  1.00  0.00     0.024 A 
HETATM   15  C   UNL     1      40.524 -14.891   1.359  1.00  0.00     0.034 A 
HETATM   16 CL   UNL     1      39.396 -14.179   0.274  1.00  0.00    -0.084 Cl
HETATM   17  C   UNL     1      41.606 -14.147   1.821  1.00  0.00     0.024 A 
HETATM   18  C   UNL     1      42.523 -14.725   2.705  1.00  0.00     0.009 A 
ENDBRANCH  11  12
BRANCH   1  19
HETATM   19  C   UNL     1      41.469 -16.430   5.866  1.00  0.00     0.267 C 
HETATM   20  O   UNL     1      40.787 -17.442   5.741  1.00  0.00    -0.265 OA
BRANCH  19  21
HETATM   21  O   UNL     1      40.985 -15.205   6.187  1.00  0.00    -0.321 OA
BRANCH  21  22
HETATM   22  C   UNL     1      39.886 -14.742   5.387  1.00  0.00     0.174 C 
HETATM   23  C   UNL     1      40.038 -13.264   5.080  1.00  0.00     0.034 C 
ENDBRANCH  21  22
ENDBRANCH  19  21
ENDBRANCH   1  19
BRANCH   2  24
HETATM   24  O   UNL     1      45.111 -16.998   6.613  1.00  0.00    -0.389 OA
HETATM   25  H   UNL     1      45.176 -16.042   6.442  1.00  0.00     0.210 HD
ENDBRANCH   2  24
BRANCH   7  26
HETATM   26  O   UNL     1      44.141 -18.218   1.361  1.00  0.00    -0.343 OA
HETATM   27  H   UNL     1      44.976 -17.738   1.263  1.00  0.00     0.219 HD
ENDBRANCH   7  26
TORSDOF 6
ENDMDL
MODEL 4
REMARK VINA RESULT:      -6.6      2.712      4.367
REMARK  6 active torsions:
REMARK  status: ('A' for Active; 'I' for Inactive)
REMARK    1  A    between atoms: C_2  and  O_3 
REMARK    2  A    between atoms: O_3  and  C_4 
REMARK    3  A    between atoms: C_4  and  C_5 
REMARK    4  A    between atoms: C_6  and  O_7 
REMARK    5  A    between atoms: C_12  and  O_13 
REMARK    6  A    between atoms: C_17  and  C_18 
ROOT
HETATM    1  C   UNL     1      42.713 -18.108   5.427  1.00  0.00     0.133 C 
HETATM    2  C   UNL     1      43.364 -18.227   6.839  1.00  0.00     0.073 C 
HETATM    3  C   UNL     1      43.876 -19.643   7.143  1.00  0.00     0.047 C 
HETATM    4  C   UNL     1      44.510 -17.200   7.090  1.00  0.00     0.097 C 
HETATM    5  C   UNL     1      44.139 -15.877   6.529  1.00  0.00     0.042 A 
HETATM    6  C   UNL     1      43.144 -15.606   5.613  1.00  0.00     0.030 A 
HETATM    7  C   UNL     1      43.171 -14.204   5.520  1.00  0.00     0.190 A 
HETATM    8  N   UNL     1      44.124 -13.637   6.252  1.00  0.00    -0.149 NA
HETATM    9  N   UNL     1      44.696 -14.680   6.875  1.00  0.00    -0.279 N 
HETATM   10  H   UNL     1      45.444 -14.494   7.536  1.00  0.00     0.189 HD
HETATM   11  C   UNL     1      42.248 -16.666   5.059  1.00  0.00     0.074 C 
ENDROOT
BRANCH  11  12
HETATM   12  C   UNL     1      42.039 -16.423   3.569  1.00  0.00    -0.048 A 
HETATM   13  C   UNL     1      43.072 -16.030   2.696  1.00  0.00     0.009 A 
HETATM   14  C   UNL     1      42.836 -15.864   1.329  1.00  0.00     0.024 A 
HETATM   15  C   UNL     1      41.568 -16.103   0.812  1.00  0.00     0.034 A 
HETATM   16 CL   UNL     1      41.279 -15.909  -0.872  1.00  0.00    -0.084 Cl
HETATM   17  C   UNL     1      40.533 -16.505   1.651  1.00  0.00     0.024 A 
HETATM   18  C   UNL     1      40.767 -16.664   3.021  1.00  0.00     0.009 A 
ENDBRANCH  11  12
BRANCH   1  19
HETATM   19  C   UNL     1      43.553 -18.768   4.352  1.00  0.00     0.267 C 
HETATM   20  O   UNL     1      44.762 -18.589   4.261  1.00  0.00    -0.265 OA
BRANCH  19  21
HETATM   21  O   UNL     1      42.817 -19.533   3.508  1.00  0.00    -0.321 OA
BRANCH  21  22
HETATM   22  C   UNL     1      43.334 -19.660   2.174  1.00  0.00     0.174 C 
HETATM   23  C   UNL     1      43.671 -21.107   1.870  1.00  0.00     0.034 C 
ENDBRANCH  21  22
ENDBRANCH  19  21
ENDBRANCH   1  19
BRANCH   2  24
HETATM   24  O   UNL     1      42.332 -17.958   7.816  1.00  0.00    -0.389 OA
HETATM   25  H   UNL     1      41.589 -17.511   7.373  1.00  0.00     0.210 HD
ENDBRANCH   2  24
BRANCH   7  26
HETATM   26  O   UNL     1      42.396 -13.375   4.816  1.00  0.00    -0.343 OA
HETATM   27  H   UNL     1      42.773 -13.250   3.933  1.00  0.00     0.219 HD
ENDBRANCH   7  26
TORSDOF 6
ENDMDL
MODEL 5
REMARK VINA RESULT:      -6.6      3.893      5.982
REMARK  6 active torsions:
REMARK  status: ('A' for Active; 'I' for Inactive)
REMARK    1  A    between atoms: C_2  and  O_3 
REMARK    2  A    between atoms: O_3  and  C_4 
REMARK    3  A    between atoms: C_4  and  C_5 
REMARK    4  A    between atoms: C_6  and  O_7 
REMARK    5  A    between atoms: C_12  and  O_13 
REMARK    6  A    between atoms: C_17  and  C_18 
ROOT
HETATM    1  C   UNL     1      41.416 -13.881   4.117  1.00  0.00     0.133 C 
HETATM    2  C   UNL     1      40.962 -12.570   3.406  1.00  0.00     0.073 C 
HETATM    3  C   UNL     1      41.329 -11.305   4.198  1.00  0.00     0.047 C 
HETATM    4  C   UNL     1      41.487 -12.433   1.946  1.00  0.00     0.097 C 
HETATM    5  C   UNL     1      41.409 -13.744   1.252  1.00  0.00     0.042 A 
HETATM    6  C   UNL     1      41.259 -14.988   1.829  1.00  0.00     0.030 A 
HETATM    7  C   UNL     1      41.145 -15.841   0.719  1.00  0.00     0.190 A 
HETATM    8  N   UNL     1      41.272 -15.221  -0.449  1.00  0.00    -0.149 NA
HETATM    9  N   UNL     1      41.417 -13.932  -0.099  1.00  0.00    -0.279 N 
HETATM   10  H   UNL     1      41.495 -13.239  -0.838  1.00  0.00     0.189 HD
HETATM   11  C   UNL     1      41.123 -15.180   3.305  1.00  0.00     0.074 C 
ENDROOT
BRANCH  11  12
HETATM   12  C   UNL     1      41.934 -16.398   3.732  1.00  0.00    -0.048 A 
HETATM   13  C   UNL     1      41.503 -17.309   4.714  1.00  0.00     0.009 A 
HETATM   14  C   UNL     1      42.264 -18.435   5.038  1.00  0.00     0.024 A 
HETATM   15  C   UNL     1      43.461 -18.675   4.372  1.00  0.00     0.034 A 
HETATM   16 CL   UNL     1      44.394 -20.066   4.761  1.00  0.00    -0.084 Cl
HETATM   17  C   UNL     1      43.904 -17.796   3.388  1.00  0.00     0.024 A 
HETATM   18  C   UNL     1      43.145 -16.665   3.069  1.00  0.00     0.009 A 
ENDBRANCH  11  12
BRANCH   1  19
HETATM   19  C   UNL     1      42.840 -13.793   4.627  1.00  0.00     0.267 C 
HETATM   20  O   UNL     1      43.790 -13.558   3.887  1.00  0.00    -0.265 OA
BRANCH  19  21
HETATM   21  O   UNL     1      42.936 -14.031   5.958  1.00  0.00    -0.321 OA
BRANCH  21  22
HETATM   22  C   UNL     1      44.243 -14.392   6.433  1.00  0.00     0.174 C 
HETATM   23  C   UNL     1      44.297 -15.870   6.768  1.00  0.00     0.034 C 
ENDBRANCH  21  22
ENDBRANCH  19  21
ENDBRANCH   1  19
BRANCH   2  24
HETATM   24  O   UNL     1      39.518 -12.592   3.338  1.00  0.00    -0.389 OA
HETATM   25  H   UNL     1      39.184 -11.686   3.459  1.00  0.00     0.210 HD
ENDBRANCH   2  24
BRANCH   7  26
HETATM   26  O   UNL     1      40.937 -17.159   0.667  1.00  0.00    -0.343 OA
HETATM   27  H   UNL     1      41.784 -17.625   0.727  1.00  0.00     0.219 HD
ENDBRANCH   7  26
TORSDOF 6
ENDMDL
MODEL 6
REMARK VINA RESULT:      -6.6      2.715      4.207
REMARK  6 active torsions:
REMARK  status: ('A' for Active; 'I' for Inactive)
REMARK    1  A    between atoms: C_2  and  O_3 
REMARK    2  A    between atoms: O_3  and  C_4 
REMARK    3  A    between atoms: C_4  and  C_5 
REMARK    4  A    between atoms: C_6  and  O_7 
REMARK    5  A    between atoms: C_12  and  O_13 
REMARK    6  A    between atoms: C_17  and  C_18 
ROOT
HETATM    1  C   UNL     1      42.137 -15.991   3.821  1.00  0.00     0.133 C 
HETATM    2  C   UNL     1      41.630 -14.859   4.766  1.00  0.00     0.073 C 
HETATM    3  C   UNL     1      40.267 -14.293   4.341  1.00  0.00     0.047 C 
HETATM    4  C   UNL     1      41.569 -15.274   6.267  1.00  0.00     0.097 C 
HETATM    5  C   UNL     1      42.761 -16.085   6.619  1.00  0.00     0.042 A 
HETATM    6  C   UNL     1      43.629 -16.717   5.752  1.00  0.00     0.030 A 
HETATM    7  C   UNL     1      44.611 -17.240   6.611  1.00  0.00     0.190 A 
HETATM    8  N   UNL     1      44.367 -17.023   7.898  1.00  0.00    -0.149 NA
HETATM    9  N   UNL     1      43.236 -16.298   7.881  1.00  0.00    -0.279 N 
HETATM   10  H   UNL     1      42.861 -15.970   8.765  1.00  0.00     0.189 HD
HETATM   11  C   UNL     1      43.484 -16.637   4.268  1.00  0.00     0.074 C 
ENDROOT
BRANCH  11  12
HETATM   12  C   UNL     1      43.770 -18.004   3.658  1.00  0.00    -0.048 A 
HETATM   13  C   UNL     1      43.750 -19.202   4.399  1.00  0.00     0.009 A 
HETATM   14  C   UNL     1      43.975 -20.435   3.783  1.00  0.00     0.024 A 
HETATM   15  C   UNL     1      44.207 -20.491   2.414  1.00  0.00     0.034 A 
HETATM   16 CL   UNL     1      44.473 -22.010   1.651  1.00  0.00    -0.084 Cl
HETATM   17  C   UNL     1      44.220 -19.324   1.655  1.00  0.00     0.024 A 
HETATM   18  C   UNL     1      44.001 -18.089   2.274  1.00  0.00     0.009 A 
ENDBRANCH  11  12
BRANCH   1  19
HETATM   19  C   UNL     1      41.054 -17.003   3.508  1.00  0.00     0.267 C 
HETATM   20  O   UNL     1      40.573 -17.738   4.364  1.00  0.00    -0.265 OA
BRANCH  19  21
HETATM   21  O   UNL     1      40.712 -17.016   2.196  1.00  0.00    -0.321 OA
BRANCH  21  22
HETATM   22  C   UNL     1      41.224 -15.929   1.409  1.00  0.00     0.174 C 
HETATM   23  C   UNL     1      41.524 -16.391  -0.004  1.00  0.00     0.034 C 
ENDBRANCH  21  22
ENDBRANCH  19  21
ENDBRANCH   1  19
BRANCH   2  24
HETATM   24  O   UNL     1      42.566 -13.760   4.667  1.00  0.00    -0.389 OA
HETATM   25  H   UNL     1      42.128 -12.947   4.973  1.00  0.00     0.210 HD
ENDBRANCH   2  24
BRANCH   7  26
HETATM   26  O   UNL     1      45.728 -17.914   6.327  1.00  0.00    -0.343 OA
HETATM   27  H   UNL     1      46.050 -17.655   5.452  1.00  0.00     0.219 HD
ENDBRANCH   7  26
TORSDOF 6
ENDMDL
MODEL 7
REMARK VINA RESULT:      -6.5      4.053      6.220
REMARK  6 active torsions:
REMARK  status: ('A' for Active; 'I' for Inactive)
REMARK    1  A    between atoms: C_2  and  O_3 
REMARK    2  A    between atoms: O_3  and  C_4 
REMARK    3  A    between atoms: C_4  and  C_5 
REMARK    4  A    between atoms: C_6  and  O_7 
REMARK    5  A    between atoms: C_12  and  O_13 
REMARK    6  A    between atoms: C_17  and  C_18 
ROOT
HETATM    1  C   UNL     1      42.732 -15.621   4.756  1.00  0.00     0.133 C 
HETATM    2  C   UNL     1      42.927 -16.850   3.817  1.00  0.00     0.073 C 
HETATM    3  C   UNL     1      43.749 -17.973   4.468  1.00  0.00     0.047 C 
HETATM    4  C   UNL     1      41.593 -17.440   3.269  1.00  0.00     0.097 C 
HETATM    5  C   UNL     1      40.662 -16.342   2.905  1.00  0.00     0.042 A 
HETATM    6  C   UNL     1      40.738 -15.019   3.291  1.00  0.00     0.030 A 
HETATM    7  C   UNL     1      39.679 -14.422   2.586  1.00  0.00     0.190 A 
HETATM    8  N   UNL     1      38.961 -15.280   1.871  1.00  0.00    -0.149 NA
HETATM    9  N   UNL     1      39.591 -16.450   2.067  1.00  0.00    -0.279 N 
HETATM   10  H   UNL     1      39.244 -17.271   1.581  1.00  0.00     0.189 HD
HETATM   11  C   UNL     1      41.840 -14.493   4.151  1.00  0.00     0.074 C 
ENDROOT
BRANCH  11  12
HETATM   12  C   UNL     1      41.263 -13.518   5.171  1.00  0.00    -0.048 A 
HETATM   13  C   UNL     1      41.935 -12.356   5.598  1.00  0.00     0.009 A 
HETATM   14  C   UNL     1      41.343 -11.472   6.503  1.00  0.00     0.024 A 
HETATM   15  C   UNL     1      40.064 -11.728   6.982  1.00  0.00     0.034 A 
HETATM   16 CL   UNL     1      39.328 -10.634   8.087  1.00  0.00    -0.084 Cl
HETATM   17  C   UNL     1      39.372 -12.863   6.567  1.00  0.00     0.024 A 
HETATM   18  C   UNL     1      39.968 -13.751   5.666  1.00  0.00     0.009 A 
ENDBRANCH  11  12
BRANCH   1  19
HETATM   19  C   UNL     1      42.325 -16.029   6.157  1.00  0.00     0.267 C 
HETATM   20  O   UNL     1      41.289 -16.643   6.389  1.00  0.00    -0.265 OA
BRANCH  19  21
HETATM   21  O   UNL     1      43.208 -15.617   7.100  1.00  0.00    -0.321 OA
BRANCH  21  22
HETATM   22  C   UNL     1      44.428 -15.045   6.603  1.00  0.00     0.174 C 
HETATM   23  C   UNL     1      44.802 -13.812   7.403  1.00  0.00     0.034 C 
ENDBRANCH  21  22
ENDBRANCH  19  21
ENDBRANCH   1  19
BRANCH   2  24
HETATM   24  O   UNL     1      43.695 -16.405   2.675  1.00  0.00    -0.389 OA
HETATM   25  H   UNL     1      43.549 -17.023   1.938  1.00  0.00     0.210 HD
ENDBRANCH   2  24
BRANCH   7  26
HETATM   26  O   UNL     1      39.296 -13.144   2.534  1.00  0.00    -0.343 OA
HETATM   27  H   UNL     1      38.684 -13.018   1.794  1.00  0.00     0.219 HD
ENDBRANCH   7  26
TORSDOF 6
ENDMDL
MODEL 8
REMARK VINA RESULT:      -6.3      3.697      5.851
REMARK  6 active torsions:
REMARK  status: ('A' for Active; 'I' for Inactive)
REMARK    1  A    between atoms: C_2  and  O_3 
REMARK    2  A    between atoms: O_3  and  C_4 
REMARK    3  A    between atoms: C_4  and  C_5 
REMARK    4  A    between atoms: C_6  and  O_7 
REMARK    5  A    between atoms: C_12  and  O_13 
REMARK    6  A    between atoms: C_17  and  C_18 
ROOT
HETATM    1  C   UNL     1      43.236 -16.582   3.227  1.00  0.00     0.133 C 
HETATM    2  C   UNL     1      43.601 -17.584   2.090  1.00  0.00     0.073 C 
HETATM    3  C   UNL     1      44.078 -18.943   2.624  1.00  0.00     0.047 C 
HETATM    4  C   UNL     1      42.455 -17.810   1.059  1.00  0.00     0.097 C 
HETATM    5  C   UNL     1      41.784 -16.521   0.753  1.00  0.00     0.042 A 
HETATM    6  C   UNL     1      41.853 -15.350   1.479  1.00  0.00     0.030 A 
HETATM    7  C   UNL     1      41.122 -14.445   0.691  1.00  0.00     0.190 A 
HETATM    8  N   UNL     1      40.587 -14.991  -0.395  1.00  0.00    -0.149 NA
HETATM    9  N   UNL     1      41.018 -16.262  -0.346  1.00  0.00    -0.279 N 
HETATM   10  H   UNL     1      40.766 -16.885  -1.107  1.00  0.00     0.189 HD
HETATM   11  C   UNL     1      42.678 -15.217   2.717  1.00  0.00     0.074 C 
ENDROOT
BRANCH  11  12
HETATM   12  C   UNL     1      41.904 -14.415   3.757  1.00  0.00    -0.048 A 
HETATM   13  C   UNL     1      40.522 -14.567   3.979  1.00  0.00     0.009 A 
HETATM   14  C   UNL     1      39.867 -13.839   4.976  1.00  0.00     0.024 A 
HETATM   15  C   UNL     1      40.588 -12.960   5.776  1.00  0.00     0.034 A 
HETATM   16 CL   UNL     1      39.786 -12.071   7.010  1.00  0.00    -0.084 Cl
HETATM   17  C   UNL     1      41.958 -12.800   5.585  1.00  0.00     0.024 A 
HETATM   18  C   UNL     1      42.611 -13.524   4.583  1.00  0.00     0.009 A 
ENDBRANCH  11  12
BRANCH   1  19
HETATM   19  C   UNL     1      42.381 -17.222   4.302  1.00  0.00     0.267 C 
HETATM   20  O   UNL     1      41.316 -17.776   4.052  1.00  0.00    -0.265 OA
BRANCH  19  21
HETATM   21  O   UNL     1      42.910 -17.083   5.543  1.00  0.00    -0.321 OA
BRANCH  21  22
HETATM   22  C   UNL     1      43.468 -18.275   6.118  1.00  0.00     0.174 C 
HETATM   23  C   UNL     1      44.975 -18.151   6.239  1.00  0.00     0.034 C 
ENDBRANCH  21  22
ENDBRANCH  19  21
ENDBRANCH   1  19
BRANCH   2  24
HETATM   24  O   UNL     1      44.721 -17.026   1.364  1.00  0.00    -0.389 OA
HETATM   25  H   UNL     1      45.035 -16.233   1.832  1.00  0.00     0.210 HD
ENDBRANCH   2  24
BRANCH   7  26
HETATM   26  O   UNL     1      40.889 -13.142   0.872  1.00  0.00    -0.343 OA
HETATM   27  H   UNL     1      40.740 -12.716   0.016  1.00  0.00     0.219 HD
ENDBRANCH   7  26
TORSDOF 6
ENDMDL
MODEL 9
REMARK VINA RESULT:      -6.3      4.395      7.089
REMARK  6 active torsions:
REMARK  status: ('A' for Active; 'I' for Inactive)
REMARK    1  A    between atoms: C_2  and  O_3 
REMARK    2  A    between atoms: O_3  and  C_4 
REMARK    3  A    between atoms: C_4  and  C_5 
REMARK    4  A    between atoms: C_6  and  O_7 
REMARK    5  A    between atoms: C_12  and  O_13 
REMARK    6  A    between atoms: C_17  and  C_18 
ROOT
HETATM    1  C   UNL     1      42.489 -14.298   2.810  1.00  0.00     0.133 C 
HETATM    2  C   UNL     1      41.775 -13.421   1.737  1.00  0.00     0.073 C 
HETATM    3  C   UNL     1      41.867 -14.016   0.323  1.00  0.00     0.047 C 
HETATM    4  C   UNL     1      40.285 -13.110   2.069  1.00  0.00     0.097 C 
HETATM    5  C   UNL     1      40.137 -12.816   3.517  1.00  0.00     0.042 A 
HETATM    6  C   UNL     1      41.035 -13.102   4.524  1.00  0.00     0.030 A 
HETATM    7  C   UNL     1      40.438 -12.521   5.656  1.00  0.00     0.190 A 
HETATM    8  N   UNL     1      39.253 -11.973   5.414  1.00  0.00    -0.149 NA
HETATM    9  N   UNL     1      39.094 -12.151   4.092  1.00  0.00    -0.279 N 
HETATM   10  H   UNL     1      38.260 -11.773   3.653  1.00  0.00     0.189 HD
HETATM   11  C   UNL     1      42.352 -13.758   4.267  1.00  0.00     0.074 C 
ENDROOT
BRANCH  11  12
HETATM   12  C   UNL     1      42.626 -14.788   5.358  1.00  0.00    -0.048 A 
HETATM   13  C   UNL     1      41.658 -15.700   5.821  1.00  0.00     0.009 A 
HETATM   14  C   UNL     1      41.974 -16.654   6.792  1.00  0.00     0.024 A 
HETATM   15  C   UNL     1      43.265 -16.720   7.303  1.00  0.00     0.034 A 
HETATM   16 CL   UNL     1      43.657 -17.900   8.490  1.00  0.00    -0.084 Cl
HETATM   17  C   UNL     1      44.243 -15.838   6.852  1.00  0.00     0.024 A 
HETATM   18  C   UNL     1      43.926 -14.879   5.885  1.00  0.00     0.009 A 
ENDBRANCH  11  12
BRANCH   1  19
HETATM   19  C   UNL     1      42.142 -15.766   2.672  1.00  0.00     0.267 C 
HETATM   20  O   UNL     1      40.987 -16.177   2.720  1.00  0.00    -0.265 OA
BRANCH  19  21
HETATM   21  O   UNL     1      43.237 -16.553   2.525  1.00  0.00    -0.321 OA
BRANCH  21  22
HETATM   22  C   UNL     1      43.049 -17.944   2.828  1.00  0.00     0.174 C 
HETATM   23  C   UNL     1      43.887 -18.344   4.027  1.00  0.00     0.034 C 
ENDBRANCH  21  22
ENDBRANCH  19  21
ENDBRANCH   1  19
BRANCH   2  24
HETATM   24  O   UNL     1      42.471 -12.154   1.681  1.00  0.00    -0.389 OA
HETATM   25  H   UNL     1      41.940 -11.526   1.160  1.00  0.00     0.210 HD
ENDBRANCH   2  24
BRANCH   7  26
HETATM   26  O   UNL     1      40.878 -12.444   6.914  1.00  0.00    -0.343 OA
HETATM   27  H   UNL     1      41.659 -13.007   7.021  1.00  0.00     0.219 HD
ENDBRANCH   7  26
TORSDOF 6
ENDMDL
MODEL 10
REMARK VINA RESULT:      -6.3      3.896      6.190
REMARK  6 active torsions:
REMARK  status: ('A' for Active; 'I' for Inactive)
REMARK    1  A    between atoms: C_2  and  O_3 
REMARK    2  A    between atoms: O_3  and  C_4 
REMARK    3  A    between atoms: C_4  and  C_5 
REMARK    4  A    between atoms: C_6  and  O_7 
REMARK    5  A    between atoms: C_12  and  O_13 
REMARK    6  A    between atoms: C_17  and  C_18 
ROOT
HETATM    1  C   UNL     1      41.940 -14.244   1.286  1.00  0.00     0.133 C 
HETATM    2  C   UNL     1      41.360 -12.821   1.553  1.00  0.00     0.073 C 
HETATM    3  C   UNL     1      40.430 -12.336   0.431  1.00  0.00     0.047 C 
HETATM    4  C   UNL     1      40.627 -12.689   2.922  1.00  0.00     0.097 C 
HETATM    5  C   UNL     1      41.380 -13.416   3.975  1.00  0.00     0.042 A 
HETATM    6  C   UNL     1      42.360 -14.370   3.794  1.00  0.00     0.030 A 
HETATM    7  C   UNL     1      42.787 -14.637   5.106  1.00  0.00     0.190 A 
HETATM    8  N   UNL     1      42.111 -13.973   6.036  1.00  0.00    -0.149 NA
HETATM    9  N   UNL     1      41.263 -13.216   5.319  1.00  0.00    -0.279 N 
HETATM   10  H   UNL     1      40.652 -12.576   5.817  1.00  0.00     0.189 HD
HETATM   11  C   UNL     1      42.830 -14.795   2.442  1.00  0.00     0.074 C 
ENDROOT
BRANCH  11  12
HETATM   12  C   UNL     1      43.030 -16.307   2.429  1.00  0.00    -0.048 A 
HETATM   13  C   UNL     1      42.243 -17.198   3.184  1.00  0.00     0.009 A 
HETATM   14  C   UNL     1      42.438 -18.579   3.102  1.00  0.00     0.024 A 
HETATM   15  C   UNL     1      43.412 -19.090   2.252  1.00  0.00     0.034 A 
HETATM   16 CL   UNL     1      43.646 -20.790   2.141  1.00  0.00    -0.084 Cl
HETATM   17  C   UNL     1      44.195 -18.231   1.485  1.00  0.00     0.024 A 
HETATM   18  C   UNL     1      44.004 -16.849   1.572  1.00  0.00     0.009 A 
ENDBRANCH  11  12
BRANCH   1  19
HETATM   19  C   UNL     1      40.876 -15.218   0.823  1.00  0.00     0.267 C 
HETATM   20  O   UNL     1      39.883 -15.477   1.494  1.00  0.00    -0.265 OA
BRANCH  19  21
HETATM   21  O   UNL     1      41.164 -15.776  -0.379  1.00  0.00    -0.321 OA
BRANCH  21  22
HETATM   22  C   UNL     1      40.807 -14.995  -1.530  1.00  0.00     0.174 C 
HETATM   23  C   UNL     1      40.948 -15.818  -2.796  1.00  0.00     0.034 C 
ENDBRANCH  21  22
ENDBRANCH  19  21
ENDBRANCH   1  19
BRANCH   2  24
HETATM   24  O   UNL     1      42.473 -11.897   1.576  1.00  0.00    -0.389 OA
HETATM   25  H   UNL     1      43.114 -12.162   0.894  1.00  0.00     0.210 HD
ENDBRANCH   2  24
BRANCH   7  26
HETATM   26  O   UNL     1      43.753 -15.449   5.545  1.00  0.00    -0.343 OA
HETATM   27  H   UNL     1      44.477 -14.923   5.914  1.00  0.00     0.219 HD
ENDBRANCH   7  26
TORSDOF 6
ENDMDL
