MODEL 1
REMARK VINA RESULT:      -7.9      0.000      0.000
REMARK  8 active torsions:
REMARK  status: ('A' for Active; 'I' for Inactive)
REMARK       I    between atoms: C_2  and  N_3 
REMARK    1  A    between atoms: N_3  and  C_4 
REMARK    2  A    between atoms: C_6  and  C_7 
REMARK    3  A    between atoms: C_7  and  N_8 
REMARK    4  A    between atoms: C_11  and  C_12 
REMARK    5  A    between atoms: C_14  and  S_15 
REMARK    6  A    between atoms: S_15  and  C_16 
REMARK    7  A    between atoms: C_16  and  C_17 
REMARK    8  A    between atoms: C_17  and  N_18 
ROOT
HETATM    1  N   UNL     1      41.347 -15.428   0.616  1.00  0.00    -0.066 N 
HETATM    2  H   UNL     1      40.771 -15.970  -0.043  1.00  0.00     0.280 HD
HETATM    3  C   UNL     1      42.412 -16.366   1.167  1.00  0.00     0.246 C 
HETATM    4  C   UNL     1      41.757 -17.519   1.939  1.00  0.00     0.064 C 
HETATM    5  C   UNL     1      40.814 -16.994   3.030  1.00  0.00     0.014 C 
HETATM    6  C   UNL     1      39.779 -16.043   2.439  1.00  0.00     0.028 C 
HETATM    7  C   UNL     1      40.432 -14.891   1.692  1.00  0.00     0.235 C 
ENDROOT
BRANCH   4   8
HETATM    8  C   UNL     1      42.772 -18.498   2.493  1.00  0.00     0.044 A 
HETATM    9  N   UNL     1      43.201 -18.243   3.746  1.00  0.00    -0.227 NA
HETATM   10  C   UNL     1      44.141 -19.053   4.265  1.00  0.00     0.188 A 
HETATM   11  N   UNL     1      44.680 -20.101   3.629  1.00  0.00    -0.235 NA
HETATM   12  C   UNL     1      44.218 -20.341   2.388  1.00  0.00     0.121 A 
HETATM   13  C   UNL     1      43.262 -19.566   1.766  1.00  0.00     0.047 A 
BRANCH  10  14
HETATM   14  S   UNL     1      44.694 -18.678   5.908  1.00  0.00    -0.088 SA
BRANCH  14  15
HETATM   15  C   UNL     1      43.138 -18.076   6.638  1.00  0.00     0.110 C 
BRANCH  15  16
HETATM   16  C   UNL     1      43.460 -17.082   7.756  1.00  0.00     0.245 C 
BRANCH  16  17
HETATM   17  N   UNL     1      43.195 -15.650   7.325  1.00  0.00    -0.070 N 
HETATM   18  H   UNL     1      42.663 -15.185   8.075  1.00  0.00     0.279 HD
HETATM   19  C   UNL     1      42.331 -15.560   6.070  1.00  0.00     0.235 C 
HETATM   20  C   UNL     1      43.241 -14.951   5.024  1.00  0.00     0.029 C 
HETATM   21  C   UNL     1      44.108 -14.009   5.830  1.00  0.00     0.029 C 
HETATM   22  C   UNL     1      44.447 -14.829   7.058  1.00  0.00     0.235 C 
ENDBRANCH  16  17
ENDBRANCH  15  16
ENDBRANCH  14  15
ENDBRANCH  10  14
ENDBRANCH   4   8
BRANCH   1  23
HETATM   23  C   UNL     1      41.934 -14.286  -0.203  1.00  0.00     0.280 C 
BRANCH  23  24
HETATM   24  C   UNL     1      41.217 -14.063  -1.492  1.00  0.00     0.010 A 
HETATM   25  S   UNL     1      39.501 -13.997  -1.521  1.00  0.00    -0.075 SA
HETATM   26  C   UNL     1      39.477 -13.725  -3.196  1.00  0.00     0.076 A 
HETATM   27  C   UNL     1      40.736 -13.697  -3.743  1.00  0.00     0.038 A 
HETATM   28  C   UNL     1      41.748 -13.908  -2.759  1.00  0.00     0.019 A 
BRANCH  26  29
HETATM   29  N   UNL     1      38.220 -13.588  -3.731  1.00  0.00    -0.322 N 
HETATM   30  C   UNL     1      37.456 -14.665  -4.139  1.00  0.00     0.218 C 
HETATM   31  C   UNL     1      36.097 -14.253  -4.644  1.00  0.00     0.117 C 
HETATM   32  O   UNL     1      37.815 -15.838  -4.155  1.00  0.00    -0.274 OA
HETATM   33  H   UNL     1      37.853 -12.650  -3.829  1.00  0.00     0.169 HD
ENDBRANCH  26  29
ENDBRANCH  23  24
ENDBRANCH   1  23
TORSDOF 8
ENDMDL
MODEL 2
REMARK VINA RESULT:      -7.8      1.167      3.804
REMARK  8 active torsions:
REMARK  status: ('A' for Active; 'I' for Inactive)
REMARK       I    between atoms: C_2  and  N_3 
REMARK    1  A    between atoms: N_3  and  C_4 
REMARK    2  A    between atoms: C_6  and  C_7 
REMARK    3  A    between atoms: C_7  and  N_8 
REMARK    4  A    between atoms: C_11  and  C_12 
REMARK    5  A    between atoms: C_14  and  S_15 
REMARK    6  A    between atoms: S_15  and  C_16 
REMARK    7  A    between atoms: C_16  and  C_17 
REMARK    8  A    between atoms: C_17  and  N_18 
ROOT
HETATM    1  N   UNL     1      41.618 -14.675   0.887  1.00  0.00    -0.066 N 
HETATM    2  H   UNL     1      42.245 -15.242   0.300  1.00  0.00     0.280 HD
HETATM    3  C   UNL     1      42.291 -14.506   2.241  1.00  0.00     0.246 C 
HETATM    4  C   UNL     1      42.476 -15.871   2.918  1.00  0.00     0.064 C 
HETATM    5  C   UNL     1      41.145 -16.629   3.013  1.00  0.00     0.014 C 
HETATM    6  C   UNL     1      40.495 -16.757   1.639  1.00  0.00     0.028 C 
HETATM    7  C   UNL     1      40.295 -15.400   0.981  1.00  0.00     0.235 C 
ENDROOT
BRANCH   4   8
HETATM    8  C   UNL     1      43.163 -15.765   4.263  1.00  0.00     0.044 A 
HETATM    9  N   UNL     1      43.590 -16.931   4.790  1.00  0.00    -0.227 NA
HETATM   10  C   UNL     1      44.162 -16.898   6.008  1.00  0.00     0.188 A 
HETATM   11  N   UNL     1      44.343 -15.788   6.735  1.00  0.00    -0.235 NA
HETATM   12  C   UNL     1      43.923 -14.639   6.174  1.00  0.00     0.121 A 
HETATM   13  C   UNL     1      43.320 -14.568   4.936  1.00  0.00     0.047 A 
BRANCH  10  14
HETATM   14  S   UNL     1      44.696 -18.451   6.677  1.00  0.00    -0.088 SA
BRANCH  14  15
HETATM   15  C   UNL     1      43.771 -19.594   5.604  1.00  0.00     0.110 C 
BRANCH  15  16
HETATM   16  C   UNL     1      44.647 -20.812   5.297  1.00  0.00     0.245 C 
BRANCH  16  17
HETATM   17  N   UNL     1      44.972 -20.909   3.817  1.00  0.00    -0.070 N 
HETATM   18  H   UNL     1      45.992 -20.821   3.709  1.00  0.00     0.279 HD
HETATM   19  C   UNL     1      44.358 -19.775   3.000  1.00  0.00     0.235 C 
HETATM   20  C   UNL     1      43.355 -20.457   2.094  1.00  0.00     0.029 C 
HETATM   21  C   UNL     1      44.008 -21.791   1.804  1.00  0.00     0.029 C 
HETATM   22  C   UNL     1      44.539 -22.210   3.159  1.00  0.00     0.235 C 
ENDBRANCH  16  17
ENDBRANCH  15  16
ENDBRANCH  14  15
ENDBRANCH  10  14
ENDBRANCH   4   8
BRANCH   1  23
HETATM   23  C   UNL     1      41.450 -13.356   0.144  1.00  0.00     0.280 C 
BRANCH  23  24
HETATM   24  C   UNL     1      40.884 -13.526  -1.225  1.00  0.00     0.010 A 
HETATM   25  S   UNL     1      39.244 -13.122  -1.535  1.00  0.00    -0.075 SA
HETATM   26  C   UNL     1      39.382 -13.548  -3.172  1.00  0.00     0.076 A 
HETATM   27  C   UNL     1      40.637 -14.003  -3.494  1.00  0.00     0.038 A 
HETATM   28  C   UNL     1      41.507 -14.006  -2.363  1.00  0.00     0.019 A 
BRANCH  26  29
HETATM   29  N   UNL     1      38.231 -13.379  -3.902  1.00  0.00    -0.322 N 
HETATM   30  C   UNL     1      37.217 -14.318  -3.932  1.00  0.00     0.218 C 
HETATM   31  C   UNL     1      36.042 -13.875  -4.766  1.00  0.00     0.117 C 
HETATM   32  O   UNL     1      37.242 -15.423  -3.398  1.00  0.00    -0.274 OA
HETATM   33  H   UNL     1      38.139 -12.528  -4.440  1.00  0.00     0.169 HD
ENDBRANCH  26  29
ENDBRANCH  23  24
ENDBRANCH   1  23
TORSDOF 8
ENDMDL
MODEL 3
REMARK VINA RESULT:      -7.8      4.798      9.613
REMARK  8 active torsions:
REMARK  status: ('A' for Active; 'I' for Inactive)
REMARK       I    between atoms: C_2  and  N_3 
REMARK    1  A    between atoms: N_3  and  C_4 
REMARK    2  A    between atoms: C_6  and  C_7 
REMARK    3  A    between atoms: C_7  and  N_8 
REMARK    4  A    between atoms: C_11  and  C_12 
REMARK    5  A    between atoms: C_14  and  S_15 
REMARK    6  A    between atoms: S_15  and  C_16 
REMARK    7  A    between atoms: C_16  and  C_17 
REMARK    8  A    between atoms: C_17  and  N_18 
ROOT
HETATM    1  N   UNL     1      43.861 -14.666   7.051  1.00  0.00    -0.066 N 
HETATM    2  H   UNL     1      43.257 -14.217   7.753  1.00  0.00     0.280 HD
HETATM    3  C   UNL     1      43.128 -14.614   5.718  1.00  0.00     0.246 C 
HETATM    4  C   UNL     1      41.818 -15.409   5.800  1.00  0.00     0.064 C 
HETATM    5  C   UNL     1      42.068 -16.846   6.278  1.00  0.00     0.014 C 
HETATM    6  C   UNL     1      42.822 -16.851   7.604  1.00  0.00     0.028 C 
HETATM    7  C   UNL     1      44.130 -16.080   7.513  1.00  0.00     0.235 C 
ENDROOT
BRANCH   4   8
HETATM    8  C   UNL     1      41.035 -15.374   4.505  1.00  0.00     0.044 A 
HETATM    9  N   UNL     1      41.339 -16.341   3.615  1.00  0.00    -0.227 NA
HETATM   10  C   UNL     1      40.708 -16.323   2.427  1.00  0.00     0.188 A 
HETATM   11  N   UNL     1      39.792 -15.416   2.064  1.00  0.00    -0.235 NA
HETATM   12  C   UNL     1      39.496 -14.475   2.980  1.00  0.00     0.121 A 
HETATM   13  C   UNL     1      40.092 -14.403   4.221  1.00  0.00     0.047 A 
BRANCH  10  14
HETATM   14  S   UNL     1      41.146 -17.599   1.275  1.00  0.00    -0.088 SA
BRANCH  14  15
HETATM   15  C   UNL     1      42.742 -16.956   0.680  1.00  0.00     0.110 C 
BRANCH  15  16
HETATM   16  C   UNL     1      43.877 -17.701   1.388  1.00  0.00     0.245 C 
BRANCH  16  17
HETATM   17  N   UNL     1      43.350 -18.832   2.253  1.00  0.00    -0.070 N 
HETATM   18  H   UNL     1      42.326 -18.735   2.314  1.00  0.00     0.279 HD
HETATM   19  C   UNL     1      43.870 -18.773   3.687  1.00  0.00     0.235 C 
HETATM   20  C   UNL     1      44.724 -20.014   3.835  1.00  0.00     0.029 C 
HETATM   21  C   UNL     1      44.009 -21.027   2.967  1.00  0.00     0.029 C 
HETATM   22  C   UNL     1      43.661 -20.225   1.729  1.00  0.00     0.235 C 
ENDBRANCH  16  17
ENDBRANCH  15  16
ENDBRANCH  14  15
ENDBRANCH  10  14
ENDBRANCH   4   8
BRANCH   1  23
HETATM   23  C   UNL     1      45.149 -13.854   7.047  1.00  0.00     0.280 C 
BRANCH  23  24
HETATM   24  C   UNL     1      45.163 -12.776   8.078  1.00  0.00     0.010 A 
HETATM   25  S   UNL     1      43.685 -12.161   8.699  1.00  0.00    -0.075 SA
HETATM   26  C   UNL     1      44.494 -11.085   9.732  1.00  0.00     0.076 A 
HETATM   27  C   UNL     1      45.860 -11.165   9.613  1.00  0.00     0.038 A 
HETATM   28  C   UNL     1      46.251 -12.136   8.642  1.00  0.00     0.019 A 
BRANCH  26  29
HETATM   29  N   UNL     1      43.666 -10.309  10.506  1.00  0.00    -0.322 N 
HETATM   30  C   UNL     1      43.222 -10.699  11.756  1.00  0.00     0.218 C 
HETATM   31  C   UNL     1      42.366  -9.652  12.420  1.00  0.00     0.117 C 
HETATM   32  O   UNL     1      43.434 -11.784  12.289  1.00  0.00    -0.274 OA
HETATM   33  H   UNL     1      43.371  -9.419  10.128  1.00  0.00     0.169 HD
ENDBRANCH  26  29
ENDBRANCH  23  24
ENDBRANCH   1  23
TORSDOF 8
ENDMDL
MODEL 4
REMARK VINA RESULT:      -7.7      3.751      5.892
REMARK  8 active torsions:
REMARK  status: ('A' for Active; 'I' for Inactive)
REMARK       I    between atoms: C_2  and  N_3 
REMARK    1  A    between atoms: N_3  and  C_4 
REMARK    2  A    between atoms: C_6  and  C_7 
REMARK    3  A    between atoms: C_7  and  N_8 
REMARK    4  A    between atoms: C_11  and  C_12 
REMARK    5  A    between atoms: C_14  and  S_15 
REMARK    6  A    between atoms: S_15  and  C_16 
REMARK    7  A    between atoms: C_16  and  C_17 
REMARK    8  A    between atoms: C_17  and  N_18 
ROOT
HETATM    1  N   UNL     1      40.907 -15.091   2.381  1.00  0.00    -0.066 N 
HETATM    2  H   UNL     1      41.660 -14.390   2.427  1.00  0.00     0.280 HD
HETATM    3  C   UNL     1      41.454 -16.385   2.966  1.00  0.00     0.246 C 
HETATM    4  C   UNL     1      42.633 -16.893   2.125  1.00  0.00     0.064 C 
HETATM    5  C   UNL     1      42.242 -17.034   0.648  1.00  0.00     0.014 C 
HETATM    6  C   UNL     1      41.680 -15.723   0.109  1.00  0.00     0.028 C 
HETATM    7  C   UNL     1      40.500 -15.233   0.933  1.00  0.00     0.235 C 
ENDROOT
BRANCH   4   8
HETATM    8  C   UNL     1      43.232 -18.170   2.676  1.00  0.00     0.044 A 
HETATM    9  N   UNL     1      43.370 -18.215   4.017  1.00  0.00    -0.227 NA
HETATM   10  C   UNL     1      43.945 -19.308   4.553  1.00  0.00     0.188 A 
HETATM   11  N   UNL     1      44.386 -20.359   3.851  1.00  0.00    -0.235 NA
HETATM   12  C   UNL     1      44.216 -20.292   2.517  1.00  0.00     0.121 A 
HETATM   13  C   UNL     1      43.646 -19.215   1.872  1.00  0.00     0.047 A 
BRANCH  10  14
HETATM   14  S   UNL     1      44.127 -19.325   6.317  1.00  0.00    -0.088 SA
BRANCH  14  15
HETATM   15  C   UNL     1      42.977 -17.988   6.768  1.00  0.00     0.110 C 
BRANCH  15  16
HETATM   16  C   UNL     1      43.682 -17.022   7.724  1.00  0.00     0.245 C 
BRANCH  16  17
HETATM   17  N   UNL     1      43.337 -15.576   7.413  1.00  0.00    -0.070 N 
HETATM   18  H   UNL     1      42.657 -15.252   8.115  1.00  0.00     0.279 HD
HETATM   19  C   UNL     1      42.661 -15.407   6.055  1.00  0.00     0.235 C 
HETATM   20  C   UNL     1      43.647 -14.602   5.235  1.00  0.00     0.029 C 
HETATM   21  C   UNL     1      44.286 -13.695   6.263  1.00  0.00     0.029 C 
HETATM   22  C   UNL     1      44.525 -14.626   7.434  1.00  0.00     0.235 C 
ENDBRANCH  16  17
ENDBRANCH  15  16
ENDBRANCH  14  15
ENDBRANCH  10  14
ENDBRANCH   4   8
BRANCH   1  23
HETATM   23  C   UNL     1      39.763 -14.510   3.201  1.00  0.00     0.280 C 
BRANCH  23  24
HETATM   24  C   UNL     1      40.209 -13.463   4.166  1.00  0.00     0.010 A 
HETATM   25  S   UNL     1      39.652 -13.496   5.790  1.00  0.00    -0.075 SA
HETATM   26  C   UNL     1      40.547 -12.111   6.191  1.00  0.00     0.076 A 
HETATM   27  C   UNL     1      41.250 -11.609   5.123  1.00  0.00     0.038 A 
HETATM   28  C   UNL     1      41.043 -12.384   3.942  1.00  0.00     0.019 A 
BRANCH  26  29
HETATM   29  N   UNL     1      40.420 -11.712   7.499  1.00  0.00    -0.322 N 
HETATM   30  C   UNL     1      39.556 -10.710   7.898  1.00  0.00     0.218 C 
HETATM   31  C   UNL     1      39.568 -10.495   9.390  1.00  0.00     0.117 C 
HETATM   32  O   UNL     1      38.872 -10.011   7.158  1.00  0.00    -0.274 OA
HETATM   33  H   UNL     1      40.995 -12.179   8.188  1.00  0.00     0.169 HD
ENDBRANCH  26  29
ENDBRANCH  23  24
ENDBRANCH   1  23
TORSDOF 8
ENDMDL
MODEL 5
REMARK VINA RESULT:      -7.7      3.174      3.999
REMARK  8 active torsions:
REMARK  status: ('A' for Active; 'I' for Inactive)
REMARK       I    between atoms: C_2  and  N_3 
REMARK    1  A    between atoms: N_3  and  C_4 
REMARK    2  A    between atoms: C_6  and  C_7 
REMARK    3  A    between atoms: C_7  and  N_8 
REMARK    4  A    between atoms: C_11  and  C_12 
REMARK    5  A    between atoms: C_14  and  S_15 
REMARK    6  A    between atoms: S_15  and  C_16 
REMARK    7  A    between atoms: C_16  and  C_17 
REMARK    8  A    between atoms: C_17  and  N_18 
ROOT
HETATM    1  N   UNL     1      42.258 -16.465   2.475  1.00  0.00    -0.066 N 
HETATM    2  H   UNL     1      43.033 -15.806   2.628  1.00  0.00     0.280 HD
HETATM    3  C   UNL     1      42.485 -17.657   3.394  1.00  0.00     0.246 C 
HETATM    4  C   UNL     1      43.796 -18.367   3.030  1.00  0.00     0.064 C 
HETATM    5  C   UNL     1      43.826 -18.755   1.546  1.00  0.00     0.014 C 
HETATM    6  C   UNL     1      43.573 -17.538   0.663  1.00  0.00     0.028 C 
HETATM    7  C   UNL     1      42.263 -16.849   1.013  1.00  0.00     0.235 C 
ENDROOT
BRANCH   4   8
HETATM    8  C   UNL     1      44.085 -19.551   3.930  1.00  0.00     0.044 A 
HETATM    9  N   UNL     1      43.776 -19.380   5.232  1.00  0.00    -0.227 NA
HETATM   10  C   UNL     1      44.061 -20.384   6.082  1.00  0.00     0.188 A 
HETATM   11  N   UNL     1      44.625 -21.545   5.728  1.00  0.00    -0.235 NA
HETATM   12  C   UNL     1      44.904 -21.693   4.420  1.00  0.00     0.121 A 
HETATM   13  C   UNL     1      44.658 -20.722   3.472  1.00  0.00     0.047 A 
BRANCH  10  14
HETATM   14  S   UNL     1      43.656 -20.118   7.788  1.00  0.00    -0.088 SA
BRANCH  14  15
HETATM   15  C   UNL     1      44.356 -18.454   8.025  1.00  0.00     0.110 C 
BRANCH  15  16
HETATM   16  C   UNL     1      43.227 -17.421   7.956  1.00  0.00     0.245 C 
BRANCH  16  17
HETATM   17  N   UNL     1      43.282 -16.618   6.668  1.00  0.00    -0.070 N 
HETATM   18  H   UNL     1      43.356 -17.281   5.883  1.00  0.00     0.279 HD
HETATM   19  C   UNL     1      44.512 -15.718   6.583  1.00  0.00     0.235 C 
HETATM   20  C   UNL     1      43.955 -14.310   6.597  1.00  0.00     0.029 C 
HETATM   21  C   UNL     1      42.645 -14.452   5.854  1.00  0.00     0.029 C 
HETATM   22  C   UNL     1      42.070 -15.733   6.424  1.00  0.00     0.235 C 
ENDBRANCH  16  17
ENDBRANCH  15  16
ENDBRANCH  14  15
ENDBRANCH  10  14
ENDBRANCH   4   8
BRANCH   1  23
HETATM   23  C   UNL     1      40.993 -15.690   2.818  1.00  0.00     0.280 C 
BRANCH  23  24
HETATM   24  C   UNL     1      40.872 -14.409   2.064  1.00  0.00     0.010 A 
HETATM   25  S   UNL     1      42.137 -13.250   2.126  1.00  0.00    -0.075 SA
HETATM   26  C   UNL     1      41.307 -12.194   1.090  1.00  0.00     0.076 A 
HETATM   27  C   UNL     1      40.084 -12.685   0.705  1.00  0.00     0.038 A 
HETATM   28  C   UNL     1      39.822 -13.965   1.281  1.00  0.00     0.019 A 
BRANCH  26  29
HETATM   29  N   UNL     1      41.976 -11.027   0.813  1.00  0.00    -0.322 N 
HETATM   30  C   UNL     1      42.791 -10.872  -0.293  1.00  0.00     0.218 C 
HETATM   31  C   UNL     1      43.370  -9.485  -0.397  1.00  0.00     0.117 C 
HETATM   32  O   UNL     1      43.080 -11.748  -1.102  1.00  0.00    -0.274 OA
HETATM   33  H   UNL     1      41.863 -10.258   1.460  1.00  0.00     0.169 HD
ENDBRANCH  26  29
ENDBRANCH  23  24
ENDBRANCH   1  23
TORSDOF 8
ENDMDL
MODEL 6
REMARK VINA RESULT:      -7.5      1.940      4.465
REMARK  8 active torsions:
REMARK  status: ('A' for Active; 'I' for Inactive)
REMARK       I    between atoms: C_2  and  N_3 
REMARK    1  A    between atoms: N_3  and  C_4 
REMARK    2  A    between atoms: C_6  and  C_7 
REMARK    3  A    between atoms: C_7  and  N_8 
REMARK    4  A    between atoms: C_11  and  C_12 
REMARK    5  A    between atoms: C_14  and  S_15 
REMARK    6  A    between atoms: S_15  and  C_16 
REMARK    7  A    between atoms: C_16  and  C_17 
REMARK    8  A    between atoms: C_17  and  N_18 
ROOT
HETATM    1  N   UNL     1      40.542 -15.566   2.084  1.00  0.00    -0.066 N 
HETATM    2  H   UNL     1      41.109 -14.965   1.468  1.00  0.00     0.280 HD
HETATM    3  C   UNL     1      41.138 -15.476   3.481  1.00  0.00     0.246 C 
HETATM    4  C   UNL     1      42.576 -16.011   3.483  1.00  0.00     0.064 C 
HETATM    5  C   UNL     1      42.641 -17.432   2.906  1.00  0.00     0.014 C 
HETATM    6  C   UNL     1      42.016 -17.480   1.515  1.00  0.00     0.028 C 
HETATM    7  C   UNL     1      40.584 -16.968   1.522  1.00  0.00     0.235 C 
ENDROOT
BRANCH   4   8
HETATM    8  C   UNL     1      43.227 -15.926   4.847  1.00  0.00     0.044 A 
HETATM    9  N   UNL     1      43.461 -17.107   5.454  1.00  0.00    -0.227 NA
HETATM   10  C   UNL     1      43.991 -17.084   6.691  1.00  0.00     0.188 A 
HETATM   11  N   UNL     1      44.309 -15.971   7.363  1.00  0.00    -0.235 NA
HETATM   12  C   UNL     1      44.081 -14.809   6.724  1.00  0.00     0.121 A 
HETATM   13  C   UNL     1      43.535 -14.726   5.460  1.00  0.00     0.047 A 
BRANCH  10  14
HETATM   14  S   UNL     1      44.269 -18.656   7.465  1.00  0.00    -0.088 SA
BRANCH  14  15
HETATM   15  C   UNL     1      43.554 -19.761   6.207  1.00  0.00     0.110 C 
BRANCH  15  16
HETATM   16  C   UNL     1      44.302 -21.096   6.229  1.00  0.00     0.245 C 
BRANCH  16  17
HETATM   17  N   UNL     1      45.035 -21.348   4.923  1.00  0.00    -0.070 N 
HETATM   18  H   UNL     1      46.041 -21.419   5.131  1.00  0.00     0.279 HD
HETATM   19  C   UNL     1      44.885 -20.201   3.928  1.00  0.00     0.235 C 
HETATM   20  C   UNL     1      44.102 -20.795   2.776  1.00  0.00     0.029 C 
HETATM   21  C   UNL     1      44.587 -22.227   2.735  1.00  0.00     0.029 C 
HETATM   22  C   UNL     1      44.614 -22.618   4.199  1.00  0.00     0.235 C 
ENDBRANCH  16  17
ENDBRANCH  15  16
ENDBRANCH  14  15
ENDBRANCH  10  14
ENDBRANCH   4   8
BRANCH   1  23
HETATM   23  C   UNL     1      39.129 -15.004   2.008  1.00  0.00     0.280 C 
BRANCH  23  24
HETATM   24  C   UNL     1      38.895 -14.175   0.790  1.00  0.00     0.010 A 
HETATM   25  S   UNL     1      40.215 -13.411   0.002  1.00  0.00    -0.075 SA
HETATM   26  C   UNL     1      39.203 -12.742  -1.184  1.00  0.00     0.076 A 
HETATM   27  C   UNL     1      37.883 -13.068  -0.995  1.00  0.00     0.038 A 
HETATM   28  C   UNL     1      37.699 -13.887   0.159  1.00  0.00     0.019 A 
BRANCH  26  29
HETATM   29  N   UNL     1      39.855 -11.985  -2.126  1.00  0.00    -0.322 N 
HETATM   30  C   UNL     1      40.312 -12.504  -3.323  1.00  0.00     0.218 C 
HETATM   31  C   UNL     1      40.949 -11.458  -4.202  1.00  0.00     0.117 C 
HETATM   32  O   UNL     1      40.271 -13.683  -3.658  1.00  0.00    -0.274 OA
HETATM   33  H   UNL     1      40.006 -11.006  -1.916  1.00  0.00     0.169 HD
ENDBRANCH  26  29
ENDBRANCH  23  24
ENDBRANCH   1  23
TORSDOF 8
ENDMDL
MODEL 7
REMARK VINA RESULT:      -7.4      1.993      4.357
REMARK  8 active torsions:
REMARK  status: ('A' for Active; 'I' for Inactive)
REMARK       I    between atoms: C_2  and  N_3 
REMARK    1  A    between atoms: N_3  and  C_4 
REMARK    2  A    between atoms: C_6  and  C_7 
REMARK    3  A    between atoms: C_7  and  N_8 
REMARK    4  A    between atoms: C_11  and  C_12 
REMARK    5  A    between atoms: C_14  and  S_15 
REMARK    6  A    between atoms: S_15  and  C_16 
REMARK    7  A    between atoms: C_16  and  C_17 
REMARK    8  A    between atoms: C_17  and  N_18 
ROOT
HETATM    1  N   UNL     1      41.551 -13.114   2.012  1.00  0.00    -0.066 N 
HETATM    2  H   UNL     1      41.362 -14.001   1.524  1.00  0.00     0.280 HD
HETATM    3  C   UNL     1      42.555 -13.407   3.117  1.00  0.00     0.246 C 
HETATM    4  C   UNL     1      41.957 -14.392   4.131  1.00  0.00     0.064 C 
HETATM    5  C   UNL     1      40.615 -13.885   4.675  1.00  0.00     0.014 C 
HETATM    6  C   UNL     1      39.648 -13.584   3.535  1.00  0.00     0.028 C 
HETATM    7  C   UNL     1      40.236 -12.592   2.543  1.00  0.00     0.235 C 
ENDROOT
BRANCH   4   8
HETATM    8  C   UNL     1      42.924 -14.737   5.245  1.00  0.00     0.044 A 
HETATM    9  N   UNL     1      42.982 -16.042   5.580  1.00  0.00    -0.227 NA
HETATM   10  C   UNL     1      43.787 -16.395   6.599  1.00  0.00     0.188 A 
HETATM   11  N   UNL     1      44.542 -15.542   7.303  1.00  0.00    -0.235 NA
HETATM   12  C   UNL     1      44.477 -14.250   6.933  1.00  0.00     0.121 A 
HETATM   13  C   UNL     1      43.678 -13.788   5.909  1.00  0.00     0.047 A 
BRANCH  10  14
HETATM   14  S   UNL     1      43.825 -18.117   7.022  1.00  0.00    -0.088 SA
BRANCH  14  15
HETATM   15  C   UNL     1      43.536 -18.854   5.383  1.00  0.00     0.110 C 
BRANCH  15  16
HETATM   16  C   UNL     1      44.263 -20.199   5.303  1.00  0.00     0.245 C 
BRANCH  16  17
HETATM   17  N   UNL     1      44.808 -20.459   3.910  1.00  0.00    -0.070 N 
HETATM   18  H   UNL     1      45.803 -20.193   3.903  1.00  0.00     0.279 HD
HETATM   19  C   UNL     1      44.132 -19.606   2.840  1.00  0.00     0.235 C 
HETATM   20  C   UNL     1      43.401 -20.601   1.964  1.00  0.00     0.029 C 
HETATM   21  C   UNL     1      44.309 -21.812   1.991  1.00  0.00     0.029 C 
HETATM   22  C   UNL     1      44.704 -21.905   3.451  1.00  0.00     0.235 C 
ENDBRANCH  16  17
ENDBRANCH  15  16
ENDBRANCH  14  15
ENDBRANCH  10  14
ENDBRANCH   4   8
BRANCH   1  23
HETATM   23  C   UNL     1      42.104 -12.177   0.946  1.00  0.00     0.280 C 
BRANCH  23  24
HETATM   24  C   UNL     1      41.992 -12.731  -0.434  1.00  0.00     0.010 A 
HETATM   25  S   UNL     1      40.992 -14.093  -0.735  1.00  0.00    -0.075 SA
HETATM   26  C   UNL     1      41.368 -14.083  -2.389  1.00  0.00     0.076 A 
HETATM   27  C   UNL     1      42.246 -13.082  -2.725  1.00  0.00     0.038 A 
HETATM   28  C   UNL     1      42.622 -12.304  -1.589  1.00  0.00     0.019 A 
BRANCH  26  29
HETATM   29  N   UNL     1      40.750 -15.070  -3.118  1.00  0.00    -0.322 N 
HETATM   30  C   UNL     1      39.433 -14.988  -3.529  1.00  0.00     0.218 C 
HETATM   31  C   UNL     1      39.009 -16.175  -4.355  1.00  0.00     0.117 C 
HETATM   32  O   UNL     1      38.643 -14.095  -3.240  1.00  0.00    -0.274 OA
HETATM   33  H   UNL     1      41.296 -15.890  -3.352  1.00  0.00     0.169 HD
ENDBRANCH  26  29
ENDBRANCH  23  24
ENDBRANCH   1  23
TORSDOF 8
ENDMDL
MODEL 8
REMARK VINA RESULT:      -7.3      5.442      8.794
REMARK  8 active torsions:
REMARK  status: ('A' for Active; 'I' for Inactive)
REMARK       I    between atoms: C_2  and  N_3 
REMARK    1  A    between atoms: N_3  and  C_4 
REMARK    2  A    between atoms: C_6  and  C_7 
REMARK    3  A    between atoms: C_7  and  N_8 
REMARK    4  A    between atoms: C_11  and  C_12 
REMARK    5  A    between atoms: C_14  and  S_15 
REMARK    6  A    between atoms: S_15  and  C_16 
REMARK    7  A    between atoms: C_16  and  C_17 
REMARK    8  A    between atoms: C_17  and  N_18 
ROOT
HETATM    1  N   UNL     1      41.890 -14.237   4.825  1.00  0.00    -0.066 N 
HETATM    2  H   UNL     1      41.429 -14.898   5.467  1.00  0.00     0.280 HD
HETATM    3  C   UNL     1      42.020 -12.909   5.556  1.00  0.00     0.246 C 
HETATM    4  C   UNL     1      40.632 -12.352   5.899  1.00  0.00     0.064 C 
HETATM    5  C   UNL     1      39.748 -12.252   4.649  1.00  0.00     0.014 C 
HETATM    6  C   UNL     1      39.663 -13.599   3.937  1.00  0.00     0.028 C 
HETATM    7  C   UNL     1      41.040 -14.137   3.581  1.00  0.00     0.235 C 
ENDROOT
BRANCH   4   8
HETATM    8  C   UNL     1      40.701 -11.038   6.648  1.00  0.00     0.044 A 
HETATM    9  N   UNL     1      39.936 -10.960   7.756  1.00  0.00    -0.227 NA
HETATM   10  C   UNL     1      39.922  -9.795   8.429  1.00  0.00     0.188 A 
HETATM   11  N   UNL     1      40.619  -8.705   8.082  1.00  0.00    -0.235 NA
HETATM   12  C   UNL     1      41.387  -8.821   6.983  1.00  0.00     0.121 A 
HETATM   13  C   UNL     1      41.464  -9.967   6.221  1.00  0.00     0.047 A 
BRANCH  10  14
HETATM   14  S   UNL     1      38.892  -9.723   9.871  1.00  0.00    -0.088 SA
BRANCH  14  15
HETATM   15  C   UNL     1      40.163  -9.770  11.174  1.00  0.00     0.110 C 
BRANCH  15  16
HETATM   16  C   UNL     1      40.440 -11.227  11.552  1.00  0.00     0.245 C 
BRANCH  16  17
HETATM   17  N   UNL     1      41.929 -11.507  11.646  1.00  0.00    -0.070 N 
HETATM   18  H   UNL     1      42.066 -12.526  11.586  1.00  0.00     0.279 HD
HETATM   19  C   UNL     1      42.530 -11.074  12.981  1.00  0.00     0.235 C 
HETATM   20  C   UNL     1      43.488  -9.957  12.623  1.00  0.00     0.029 C 
HETATM   21  C   UNL     1      44.013 -10.377  11.268  1.00  0.00     0.029 C 
HETATM   22  C   UNL     1      42.764 -10.855  10.555  1.00  0.00     0.235 C 
ENDBRANCH  16  17
ENDBRANCH  15  16
ENDBRANCH  14  15
ENDBRANCH  10  14
ENDBRANCH   4   8
BRANCH   1  23
HETATM   23  C   UNL     1      43.239 -14.865   4.499  1.00  0.00     0.280 C 
BRANCH  23  24
HETATM   24  C   UNL     1      43.180 -16.351   4.387  1.00  0.00     0.010 A 
HETATM   25  S   UNL     1      43.464 -17.112   2.874  1.00  0.00    -0.075 SA
HETATM   26  C   UNL     1      43.248 -18.657   3.540  1.00  0.00     0.076 A 
HETATM   27  C   UNL     1      42.951 -18.618   4.880  1.00  0.00     0.038 A 
HETATM   28  C   UNL     1      42.896 -17.279   5.371  1.00  0.00     0.019 A 
BRANCH  26  29
HETATM   29  N   UNL     1      43.394 -19.687   2.643  1.00  0.00    -0.322 N 
HETATM   30  C   UNL     1      44.306 -20.711   2.816  1.00  0.00     0.218 C 
HETATM   31  C   UNL     1      44.235 -21.742   1.719  1.00  0.00     0.117 C 
HETATM   32  O   UNL     1      45.134 -20.793   3.718  1.00  0.00    -0.274 OA
HETATM   33  H   UNL     1      42.804 -19.678   1.821  1.00  0.00     0.169 HD
ENDBRANCH  26  29
ENDBRANCH  23  24
ENDBRANCH   1  23
TORSDOF 8
ENDMDL
MODEL 9
REMARK VINA RESULT:      -7.3      3.197      5.343
REMARK  8 active torsions:
REMARK  status: ('A' for Active; 'I' for Inactive)
REMARK       I    between atoms: C_2  and  N_3 
REMARK    1  A    between atoms: N_3  and  C_4 
REMARK    2  A    between atoms: C_6  and  C_7 
REMARK    3  A    between atoms: C_7  and  N_8 
REMARK    4  A    between atoms: C_11  and  C_12 
REMARK    5  A    between atoms: C_14  and  S_15 
REMARK    6  A    between atoms: S_15  and  C_16 
REMARK    7  A    between atoms: C_16  and  C_17 
REMARK    8  A    between atoms: C_17  and  N_18 
ROOT
HETATM    1  N   UNL     1      40.609 -15.460   1.913  1.00  0.00    -0.066 N 
HETATM    2  H   UNL     1      40.884 -14.547   1.526  1.00  0.00     0.280 HD
HETATM    3  C   UNL     1      41.182 -15.550   3.320  1.00  0.00     0.246 C 
HETATM    4  C   UNL     1      42.715 -15.491   3.275  1.00  0.00     0.064 C 
HETATM    5  C   UNL     1      43.286 -16.564   2.338  1.00  0.00     0.014 C 
HETATM    6  C   UNL     1      42.670 -16.451   0.948  1.00  0.00     0.028 C 
HETATM    7  C   UNL     1      41.152 -16.530   0.994  1.00  0.00     0.235 C 
ENDROOT
BRANCH   4   8
HETATM    8  C   UNL     1      43.340 -15.554   4.653  1.00  0.00     0.044 A 
HETATM    9  N   UNL     1      43.598 -16.794   5.118  1.00  0.00    -0.227 NA
HETATM   10  C   UNL     1      44.106 -16.907   6.359  1.00  0.00     0.188 A 
HETATM   11  N   UNL     1      44.379 -15.876   7.167  1.00  0.00    -0.235 NA
HETATM   12  C   UNL     1      44.128 -14.651   6.668  1.00  0.00     0.121 A 
HETATM   13  C   UNL     1      43.602 -14.430   5.413  1.00  0.00     0.047 A 
BRANCH  10  14
HETATM   14  S   UNL     1      44.416 -18.553   6.942  1.00  0.00    -0.088 SA
BRANCH  14  15
HETATM   15  C   UNL     1      43.693 -19.516   5.577  1.00  0.00     0.110 C 
BRANCH  15  16
HETATM   16  C   UNL     1      44.510 -20.797   5.380  1.00  0.00     0.245 C 
BRANCH  16  17
HETATM   17  N   UNL     1      44.965 -20.953   3.940  1.00  0.00    -0.070 N 
HETATM   18  H   UNL     1      45.995 -20.921   3.926  1.00  0.00     0.279 HD
HETATM   19  C   UNL     1      44.491 -19.813   3.042  1.00  0.00     0.235 C 
HETATM   20  C   UNL     1      43.541 -20.469   2.062  1.00  0.00     0.029 C 
HETATM   21  C   UNL     1      44.146 -21.843   1.867  1.00  0.00     0.029 C 
HETATM   22  C   UNL     1      44.526 -22.249   3.276  1.00  0.00     0.235 C 
ENDBRANCH  16  17
ENDBRANCH  15  16
ENDBRANCH  14  15
ENDBRANCH  10  14
ENDBRANCH   4   8
BRANCH   1  23
HETATM   23  C   UNL     1      39.086 -15.466   1.895  1.00  0.00     0.280 C 
BRANCH  23  24
HETATM   24  C   UNL     1      38.503 -14.175   1.428  1.00  0.00     0.010 A 
HETATM   25  S   UNL     1      39.317 -12.697   1.748  1.00  0.00    -0.075 SA
HETATM   26  C   UNL     1      38.123 -11.793   0.950  1.00  0.00     0.076 A 
HETATM   27  C   UNL     1      37.111 -12.578   0.455  1.00  0.00     0.038 A 
HETATM   28  C   UNL     1      37.321 -13.960   0.744  1.00  0.00     0.019 A 
BRANCH  26  29
HETATM   29  N   UNL     1      38.352 -10.439   0.934  1.00  0.00    -0.322 N 
HETATM   30  C   UNL     1      37.743  -9.564   1.814  1.00  0.00     0.218 C 
HETATM   31  C   UNL     1      38.198  -8.140   1.622  1.00  0.00     0.117 C 
HETATM   32  O   UNL     1      36.887  -9.856   2.642  1.00  0.00    -0.274 OA
HETATM   33  H   UNL     1      38.993 -10.081   0.238  1.00  0.00     0.169 HD
ENDBRANCH  26  29
ENDBRANCH  23  24
ENDBRANCH   1  23
TORSDOF 8
ENDMDL
MODEL 10
REMARK VINA RESULT:      -7.2      3.504      5.254
REMARK  8 active torsions:
REMARK  status: ('A' for Active; 'I' for Inactive)
REMARK       I    between atoms: C_2  and  N_3 
REMARK    1  A    between atoms: N_3  and  C_4 
REMARK    2  A    between atoms: C_6  and  C_7 
REMARK    3  A    between atoms: C_7  and  N_8 
REMARK    4  A    between atoms: C_11  and  C_12 
REMARK    5  A    between atoms: C_14  and  S_15 
REMARK    6  A    between atoms: S_15  and  C_16 
REMARK    7  A    between atoms: C_16  and  C_17 
REMARK    8  A    between atoms: C_17  and  N_18 
ROOT
HETATM    1  N   UNL     1      41.768 -17.028   2.231  1.00  0.00    -0.066 N 
HETATM    2  H   UNL     1      42.423 -16.446   1.690  1.00  0.00     0.280 HD
HETATM    3  C   UNL     1      41.893 -16.618   3.691  1.00  0.00     0.246 C 
HETATM    4  C   UNL     1      43.313 -16.895   4.202  1.00  0.00     0.064 C 
HETATM    5  C   UNL     1      43.714 -18.357   3.965  1.00  0.00     0.014 C 
HETATM    6  C   UNL     1      43.554 -18.731   2.495  1.00  0.00     0.028 C 
HETATM    7  C   UNL     1      42.140 -18.474   1.998  1.00  0.00     0.235 C 
ENDROOT
BRANCH   4   8
HETATM    8  C   UNL     1      43.501 -16.485   5.647  1.00  0.00     0.044 A 
HETATM    9  N   UNL     1      44.159 -15.323   5.841  1.00  0.00    -0.227 NA
HETATM   10  C   UNL     1      44.397 -14.939   7.108  1.00  0.00     0.188 A 
HETATM   11  N   UNL     1      44.024 -15.626   8.196  1.00  0.00    -0.235 NA
HETATM   12  C   UNL     1      43.353 -16.770   7.970  1.00  0.00     0.121 A 
HETATM   13  C   UNL     1      43.066 -17.253   6.711  1.00  0.00     0.047 A 
BRANCH  10  14
HETATM   14  S   UNL     1      45.280 -13.416   7.324  1.00  0.00    -0.088 SA
BRANCH  14  15
HETATM   15  C   UNL     1      44.685 -12.935   8.976  1.00  0.00     0.110 C 
BRANCH  15  16
HETATM   16  C   UNL     1      43.783 -11.704   8.845  1.00  0.00     0.245 C 
BRANCH  16  17
HETATM   17  N   UNL     1      42.981 -11.462  10.111  1.00  0.00    -0.070 N 
HETATM   18  H   UNL     1      42.083 -11.960  10.020  1.00  0.00     0.279 HD
HETATM   19  C   UNL     1      42.632  -9.991  10.320  1.00  0.00     0.235 C 
HETATM   20  C   UNL     1      43.384  -9.594  11.573  1.00  0.00     0.029 C 
HETATM   21  C   UNL     1      43.353 -10.859  12.404  1.00  0.00     0.029 C 
HETATM   22  C   UNL     1      43.656 -11.940  11.388  1.00  0.00     0.235 C 
ENDBRANCH  16  17
ENDBRANCH  15  16
ENDBRANCH  14  15
ENDBRANCH  10  14
ENDBRANCH   4   8
BRANCH   1  23
HETATM   23  C   UNL     1      40.391 -16.732   1.651  1.00  0.00     0.280 C 
BRANCH  23  24
HETATM   24  C   UNL     1      40.295 -15.377   1.036  1.00  0.00     0.010 A 
HETATM   25  S   UNL     1      41.483 -14.857  -0.090  1.00  0.00    -0.075 SA
HETATM   26  C   UNL     1      40.714 -13.361  -0.306  1.00  0.00     0.076 A 
HETATM   27  C   UNL     1      39.584 -13.232   0.463  1.00  0.00     0.038 A 
HETATM   28  C   UNL     1      39.347 -14.395   1.255  1.00  0.00     0.019 A 
BRANCH  26  29
HETATM   29  N   UNL     1      41.340 -12.524  -1.198  1.00  0.00    -0.322 N 
HETATM   30  C   UNL     1      42.383 -11.690  -0.840  1.00  0.00     0.218 C 
HETATM   31  C   UNL     1      42.929 -10.911  -2.009  1.00  0.00     0.117 C 
HETATM   32  O   UNL     1      42.819 -11.529   0.296  1.00  0.00    -0.274 OA
HETATM   33  H   UNL     1      41.008 -12.525  -2.153  1.00  0.00     0.169 HD
ENDBRANCH  26  29
ENDBRANCH  23  24
ENDBRANCH   1  23
TORSDOF 8
ENDMDL
