MODEL 1
REMARK VINA RESULT:      -8.9      0.000      0.000
REMARK  5 active torsions:
REMARK  status: ('A' for Active; 'I' for Inactive)
REMARK    1  A    between atoms: C_6  and  N_7 
REMARK       I    between atoms: N_7  and  C_8 
REMARK    2  A    between atoms: C_8  and  C_9 
REMARK    3  A    between atoms: C_9  and  C_10 
REMARK    4  A    between atoms: C_12  and  O_13 
REMARK    5  A    between atoms: C_19  and  C_20 
ROOT
HETATM    1  C   UNL     1      44.075 -22.001   1.391  1.00  0.00     0.073 C 
HETATM    2  C   UNL     1      44.347 -21.540   2.776  1.00  0.00     0.065 A 
HETATM    3  N   UNL     1      44.921 -22.370   3.656  1.00  0.00    -0.177 NA
HETATM    4  N   UNL     1      45.023 -21.634   4.776  1.00  0.00    -0.262 N 
HETATM    5  H   UNL     1      45.456 -22.034   5.603  1.00  0.00     0.191 HD
HETATM    6  C   UNL     1      44.496 -20.371   4.661  1.00  0.00     0.137 A 
HETATM    7  C   UNL     1      44.077 -20.264   3.349  1.00  0.00     0.046 A 
ENDROOT
BRANCH   6   8
HETATM    8  N   UNL     1      44.448 -19.460   5.700  1.00  0.00    -0.311 N 
HETATM    9  C   UNL     1      43.918 -19.783   6.940  1.00  0.00     0.227 C 
HETATM   10  O   UNL     1      43.494 -20.898   7.242  1.00  0.00    -0.273 OA
HETATM   11  H   UNL     1      44.861 -18.546   5.551  1.00  0.00     0.170 HD
BRANCH   9  12
HETATM   12  C   UNL     1      43.837 -18.604   7.889  1.00  0.00     0.141 C 
BRANCH  12  13
HETATM   13  C   UNL     1      43.396 -17.271   7.322  1.00  0.00    -0.047 A 
HETATM   14  C   UNL     1      44.244 -16.158   7.178  1.00  0.00     0.044 A 
HETATM   15  C   UNL     1      43.798 -14.993   6.545  1.00  0.00     0.068 A 
HETATM   16  C   UNL     1      42.485 -14.921   6.080  1.00  0.00     0.037 A 
HETATM   17  C   UNL     1      41.626 -16.008   6.222  1.00  0.00     0.003 A 
HETATM   18  C   UNL     1      42.082 -17.177   6.828  1.00  0.00     0.007 A 
BRANCH  15  19
HETATM   19  O   UNL     1      44.543 -13.867   6.323  1.00  0.00    -0.356 OA
HETATM   20  C   UNL     1      45.330 -13.391   7.407  1.00  0.00     0.210 C 
ENDBRANCH  15  19
ENDBRANCH  12  13
ENDBRANCH   9  12
ENDBRANCH   6   8
BRANCH   7  21
HETATM   21  C   UNL     1      43.563 -19.053   2.743  1.00  0.00    -0.020 A 
HETATM   22  C   UNL     1      42.412 -18.453   3.270  1.00  0.00     0.014 A 
HETATM   23  C   UNL     1      41.883 -17.302   2.682  1.00  0.00     0.020 A 
HETATM   24  C   UNL     1      42.505 -16.752   1.565  1.00  0.00     0.011 A 
HETATM   25 BR   UNL     1      41.783 -15.201   0.760  1.00  0.00    -0.051 Br
HETATM   26  C   UNL     1      43.655 -17.334   1.035  1.00  0.00     0.020 A 
HETATM   27  C   UNL     1      44.188 -18.484   1.627  1.00  0.00     0.014 A 
ENDBRANCH   7  21
TORSDOF 5
ENDMDL
MODEL 2
REMARK VINA RESULT:      -8.7      1.224      1.892
REMARK  5 active torsions:
REMARK  status: ('A' for Active; 'I' for Inactive)
REMARK    1  A    between atoms: C_6  and  N_7 
REMARK       I    between atoms: N_7  and  C_8 
REMARK    2  A    between atoms: C_8  and  C_9 
REMARK    3  A    between atoms: C_9  and  C_10 
REMARK    4  A    between atoms: C_12  and  O_13 
REMARK    5  A    between atoms: C_19  and  C_20 
ROOT
HETATM    1  C   UNL     1      44.067 -21.893   1.710  1.00  0.00     0.073 C 
HETATM    2  C   UNL     1      44.356 -21.241   3.013  1.00  0.00     0.065 A 
HETATM    3  N   UNL     1      44.994 -21.921   3.973  1.00  0.00    -0.177 NA
HETATM    4  N   UNL     1      45.092 -21.040   4.983  1.00  0.00    -0.262 N 
HETATM    5  H   UNL     1      45.568 -21.307   5.840  1.00  0.00     0.191 HD
HETATM    6  C   UNL     1      44.500 -19.829   4.723  1.00  0.00     0.137 A 
HETATM    7  C   UNL     1      44.039 -19.915   3.424  1.00  0.00     0.046 A 
ENDROOT
BRANCH   6   8
HETATM    8  N   UNL     1      44.436 -18.791   5.635  1.00  0.00    -0.311 N 
HETATM    9  C   UNL     1      43.967 -18.973   6.927  1.00  0.00     0.227 C 
HETATM   10  O   UNL     1      43.614 -20.059   7.388  1.00  0.00    -0.273 OA
HETATM   11  H   UNL     1      44.793 -17.886   5.352  1.00  0.00     0.170 HD
BRANCH   9  12
HETATM   12  C   UNL     1      43.852 -17.684   7.717  1.00  0.00     0.141 C 
BRANCH  12  13
HETATM   13  C   UNL     1      43.335 -16.458   6.994  1.00  0.00    -0.047 A 
HETATM   14  C   UNL     1      42.043 -16.353   6.449  1.00  0.00     0.044 A 
HETATM   15  C   UNL     1      41.595 -15.151   5.891  1.00  0.00     0.068 A 
HETATM   16  C   UNL     1      42.451 -14.051   5.846  1.00  0.00     0.037 A 
HETATM   17  C   UNL     1      43.737 -14.136   6.373  1.00  0.00     0.003 A 
HETATM   18  C   UNL     1      44.171 -15.328   6.952  1.00  0.00     0.007 A 
BRANCH  15  19
HETATM   19  O   UNL     1      40.353 -14.927   5.362  1.00  0.00    -0.356 OA
HETATM   20  C   UNL     1      40.293 -14.198   4.143  1.00  0.00     0.210 C 
ENDBRANCH  15  19
ENDBRANCH  12  13
ENDBRANCH   9  12
ENDBRANCH   6   8
BRANCH   7  21
HETATM   21  C   UNL     1      43.448 -18.819   2.683  1.00  0.00    -0.020 A 
HETATM   22  C   UNL     1      42.238 -18.264   3.119  1.00  0.00     0.014 A 
HETATM   23  C   UNL     1      41.637 -17.228   2.402  1.00  0.00     0.020 A 
HETATM   24  C   UNL     1      42.247 -16.745   1.247  1.00  0.00     0.011 A 
HETATM   25 BR   UNL     1      41.428 -15.350   0.268  1.00  0.00    -0.051 Br
HETATM   26  C   UNL     1      43.455 -17.283   0.806  1.00  0.00     0.020 A 
HETATM   27  C   UNL     1      44.059 -18.318   1.526  1.00  0.00     0.014 A 
ENDBRANCH   7  21
TORSDOF 5
ENDMDL
MODEL 3
REMARK VINA RESULT:      -8.6      0.903      1.501
REMARK  5 active torsions:
REMARK  status: ('A' for Active; 'I' for Inactive)
REMARK    1  A    between atoms: C_6  and  N_7 
REMARK       I    between atoms: N_7  and  C_8 
REMARK    2  A    between atoms: C_8  and  C_9 
REMARK    3  A    between atoms: C_9  and  C_10 
REMARK    4  A    between atoms: C_12  and  O_13 
REMARK    5  A    between atoms: C_19  and  C_20 
ROOT
HETATM    1  C   UNL     1      44.188 -21.978   1.671  1.00  0.00     0.073 C 
HETATM    2  C   UNL     1      44.411 -21.314   2.980  1.00  0.00     0.065 A 
HETATM    3  N   UNL     1      45.057 -21.963   3.956  1.00  0.00    -0.177 NA
HETATM    4  N   UNL     1      45.087 -21.079   4.968  1.00  0.00    -0.262 N 
HETATM    5  H   UNL     1      45.554 -21.324   5.837  1.00  0.00     0.191 HD
HETATM    6  C   UNL     1      44.445 -19.898   4.693  1.00  0.00     0.137 A 
HETATM    7  C   UNL     1      44.021 -20.005   3.382  1.00  0.00     0.046 A 
ENDROOT
BRANCH   6   8
HETATM    8  N   UNL     1      44.308 -18.865   5.603  1.00  0.00    -0.311 N 
HETATM    9  C   UNL     1      43.877 -19.080   6.902  1.00  0.00     0.227 C 
HETATM   10  O   UNL     1      43.624 -20.190   7.373  1.00  0.00    -0.273 OA
HETATM   11  H   UNL     1      44.583 -17.934   5.311  1.00  0.00     0.170 HD
BRANCH   9  12
HETATM   12  C   UNL     1      43.666 -17.802   7.690  1.00  0.00     0.141 C 
BRANCH  12  13
HETATM   13  C   UNL     1      42.858 -16.699   7.041  1.00  0.00    -0.047 A 
HETATM   14  C   UNL     1      43.404 -15.483   6.593  1.00  0.00     0.044 A 
HETATM   15  C   UNL     1      42.619 -14.553   5.903  1.00  0.00     0.068 A 
HETATM   16  C   UNL     1      41.267 -14.821   5.685  1.00  0.00     0.037 A 
HETATM   17  C   UNL     1      40.705 -16.015   6.128  1.00  0.00     0.003 A 
HETATM   18  C   UNL     1      41.497 -16.951   6.791  1.00  0.00     0.007 A 
BRANCH  15  19
HETATM   19  O   UNL     1      43.051 -13.357   5.398  1.00  0.00    -0.356 OA
HETATM   20  C   UNL     1      42.760 -13.091   4.032  1.00  0.00     0.210 C 
ENDBRANCH  15  19
ENDBRANCH  12  13
ENDBRANCH   9  12
ENDBRANCH   6   8
BRANCH   7  21
HETATM   21  C   UNL     1      43.398 -18.938   2.627  1.00  0.00    -0.020 A 
HETATM   22  C   UNL     1      44.055 -18.409   1.508  1.00  0.00     0.014 A 
HETATM   23  C   UNL     1      43.485 -17.360   0.784  1.00  0.00     0.020 A 
HETATM   24  C   UNL     1      42.257 -16.838   1.180  1.00  0.00     0.011 A 
HETATM   25 BR   UNL     1      41.490 -15.409   0.208  1.00  0.00    -0.051 Br
HETATM   26  C   UNL     1      41.588 -17.359   2.287  1.00  0.00     0.020 A 
HETATM   27  C   UNL     1      42.157 -18.412   3.009  1.00  0.00     0.014 A 
ENDBRANCH   7  21
TORSDOF 5
ENDMDL
MODEL 4
REMARK VINA RESULT:      -8.0      3.734      6.809
REMARK  5 active torsions:
REMARK  status: ('A' for Active; 'I' for Inactive)
REMARK    1  A    between atoms: C_6  and  N_7 
REMARK       I    between atoms: N_7  and  C_8 
REMARK    2  A    between atoms: C_8  and  C_9 
REMARK    3  A    between atoms: C_9  and  C_10 
REMARK    4  A    between atoms: C_12  and  O_13 
REMARK    5  A    between atoms: C_19  and  C_20 
ROOT
HETATM    1  C   UNL     1      39.005 -11.037   4.287  1.00  0.00     0.073 C 
HETATM    2  C   UNL     1      39.317 -12.302   4.998  1.00  0.00     0.065 A 
HETATM    3  N   UNL     1      39.102 -12.398   6.316  1.00  0.00    -0.177 NA
HETATM    4  N   UNL     1      39.477 -13.653   6.615  1.00  0.00    -0.262 N 
HETATM    5  H   UNL     1      39.387 -13.992   7.569  1.00  0.00     0.191 HD
HETATM    6  C   UNL     1      39.967 -14.357   5.543  1.00  0.00     0.137 A 
HETATM    7  C   UNL     1      39.842 -13.511   4.458  1.00  0.00     0.046 A 
ENDROOT
BRANCH   6   8
HETATM    8  N   UNL     1      40.456 -15.648   5.627  1.00  0.00    -0.311 N 
HETATM    9  C   UNL     1      41.814 -15.919   5.685  1.00  0.00     0.227 C 
HETATM   10  O   UNL     1      42.692 -15.055   5.713  1.00  0.00    -0.273 OA
HETATM   11  H   UNL     1      39.788 -16.406   5.698  1.00  0.00     0.170 HD
BRANCH   9  12
HETATM   12  C   UNL     1      42.139 -17.399   5.636  1.00  0.00     0.141 C 
BRANCH  12  13
HETATM   13  C   UNL     1      42.662 -17.963   4.332  1.00  0.00    -0.047 A 
HETATM   14  C   UNL     1      43.603 -19.004   4.247  1.00  0.00     0.044 A 
HETATM   15  C   UNL     1      43.959 -19.551   3.009  1.00  0.00     0.068 A 
HETATM   16  C   UNL     1      43.399 -19.034   1.841  1.00  0.00     0.037 A 
HETATM   17  C   UNL     1      42.472 -17.997   1.903  1.00  0.00     0.003 A 
HETATM   18  C   UNL     1      42.099 -17.473   3.140  1.00  0.00     0.007 A 
BRANCH  15  19
HETATM   19  O   UNL     1      44.837 -20.581   2.812  1.00  0.00    -0.356 OA
HETATM   20  C   UNL     1      44.341 -21.731   2.137  1.00  0.00     0.210 C 
ENDBRANCH  15  19
ENDBRANCH  12  13
ENDBRANCH   9  12
ENDBRANCH   6   8
BRANCH   7  21
HETATM   21  C   UNL     1      40.126 -13.880   3.086  1.00  0.00    -0.020 A 
HETATM   22  C   UNL     1      39.097 -14.387   2.281  1.00  0.00     0.014 A 
HETATM   23  C   UNL     1      39.356 -14.777   0.966  1.00  0.00     0.020 A 
HETATM   24  C   UNL     1      40.647 -14.661   0.455  1.00  0.00     0.011 A 
HETATM   25 BR   UNL     1      41.002 -15.200  -1.322  1.00  0.00    -0.051 Br
HETATM   26  C   UNL     1      41.678 -14.151   1.242  1.00  0.00     0.020 A 
HETATM   27  C   UNL     1      41.417 -13.756   2.558  1.00  0.00     0.014 A 
ENDBRANCH   7  21
TORSDOF 5
ENDMDL
MODEL 5
REMARK VINA RESULT:      -7.4      3.975      6.978
REMARK  5 active torsions:
REMARK  status: ('A' for Active; 'I' for Inactive)
REMARK    1  A    between atoms: C_6  and  N_7 
REMARK       I    between atoms: N_7  and  C_8 
REMARK    2  A    between atoms: C_8  and  C_9 
REMARK    3  A    between atoms: C_9  and  C_10 
REMARK    4  A    between atoms: C_12  and  O_13 
REMARK    5  A    between atoms: C_19  and  C_20 
ROOT
HETATM    1  C   UNL     1      39.044 -11.635   3.911  1.00  0.00     0.073 C 
HETATM    2  C   UNL     1      39.497 -13.043   4.040  1.00  0.00     0.065 A 
HETATM    3  N   UNL     1      39.751 -13.554   5.251  1.00  0.00    -0.177 NA
HETATM    4  N   UNL     1      40.119 -14.821   4.997  1.00  0.00    -0.262 N 
HETATM    5  H   UNL     1      40.345 -15.444   5.768  1.00  0.00     0.191 HD
HETATM    6  C   UNL     1      40.153 -15.133   3.660  1.00  0.00     0.137 A 
HETATM    7  C   UNL     1      39.715 -13.998   3.006  1.00  0.00     0.046 A 
ENDROOT
BRANCH   6   8
HETATM    8  N   UNL     1      40.550 -16.362   3.165  1.00  0.00    -0.311 N 
HETATM    9  C   UNL     1      41.815 -16.570   2.637  1.00  0.00     0.227 C 
HETATM   10  O   UNL     1      42.699 -15.714   2.602  1.00  0.00    -0.273 OA
HETATM   11  H   UNL     1      39.903 -17.138   3.243  1.00  0.00     0.170 HD
BRANCH   9  12
HETATM   12  C   UNL     1      41.998 -17.945   2.028  1.00  0.00     0.141 C 
BRANCH  12  13
HETATM   13  C   UNL     1      42.989 -18.882   2.687  1.00  0.00    -0.047 A 
HETATM   14  C   UNL     1      43.354 -18.815   4.043  1.00  0.00     0.044 A 
HETATM   15  C   UNL     1      44.192 -19.780   4.610  1.00  0.00     0.068 A 
HETATM   16  C   UNL     1      44.701 -20.805   3.812  1.00  0.00     0.037 A 
HETATM   17  C   UNL     1      44.360 -20.885   2.465  1.00  0.00     0.003 A 
HETATM   18  C   UNL     1      43.502 -19.936   1.910  1.00  0.00     0.007 A 
BRANCH  15  19
HETATM   19  O   UNL     1      44.585 -19.830   5.920  1.00  0.00    -0.356 OA
HETATM   20  C   UNL     1      43.806 -20.633   6.797  1.00  0.00     0.210 C 
ENDBRANCH  15  19
ENDBRANCH  12  13
ENDBRANCH   9  12
ENDBRANCH   6   8
BRANCH   7  21
HETATM   21  C   UNL     1      39.474 -13.908   1.580  1.00  0.00    -0.020 A 
HETATM   22  C   UNL     1      40.545 -13.646   0.715  1.00  0.00     0.014 A 
HETATM   23  C   UNL     1      40.329 -13.525  -0.659  1.00  0.00     0.020 A 
HETATM   24  C   UNL     1      39.041 -13.666  -1.169  1.00  0.00     0.011 A 
HETATM   25 BR   UNL     1      38.745 -13.490  -3.028  1.00  0.00    -0.051 Br
HETATM   26  C   UNL     1      37.968 -13.934  -0.320  1.00  0.00     0.020 A 
HETATM   27  C   UNL     1      38.185 -14.060   1.055  1.00  0.00     0.014 A 
ENDBRANCH   7  21
TORSDOF 5
ENDMDL
MODEL 6
REMARK VINA RESULT:      -7.3      4.385      6.414
REMARK  5 active torsions:
REMARK  status: ('A' for Active; 'I' for Inactive)
REMARK    1  A    between atoms: C_6  and  N_7 
REMARK       I    between atoms: N_7  and  C_8 
REMARK    2  A    between atoms: C_8  and  C_9 
REMARK    3  A    between atoms: C_9  and  C_10 
REMARK    4  A    between atoms: C_12  and  O_13 
REMARK    5  A    between atoms: C_19  and  C_20 
ROOT
HETATM    1  C   UNL     1      38.831 -13.135  -1.101  1.00  0.00     0.073 C 
HETATM    2  C   UNL     1      39.908 -14.154  -1.028  1.00  0.00     0.065 A 
HETATM    3  N   UNL     1      40.295 -14.797  -2.136  1.00  0.00    -0.177 NA
HETATM    4  N   UNL     1      41.271 -15.617  -1.711  1.00  0.00    -0.262 N 
HETATM    5  H   UNL     1      41.757 -16.210  -2.378  1.00  0.00     0.191 HD
HETATM    6  C   UNL     1      41.497 -15.557  -0.358  1.00  0.00     0.137 A 
HETATM    7  C   UNL     1      40.644 -14.579   0.116  1.00  0.00     0.046 A 
ENDROOT
BRANCH   6   8
HETATM    8  N   UNL     1      42.418 -16.347   0.305  1.00  0.00    -0.311 N 
HETATM    9  C   UNL     1      42.041 -17.456   1.045  1.00  0.00     0.227 C 
HETATM   10  O   UNL     1      40.882 -17.861   1.143  1.00  0.00    -0.273 OA
HETATM   11  H   UNL     1      43.401 -16.125   0.196  1.00  0.00     0.170 HD
BRANCH   9  12
HETATM   12  C   UNL     1      43.187 -18.100   1.800  1.00  0.00     0.141 C 
BRANCH  12  13
HETATM   13  C   UNL     1      43.351 -17.752   3.264  1.00  0.00    -0.047 A 
HETATM   14  C   UNL     1      43.871 -18.633   4.229  1.00  0.00     0.044 A 
HETATM   15  C   UNL     1      44.097 -18.207   5.542  1.00  0.00     0.068 A 
HETATM   16  C   UNL     1      43.770 -16.902   5.910  1.00  0.00     0.037 A 
HETATM   17  C   UNL     1      43.245 -16.017   4.972  1.00  0.00     0.003 A 
HETATM   18  C   UNL     1      43.047 -16.436   3.657  1.00  0.00     0.007 A 
BRANCH  15  19
HETATM   19  O   UNL     1      44.625 -18.967   6.550  1.00  0.00    -0.356 OA
HETATM   20  C   UNL     1      44.222 -18.650   7.876  1.00  0.00     0.210 C 
ENDBRANCH  15  19
ENDBRANCH  12  13
ENDBRANCH   9  12
ENDBRANCH   6   8
BRANCH   7  21
HETATM   21  C   UNL     1      40.624 -14.090   1.479  1.00  0.00    -0.020 A 
HETATM   22  C   UNL     1      41.404 -12.977   1.824  1.00  0.00     0.014 A 
HETATM   23  C   UNL     1      41.423 -12.509   3.139  1.00  0.00     0.020 A 
HETATM   24  C   UNL     1      40.662 -13.154   4.111  1.00  0.00     0.011 A 
HETATM   25 BR   UNL     1      40.696 -12.528   5.894  1.00  0.00    -0.051 Br
HETATM   26  C   UNL     1      39.877 -14.257   3.780  1.00  0.00     0.020 A 
HETATM   27  C   UNL     1      39.854 -14.723   2.462  1.00  0.00     0.014 A 
ENDBRANCH   7  21
TORSDOF 5
ENDMDL
MODEL 7
REMARK VINA RESULT:      -7.3      3.967      6.782
REMARK  5 active torsions:
REMARK  status: ('A' for Active; 'I' for Inactive)
REMARK    1  A    between atoms: C_6  and  N_7 
REMARK       I    between atoms: N_7  and  C_8 
REMARK    2  A    between atoms: C_8  and  C_9 
REMARK    3  A    between atoms: C_9  and  C_10 
REMARK    4  A    between atoms: C_12  and  O_13 
REMARK    5  A    between atoms: C_19  and  C_20 
ROOT
HETATM    1  C   UNL     1      39.590 -10.607   4.387  1.00  0.00     0.073 C 
HETATM    2  C   UNL     1      39.574 -11.909   5.100  1.00  0.00     0.065 A 
HETATM    3  N   UNL     1      39.259 -11.955   6.401  1.00  0.00    -0.177 NA
HETATM    4  N   UNL     1      39.333 -13.261   6.706  1.00  0.00    -0.262 N 
HETATM    5  H   UNL     1      39.111 -13.571   7.648  1.00  0.00     0.191 HD
HETATM    6  C   UNL     1      39.727 -14.056   5.658  1.00  0.00     0.137 A 
HETATM    7  C   UNL     1      39.858 -13.204   4.578  1.00  0.00     0.046 A 
ENDROOT
BRANCH   6   8
HETATM    8  N   UNL     1      39.918 -15.422   5.757  1.00  0.00    -0.311 N 
HETATM    9  C   UNL     1      41.178 -15.982   5.899  1.00  0.00     0.227 C 
HETATM   10  O   UNL     1      42.217 -15.330   5.996  1.00  0.00    -0.273 OA
HETATM   11  H   UNL     1      39.098 -16.017   5.774  1.00  0.00     0.170 HD
BRANCH   9  12
HETATM   12  C   UNL     1      41.176 -17.497   5.851  1.00  0.00     0.141 C 
BRANCH  12  13
HETATM   13  C   UNL     1      42.282 -18.179   5.073  1.00  0.00    -0.047 A 
HETATM   14  C   UNL     1      42.479 -18.028   3.689  1.00  0.00     0.044 A 
HETATM   15  C   UNL     1      43.586 -18.600   3.055  1.00  0.00     0.068 A 
HETATM   16  C   UNL     1      44.490 -19.359   3.798  1.00  0.00     0.037 A 
HETATM   17  C   UNL     1      44.309 -19.529   5.168  1.00  0.00     0.003 A 
HETATM   18  C   UNL     1      43.219 -18.934   5.802  1.00  0.00     0.007 A 
BRANCH  15  19
HETATM   19  O   UNL     1      43.892 -18.492   1.726  1.00  0.00    -0.356 OA
HETATM   20  C   UNL     1      43.212 -17.484   0.987  1.00  0.00     0.210 C 
ENDBRANCH  15  19
ENDBRANCH  12  13
ENDBRANCH   9  12
ENDBRANCH   6   8
BRANCH   7  21
HETATM   21  C   UNL     1      40.142 -13.628   3.223  1.00  0.00    -0.020 A 
HETATM   22  C   UNL     1      41.473 -13.734   2.797  1.00  0.00     0.014 A 
HETATM   23  C   UNL     1      41.767 -14.110   1.485  1.00  0.00     0.020 A 
HETATM   24  C   UNL     1      40.729 -14.382   0.598  1.00  0.00     0.011 A 
HETATM   25 BR   UNL     1      41.126 -14.880  -1.182  1.00  0.00    -0.051 Br
HETATM   26  C   UNL     1      39.401 -14.287   1.010  1.00  0.00     0.020 A 
HETATM   27  C   UNL     1      39.106 -13.914   2.324  1.00  0.00     0.014 A 
ENDBRANCH   7  21
TORSDOF 5
ENDMDL
MODEL 8
REMARK VINA RESULT:      -7.3      3.405      5.955
REMARK  5 active torsions:
REMARK  status: ('A' for Active; 'I' for Inactive)
REMARK    1  A    between atoms: C_6  and  N_7 
REMARK       I    between atoms: N_7  and  C_8 
REMARK    2  A    between atoms: C_8  and  C_9 
REMARK    3  A    between atoms: C_9  and  C_10 
REMARK    4  A    between atoms: C_12  and  O_13 
REMARK    5  A    between atoms: C_19  and  C_20 
ROOT
HETATM    1  C   UNL     1      44.961 -18.208   7.039  1.00  0.00     0.073 C 
HETATM    2  C   UNL     1      44.507 -18.529   5.662  1.00  0.00     0.065 A 
HETATM    3  N   UNL     1      45.009 -19.594   5.025  1.00  0.00    -0.177 NA
HETATM    4  N   UNL     1      44.381 -19.584   3.836  1.00  0.00    -0.262 N 
HETATM    5  H   UNL     1      44.571 -20.320   3.161  1.00  0.00     0.191 HD
HETATM    6  C   UNL     1      43.524 -18.526   3.669  1.00  0.00     0.137 A 
HETATM    7  C   UNL     1      43.556 -17.832   4.863  1.00  0.00     0.046 A 
ENDROOT
BRANCH   6   8
HETATM    8  N   UNL     1      42.811 -18.288   2.507  1.00  0.00    -0.311 N 
HETATM    9  C   UNL     1      43.140 -17.260   1.638  1.00  0.00     0.227 C 
HETATM   10  O   UNL     1      44.102 -16.508   1.788  1.00  0.00    -0.273 OA
HETATM   11  H   UNL     1      42.058 -18.925   2.273  1.00  0.00     0.170 HD
BRANCH   9  12
HETATM   12  C   UNL     1      42.152 -17.090   0.501  1.00  0.00     0.141 C 
BRANCH  12  13
HETATM   13  C   UNL     1      41.088 -16.023   0.645  1.00  0.00    -0.047 A 
HETATM   14  C   UNL     1      40.815 -15.046  -0.329  1.00  0.00     0.044 A 
HETATM   15  C   UNL     1      39.744 -14.159  -0.176  1.00  0.00     0.068 A 
HETATM   16  C   UNL     1      38.956 -14.222   0.973  1.00  0.00     0.037 A 
HETATM   17  C   UNL     1      39.214 -15.175   1.954  1.00  0.00     0.003 A 
HETATM   18  C   UNL     1      40.265 -16.075   1.786  1.00  0.00     0.007 A 
BRANCH  15  19
HETATM   19  O   UNL     1      39.370 -13.194  -1.071  1.00  0.00    -0.356 OA
HETATM   20  C   UNL     1      39.772 -13.377  -2.423  1.00  0.00     0.210 C 
ENDBRANCH  15  19
ENDBRANCH  12  13
ENDBRANCH   9  12
ENDBRANCH   6   8
BRANCH   7  21
HETATM   21  C   UNL     1      42.708 -16.702   5.184  1.00  0.00    -0.020 A 
HETATM   22  C   UNL     1      41.396 -16.926   5.621  1.00  0.00     0.014 A 
HETATM   23  C   UNL     1      40.553 -15.850   5.906  1.00  0.00     0.020 A 
HETATM   24  C   UNL     1      41.024 -14.548   5.754  1.00  0.00     0.011 A 
HETATM   25 BR   UNL     1      39.880 -13.090   6.129  1.00  0.00    -0.051 Br
HETATM   26  C   UNL     1      42.330 -14.311   5.327  1.00  0.00     0.020 A 
HETATM   27  C   UNL     1      43.175 -15.389   5.046  1.00  0.00     0.014 A 
ENDBRANCH   7  21
TORSDOF 5
ENDMDL
MODEL 9
REMARK VINA RESULT:      -7.2      3.812      7.380
REMARK  5 active torsions:
REMARK  status: ('A' for Active; 'I' for Inactive)
REMARK    1  A    between atoms: C_6  and  N_7 
REMARK       I    between atoms: N_7  and  C_8 
REMARK    2  A    between atoms: C_8  and  C_9 
REMARK    3  A    between atoms: C_9  and  C_10 
REMARK    4  A    between atoms: C_12  and  O_13 
REMARK    5  A    between atoms: C_19  and  C_20 
ROOT
HETATM    1  C   UNL     1      41.338 -11.365   6.835  1.00  0.00     0.073 C 
HETATM    2  C   UNL     1      41.639 -11.794   5.446  1.00  0.00     0.065 A 
HETATM    3  N   UNL     1      41.463 -10.939   4.430  1.00  0.00    -0.177 NA
HETATM    4  N   UNL     1      41.834 -11.643   3.347  1.00  0.00    -0.262 N 
HETATM    5  H   UNL     1      41.816 -11.203   2.431  1.00  0.00     0.191 HD
HETATM    6  C   UNL     1      42.203 -12.935   3.624  1.00  0.00     0.137 A 
HETATM    7  C   UNL     1      42.121 -13.057   4.997  1.00  0.00     0.046 A 
ENDROOT
BRANCH   6   8
HETATM    8  N   UNL     1      42.574 -13.854   2.659  1.00  0.00    -0.311 N 
HETATM    9  C   UNL     1      41.703 -14.828   2.195  1.00  0.00     0.227 C 
HETATM   10  O   UNL     1      40.531 -14.936   2.555  1.00  0.00    -0.273 OA
HETATM   11  H   UNL     1      43.498 -13.769   2.251  1.00  0.00     0.170 HD
BRANCH   9  12
HETATM   12  C   UNL     1      42.350 -15.814   1.241  1.00  0.00     0.141 C 
BRANCH  12  13
HETATM   13  C   UNL     1      43.008 -17.040   1.836  1.00  0.00    -0.047 A 
HETATM   14  C   UNL     1      42.965 -17.374   3.201  1.00  0.00     0.044 A 
HETATM   15  C   UNL     1      43.502 -18.579   3.664  1.00  0.00     0.068 A 
HETATM   16  C   UNL     1      44.119 -19.449   2.764  1.00  0.00     0.037 A 
HETATM   17  C   UNL     1      44.181 -19.134   1.409  1.00  0.00     0.003 A 
HETATM   18  C   UNL     1      43.620 -17.944   0.948  1.00  0.00     0.007 A 
BRANCH  15  19
HETATM   19  O   UNL     1      43.489 -19.017   4.960  1.00  0.00    -0.356 OA
HETATM   20  C   UNL     1      44.398 -20.057   5.299  1.00  0.00     0.210 C 
ENDBRANCH  15  19
ENDBRANCH  12  13
ENDBRANCH   9  12
ENDBRANCH   6   8
BRANCH   7  21
HETATM   21  C   UNL     1      42.538 -14.223   5.749  1.00  0.00    -0.020 A 
HETATM   22  C   UNL     1      41.645 -15.290   5.918  1.00  0.00     0.014 A 
HETATM   23  C   UNL     1      42.016 -16.409   6.665  1.00  0.00     0.020 A 
HETATM   24  C   UNL     1      43.281 -16.462   7.245  1.00  0.00     0.011 A 
HETATM   25 BR   UNL     1      43.780 -17.972   8.267  1.00  0.00    -0.051 Br
HETATM   26  C   UNL     1      44.181 -15.411   7.079  1.00  0.00     0.020 A 
HETATM   27  C   UNL     1      43.812 -14.292   6.327  1.00  0.00     0.014 A 
ENDBRANCH   7  21
TORSDOF 5
ENDMDL
MODEL 10
REMARK VINA RESULT:      -7.1      4.736      7.933
REMARK  5 active torsions:
REMARK  status: ('A' for Active; 'I' for Inactive)
REMARK    1  A    between atoms: C_6  and  N_7 
REMARK       I    between atoms: N_7  and  C_8 
REMARK    2  A    between atoms: C_8  and  C_9 
REMARK    3  A    between atoms: C_9  and  C_10 
REMARK    4  A    between atoms: C_12  and  O_13 
REMARK    5  A    between atoms: C_19  and  C_20 
ROOT
HETATM    1  C   UNL     1      44.420 -15.467   6.653  1.00  0.00     0.073 C 
HETATM    2  C   UNL     1      43.554 -14.808   5.644  1.00  0.00     0.065 A 
HETATM    3  N   UNL     1      43.200 -13.526   5.802  1.00  0.00    -0.177 NA
HETATM    4  N   UNL     1      42.444 -13.264   4.723  1.00  0.00    -0.262 N 
HETATM    5  H   UNL     1      42.064 -12.331   4.590  1.00  0.00     0.191 HD
HETATM    6  C   UNL     1      42.262 -14.344   3.896  1.00  0.00     0.137 A 
HETATM    7  C   UNL     1      43.007 -15.365   4.452  1.00  0.00     0.046 A 
ENDROOT
BRANCH   6   8
HETATM    8  N   UNL     1      41.480 -14.318   2.755  1.00  0.00    -0.311 N 
HETATM    9  C   UNL     1      41.692 -13.402   1.737  1.00  0.00     0.227 C 
HETATM   10  O   UNL     1      42.604 -12.574   1.730  1.00  0.00    -0.273 OA
HETATM   11  H   UNL     1      40.765 -15.029   2.652  1.00  0.00     0.170 HD
BRANCH   9  12
HETATM   12  C   UNL     1      40.642 -13.456   0.645  1.00  0.00     0.141 C 
BRANCH  12  13
HETATM   13  C   UNL     1      41.117 -13.640  -0.781  1.00  0.00    -0.047 A 
HETATM   14  C   UNL     1      40.539 -14.539  -1.694  1.00  0.00     0.044 A 
HETATM   15  C   UNL     1      40.958 -14.578  -3.028  1.00  0.00     0.068 A 
HETATM   16  C   UNL     1      41.986 -13.736  -3.451  1.00  0.00     0.037 A 
HETATM   17  C   UNL     1      42.579 -12.845  -2.561  1.00  0.00     0.003 A 
HETATM   18  C   UNL     1      42.140 -12.790  -1.239  1.00  0.00     0.007 A 
BRANCH  15  19
HETATM   19  O   UNL     1      40.446 -15.387  -4.005  1.00  0.00    -0.356 OA
HETATM   20  C   UNL     1      39.053 -15.668  -3.945  1.00  0.00     0.210 C 
ENDBRANCH  15  19
ENDBRANCH  12  13
ENDBRANCH   9  12
ENDBRANCH   6   8
BRANCH   7  21
HETATM   21  C   UNL     1      43.208 -16.666   3.847  1.00  0.00    -0.020 A 
HETATM   22  C   UNL     1      42.885 -17.821   4.570  1.00  0.00     0.014 A 
HETATM   23  C   UNL     1      43.099 -19.084   4.016  1.00  0.00     0.020 A 
HETATM   24  C   UNL     1      43.639 -19.193   2.737  1.00  0.00     0.011 A 
HETATM   25 BR   UNL     1      43.942 -20.903   1.991  1.00  0.00    -0.051 Br
HETATM   26  C   UNL     1      43.959 -18.052   2.004  1.00  0.00     0.020 A 
HETATM   27  C   UNL     1      43.739 -16.786   2.556  1.00  0.00     0.014 A 
ENDBRANCH   7  21
TORSDOF 5
ENDMDL
