MODEL 1
REMARK VINA RESULT:      -9.8      0.000      0.000
REMARK  9 active torsions:
REMARK  status: ('A' for Active; 'I' for Inactive)
REMARK    1  A    between atoms: C_4  and  S_5 
REMARK    2  A    between atoms: S_5  and  C_6 
REMARK    3  A    between atoms: C_6  and  C_7 
REMARK       I    between atoms: C_7  and  N_8 
REMARK    4  A    between atoms: N_8  and  C_9 
REMARK    5  A    between atoms: C_9  and  C_10 
REMARK    6  A    between atoms: C_20  and  C_21 
REMARK    7  A    between atoms: C_26  and  C_27 
REMARK       I    between atoms: C_27  and  N_28 
REMARK    8  A    between atoms: N_28  and  C_29 
REMARK    9  A    between atoms: C_31  and  C_32 
ROOT
HETATM    1  C   UNL     1      40.636 -16.949   6.638  1.00  0.00     0.069 C 
HETATM    2  C   UNL     1      40.845 -15.702   5.809  1.00  0.00     0.019 C 
HETATM    3  N   UNL     1      40.031 -14.632   6.138  1.00  0.00    -0.353 N 
HETATM    4  C   UNL     1      40.136 -13.345   5.641  1.00  0.00     0.087 C 
HETATM    5  C   UNL     1      40.962 -13.142   4.588  1.00  0.00     0.057 C 
HETATM    6  C   UNL     1      41.068 -11.827   3.831  1.00  0.00     0.019 C 
HETATM    7  N   UNL     1      41.157 -10.737   3.204  1.00  0.00    -0.096 N 
HETATM    8  C   UNL     1      41.737 -14.307   3.954  1.00  0.00     0.129 C 
HETATM    9  C   UNL     1      41.737 -15.582   4.796  1.00  0.00     0.048 C 
HETATM   10  H   UNL     1      39.307 -14.801   6.829  1.00  0.00     0.166 HD
ENDROOT
BRANCH   4  11
HETATM   11  S   UNL     1      39.176 -12.026   6.308  1.00  0.00    -0.102 SA
BRANCH  11  12
HETATM   12  C   UNL     1      40.390 -11.237   7.411  1.00  0.00     0.183 C 
BRANCH  12  13
HETATM   13  C   UNL     1      39.876 -10.989   8.815  1.00  0.00     0.227 C 
HETATM   14  N   UNL     1      40.783 -11.093   9.841  1.00  0.00    -0.356 N 
HETATM   15  H   UNL     1      41.739 -11.361   9.641  1.00  0.00     0.162 HD
HETATM   16  O   UNL     1      38.676 -10.796   9.016  1.00  0.00    -0.273 OA
BRANCH  14  17
HETATM   17  C   UNL     1      40.334 -11.051  11.215  1.00  0.00     0.161 C 
BRANCH  17  18
HETATM   18  C   UNL     1      41.393 -10.567  12.168  1.00  0.00    -0.041 A 
HETATM   19  C   UNL     1      42.556  -9.936  11.701  1.00  0.00     0.009 A 
HETATM   20  C   UNL     1      43.499  -9.432  12.598  1.00  0.00     0.001 A 
HETATM   21  C   UNL     1      43.286  -9.540  13.971  1.00  0.00     0.000 A 
HETATM   22  C   UNL     1      42.130 -10.154  14.449  1.00  0.00     0.001 A 
HETATM   23  C   UNL     1      41.188 -10.663  13.554  1.00  0.00     0.009 A 
ENDBRANCH  17  18
ENDBRANCH  14  17
ENDBRANCH  12  13
ENDBRANCH  11  12
ENDBRANCH   4  11
BRANCH   8  24
HETATM   24  C   UNL     1      41.245 -14.566   2.547  1.00  0.00     0.066 A 
HETATM   25  O   UNL     1      42.144 -14.342   1.544  1.00  0.00    -0.326 OA
HETATM   26  C   UNL     1      41.513 -14.624   0.376  1.00  0.00     0.142 A 
HETATM   27  C   UNL     1      40.228 -15.052   0.614  1.00  0.00     0.027 A 
HETATM   28  C   UNL     1      40.054 -15.021   2.019  1.00  0.00     0.035 A 
ENDBRANCH   8  24
BRANCH   9  29
HETATM   29  C   UNL     1      42.775 -16.654   4.564  1.00  0.00     0.255 C 
HETATM   30  N   UNL     1      42.407 -17.686   3.729  1.00  0.00    -0.323 N 
HETATM   31  H   UNL     1      41.504 -17.651   3.273  1.00  0.00     0.169 HD
HETATM   32  O   UNL     1      43.891 -16.533   5.060  1.00  0.00    -0.268 OA
BRANCH  30  33
HETATM   33  C   UNL     1      43.156 -18.843   3.417  1.00  0.00     0.035 A 
HETATM   34  C   UNL     1      43.605 -19.768   4.363  1.00  0.00     0.045 A 
HETATM   35  C   UNL     1      44.316 -20.917   3.971  1.00  0.00     0.050 A 
HETATM   36  C   UNL     1      44.602 -21.114   2.612  1.00  0.00     0.016 A 
HETATM   37  C   UNL     1      44.160 -20.196   1.663  1.00  0.00     0.003 A 
HETATM   38  C   UNL     1      43.434 -19.074   2.063  1.00  0.00     0.029 A 
BRANCH  35  39
HETATM   39  C   UNL     1      44.790 -21.910   5.003  1.00  0.00     0.417 C 
HETATM   40  F   UNL     1      46.147 -22.016   5.073  1.00  0.00    -0.166 F 
HETATM   41  F   UNL     1      44.383 -21.595   6.266  1.00  0.00    -0.166 F 
HETATM   42  F   UNL     1      44.326 -23.168   4.767  1.00  0.00    -0.166 F 
ENDBRANCH  35  39
ENDBRANCH  30  33
ENDBRANCH   9  29
TORSDOF 9
ENDMDL
MODEL 2
REMARK VINA RESULT:      -9.4      1.932      3.414
REMARK  9 active torsions:
REMARK  status: ('A' for Active; 'I' for Inactive)
REMARK    1  A    between atoms: C_4  and  S_5 
REMARK    2  A    between atoms: S_5  and  C_6 
REMARK    3  A    between atoms: C_6  and  C_7 
REMARK       I    between atoms: C_7  and  N_8 
REMARK    4  A    between atoms: N_8  and  C_9 
REMARK    5  A    between atoms: C_9  and  C_10 
REMARK    6  A    between atoms: C_20  and  C_21 
REMARK    7  A    between atoms: C_26  and  C_27 
REMARK       I    between atoms: C_27  and  N_28 
REMARK    8  A    between atoms: N_28  and  C_29 
REMARK    9  A    between atoms: C_31  and  C_32 
ROOT
HETATM    1  C   UNL     1      41.949 -14.545   0.968  1.00  0.00     0.069 C 
HETATM    2  C   UNL     1      41.462 -14.300   2.378  1.00  0.00     0.019 C 
HETATM    3  N   UNL     1      41.046 -13.007   2.641  1.00  0.00    -0.353 N 
HETATM    4  C   UNL     1      40.416 -12.572   3.794  1.00  0.00     0.087 C 
HETATM    5  C   UNL     1      40.380 -13.418   4.850  1.00  0.00     0.057 C 
HETATM    6  C   UNL     1      39.868 -13.035   6.230  1.00  0.00     0.019 C 
HETATM    7  N   UNL     1      39.442 -12.719   7.374  1.00  0.00    -0.096 N 
HETATM    8  C   UNL     1      41.040 -14.804   4.776  1.00  0.00     0.129 C 
HETATM    9  C   UNL     1      41.423 -15.232   3.361  1.00  0.00     0.048 C 
HETATM   10  H   UNL     1      41.193 -12.320   1.909  1.00  0.00     0.166 HD
ENDROOT
BRANCH   4  11
HETATM   11  S   UNL     1      39.742 -10.948   3.910  1.00  0.00    -0.102 SA
BRANCH  11  12
HETATM   12  C   UNL     1      41.124 -10.054   4.686  1.00  0.00     0.183 C 
BRANCH  12  13
HETATM   13  C   UNL     1      40.886  -9.695   6.140  1.00  0.00     0.227 C 
HETATM   14  N   UNL     1      41.816 -10.130   7.052  1.00  0.00    -0.356 N 
HETATM   15  H   UNL     1      42.597 -10.695   6.742  1.00  0.00     0.162 HD
HETATM   16  O   UNL     1      39.852  -9.118   6.479  1.00  0.00    -0.273 OA
BRANCH  14  17
HETATM   17  C   UNL     1      41.566  -9.986   8.469  1.00  0.00     0.161 C 
BRANCH  17  18
HETATM   18  C   UNL     1      42.698 -10.491   9.323  1.00  0.00    -0.041 A 
HETATM   19  C   UNL     1      43.624 -11.420   8.825  1.00  0.00     0.009 A 
HETATM   20  C   UNL     1      44.707 -11.830   9.603  1.00  0.00     0.001 A 
HETATM   21  C   UNL     1      44.887 -11.307  10.882  1.00  0.00     0.000 A 
HETATM   22  C   UNL     1      43.982 -10.374  11.386  1.00  0.00     0.001 A 
HETATM   23  C   UNL     1      42.895  -9.967  10.610  1.00  0.00     0.009 A 
ENDBRANCH  17  18
ENDBRANCH  14  17
ENDBRANCH  12  13
ENDBRANCH  11  12
ENDBRANCH   4  11
BRANCH   8  24
HETATM   24  C   UNL     1      42.218 -14.880   5.722  1.00  0.00     0.066 A 
HETATM   25  O   UNL     1      42.367 -16.053   6.405  1.00  0.00    -0.326 OA
HETATM   26  C   UNL     1      43.464 -15.916   7.193  1.00  0.00     0.142 A 
HETATM   27  C   UNL     1      44.039 -14.681   7.008  1.00  0.00     0.027 A 
HETATM   28  C   UNL     1      43.238 -14.011   6.052  1.00  0.00     0.035 A 
ENDBRANCH   8  24
BRANCH   9  29
HETATM   29  C   UNL     1      41.666 -16.688   3.040  1.00  0.00     0.255 C 
HETATM   30  N   UNL     1      42.863 -17.214   3.473  1.00  0.00    -0.323 N 
HETATM   31  H   UNL     1      43.484 -16.636   4.023  1.00  0.00     0.169 HD
HETATM   32  O   UNL     1      40.787 -17.339   2.483  1.00  0.00    -0.268 OA
BRANCH  30  33
HETATM   33  C   UNL     1      43.363 -18.515   3.231  1.00  0.00     0.035 A 
HETATM   34  C   UNL     1      43.800 -19.388   4.229  1.00  0.00     0.045 A 
HETATM   35  C   UNL     1      44.252 -20.682   3.912  1.00  0.00     0.050 A 
HETATM   36  C   UNL     1      44.289 -21.083   2.569  1.00  0.00     0.016 A 
HETATM   37  C   UNL     1      43.856 -20.219   1.567  1.00  0.00     0.003 A 
HETATM   38  C   UNL     1      43.387 -18.947   1.897  1.00  0.00     0.029 A 
BRANCH  35  39
HETATM   39  C   UNL     1      44.717 -21.616   5.002  1.00  0.00     0.417 C 
HETATM   40  F   UNL     1      44.294 -21.252   6.245  1.00  0.00    -0.166 F 
HETATM   41  F   UNL     1      44.276 -22.895   4.826  1.00  0.00    -0.166 F 
HETATM   42  F   UNL     1      46.074 -21.698   5.074  1.00  0.00    -0.166 F 
ENDBRANCH  35  39
ENDBRANCH  30  33
ENDBRANCH   9  29
TORSDOF 9
ENDMDL
MODEL 3
REMARK VINA RESULT:      -9.3      1.596      2.035
REMARK  9 active torsions:
REMARK  status: ('A' for Active; 'I' for Inactive)
REMARK    1  A    between atoms: C_4  and  S_5 
REMARK    2  A    between atoms: S_5  and  C_6 
REMARK    3  A    between atoms: C_6  and  C_7 
REMARK       I    between atoms: C_7  and  N_8 
REMARK    4  A    between atoms: N_8  and  C_9 
REMARK    5  A    between atoms: C_9  and  C_10 
REMARK    6  A    between atoms: C_20  and  C_21 
REMARK    7  A    between atoms: C_26  and  C_27 
REMARK       I    between atoms: C_27  and  N_28 
REMARK    8  A    between atoms: N_28  and  C_29 
REMARK    9  A    between atoms: C_31  and  C_32 
ROOT
HETATM    1  C   UNL     1      40.279 -15.697   5.938  1.00  0.00     0.069 C 
HETATM    2  C   UNL     1      40.479 -14.650   4.866  1.00  0.00     0.019 C 
HETATM    3  N   UNL     1      40.317 -13.341   5.283  1.00  0.00    -0.353 N 
HETATM    4  C   UNL     1      40.598 -12.208   4.540  1.00  0.00     0.087 C 
HETATM    5  C   UNL     1      40.856 -12.368   3.220  1.00  0.00     0.057 C 
HETATM    6  C   UNL     1      41.026 -11.217   2.241  1.00  0.00     0.019 C 
HETATM    7  N   UNL     1      41.170 -10.263   1.429  1.00  0.00    -0.096 N 
HETATM    8  C   UNL     1      40.812 -13.759   2.568  1.00  0.00     0.129 C 
HETATM    9  C   UNL     1      40.781 -14.911   3.571  1.00  0.00     0.048 C 
HETATM   10  H   UNL     1      39.988 -13.198   6.232  1.00  0.00     0.166 HD
ENDROOT
BRANCH   4  11
HETATM   11  S   UNL     1      40.557 -10.603   5.267  1.00  0.00    -0.102 SA
BRANCH  11  12
HETATM   12  C   UNL     1      40.592 -11.024   7.037  1.00  0.00     0.183 C 
BRANCH  12  13
HETATM   13  C   UNL     1      41.761 -10.420   7.790  1.00  0.00     0.227 C 
HETATM   14  N   UNL     1      42.312 -11.173   8.798  1.00  0.00    -0.356 N 
HETATM   15  H   UNL     1      41.909 -12.074   9.030  1.00  0.00     0.162 HD
HETATM   16  O   UNL     1      42.127  -9.268   7.555  1.00  0.00    -0.273 OA
BRANCH  14  17
HETATM   17  C   UNL     1      43.305 -10.597   9.677  1.00  0.00     0.161 C 
BRANCH  17  18
HETATM   18  C   UNL     1      42.884 -10.592  11.122  1.00  0.00    -0.041 A 
HETATM   19  C   UNL     1      43.651  -9.940  12.099  1.00  0.00     0.009 A 
HETATM   20  C   UNL     1      43.216  -9.886  13.424  1.00  0.00     0.001 A 
HETATM   21  C   UNL     1      42.004 -10.471  13.786  1.00  0.00     0.000 A 
HETATM   22  C   UNL     1      41.227 -11.113  12.825  1.00  0.00     0.001 A 
HETATM   23  C   UNL     1      41.662 -11.171  11.500  1.00  0.00     0.009 A 
ENDBRANCH  17  18
ENDBRANCH  14  17
ENDBRANCH  12  13
ENDBRANCH  11  12
ENDBRANCH   4  11
BRANCH   8  24
HETATM   24  C   UNL     1      39.668 -13.845   1.581  1.00  0.00     0.066 A 
HETATM   25  O   UNL     1      40.015 -13.911   0.263  1.00  0.00    -0.326 OA
HETATM   26  C   UNL     1      38.860 -13.975  -0.448  1.00  0.00     0.142 A 
HETATM   27  C   UNL     1      37.775 -13.978   0.396  1.00  0.00     0.027 A 
HETATM   28  C   UNL     1      38.295 -13.900   1.710  1.00  0.00     0.035 A 
ENDBRANCH   8  24
BRANCH   9  29
HETATM   29  C   UNL     1      41.170 -16.307   3.146  1.00  0.00     0.255 C 
HETATM   30  N   UNL     1      42.416 -16.739   3.544  1.00  0.00    -0.323 N 
HETATM   31  H   UNL     1      42.978 -16.141   4.136  1.00  0.00     0.169 HD
HETATM   32  O   UNL     1      40.359 -17.003   2.541  1.00  0.00    -0.268 OA
BRANCH  30  33
HETATM   33  C   UNL     1      43.045 -17.960   3.210  1.00  0.00     0.035 A 
HETATM   34  C   UNL     1      43.568 -18.857   4.144  1.00  0.00     0.045 A 
HETATM   35  C   UNL     1      44.149 -20.072   3.736  1.00  0.00     0.050 A 
HETATM   36  C   UNL     1      44.226 -20.366   2.367  1.00  0.00     0.016 A 
HETATM   37  C   UNL     1      43.709 -19.477   1.428  1.00  0.00     0.003 A 
HETATM   38  C   UNL     1      43.114 -18.287   1.849  1.00  0.00     0.029 A 
BRANCH  35  39
HETATM   39  C   UNL     1      44.704 -21.033   4.757  1.00  0.00     0.417 C 
HETATM   40  F   UNL     1      44.154 -20.887   5.995  1.00  0.00    -0.166 F 
HETATM   41  F   UNL     1      44.503 -22.339   4.419  1.00  0.00    -0.166 F 
HETATM   42  F   UNL     1      46.049 -20.896   4.923  1.00  0.00    -0.166 F 
ENDBRANCH  35  39
ENDBRANCH  30  33
ENDBRANCH   9  29
TORSDOF 9
ENDMDL
MODEL 4
REMARK VINA RESULT:      -9.1      3.868      8.104
REMARK  9 active torsions:
REMARK  status: ('A' for Active; 'I' for Inactive)
REMARK    1  A    between atoms: C_4  and  S_5 
REMARK    2  A    between atoms: S_5  and  C_6 
REMARK    3  A    between atoms: C_6  and  C_7 
REMARK       I    between atoms: C_7  and  N_8 
REMARK    4  A    between atoms: N_8  and  C_9 
REMARK    5  A    between atoms: C_9  and  C_10 
REMARK    6  A    between atoms: C_20  and  C_21 
REMARK    7  A    between atoms: C_26  and  C_27 
REMARK       I    between atoms: C_27  and  N_28 
REMARK    8  A    between atoms: N_28  and  C_29 
REMARK    9  A    between atoms: C_31  and  C_32 
ROOT
HETATM    1  C   UNL     1      42.063 -15.074   0.625  1.00  0.00     0.069 C 
HETATM    2  C   UNL     1      41.573 -14.697   2.005  1.00  0.00     0.019 C 
HETATM    3  N   UNL     1      41.163 -13.383   2.146  1.00  0.00    -0.353 N 
HETATM    4  C   UNL     1      40.532 -12.840   3.251  1.00  0.00     0.087 C 
HETATM    5  C   UNL     1      40.489 -13.584   4.381  1.00  0.00     0.057 C 
HETATM    6  C   UNL     1      39.975 -13.073   5.718  1.00  0.00     0.019 C 
HETATM    7  N   UNL     1      39.548 -12.650   6.826  1.00  0.00    -0.096 N 
HETATM    8  C   UNL     1      41.142 -14.974   4.438  1.00  0.00     0.129 C 
HETATM    9  C   UNL     1      41.527 -15.534   3.070  1.00  0.00     0.048 C 
HETATM   10  H   UNL     1      41.314 -12.767   1.354  1.00  0.00     0.166 HD
ENDROOT
BRANCH   4  11
HETATM   11  S   UNL     1      39.865 -11.209   3.215  1.00  0.00    -0.102 SA
BRANCH  11  12
HETATM   12  C   UNL     1      39.747 -10.923   1.422  1.00  0.00     0.183 C 
BRANCH  12  13
HETATM   13  C   UNL     1      38.714 -11.790   0.727  1.00  0.00     0.227 C 
HETATM   14  N   UNL     1      38.966 -12.140  -0.577  1.00  0.00    -0.356 N 
HETATM   15  H   UNL     1      39.797 -11.790  -1.039  1.00  0.00     0.162 HD
HETATM   16  O   UNL     1      37.659 -12.079   1.293  1.00  0.00    -0.273 OA
BRANCH  14  17
HETATM   17  C   UNL     1      37.950 -12.808  -1.359  1.00  0.00     0.161 C 
BRANCH  17  18
HETATM   18  C   UNL     1      38.505 -13.882  -2.256  1.00  0.00    -0.041 A 
HETATM   19  C   UNL     1      39.860 -14.241  -2.204  1.00  0.00     0.009 A 
HETATM   20  C   UNL     1      40.349 -15.284  -2.993  1.00  0.00     0.001 A 
HETATM   21  C   UNL     1      39.487 -15.989  -3.832  1.00  0.00     0.000 A 
HETATM   22  C   UNL     1      38.137 -15.650  -3.885  1.00  0.00     0.001 A 
HETATM   23  C   UNL     1      37.648 -14.604  -3.100  1.00  0.00     0.009 A 
ENDBRANCH  17  18
ENDBRANCH  14  17
ENDBRANCH  12  13
ENDBRANCH  11  12
ENDBRANCH   4  11
BRANCH   8  24
HETATM   24  C   UNL     1      42.317 -14.968   5.391  1.00  0.00     0.066 A 
HETATM   25  O   UNL     1      42.445 -16.063   6.197  1.00  0.00    -0.326 OA
HETATM   26  C   UNL     1      43.543 -15.860   6.969  1.00  0.00     0.142 A 
HETATM   27  C   UNL     1      44.140 -14.663   6.653  1.00  0.00     0.027 A 
HETATM   28  C   UNL     1      43.352 -14.086   5.628  1.00  0.00     0.035 A 
ENDBRANCH   8  24
BRANCH   9  29
HETATM   29  C   UNL     1      41.764 -17.014   2.886  1.00  0.00     0.255 C 
HETATM   30  N   UNL     1      43.002 -17.483   3.264  1.00  0.00    -0.323 N 
HETATM   31  H   UNL     1      43.660 -16.845   3.693  1.00  0.00     0.169 HD
HETATM   32  O   UNL     1      40.850 -17.727   2.481  1.00  0.00    -0.268 OA
BRANCH  30  33
HETATM   33  C   UNL     1      43.499 -18.799   3.119  1.00  0.00     0.035 A 
HETATM   34  C   UNL     1      43.864 -19.624   4.185  1.00  0.00     0.045 A 
HETATM   35  C   UNL     1      44.317 -20.937   3.962  1.00  0.00     0.050 A 
HETATM   36  C   UNL     1      44.431 -21.407   2.646  1.00  0.00     0.016 A 
HETATM   37  C   UNL     1      44.071 -20.590   1.577  1.00  0.00     0.003 A 
HETATM   38  C   UNL     1      43.599 -19.299   1.814  1.00  0.00     0.029 A 
BRANCH  35  39
HETATM   39  C   UNL     1      44.703 -21.819   5.124  1.00  0.00     0.417 C 
HETATM   40  F   UNL     1      44.179 -23.075   5.049  1.00  0.00    -0.166 F 
HETATM   41  F   UNL     1      46.051 -21.991   5.233  1.00  0.00    -0.166 F 
HETATM   42  F   UNL     1      44.296 -21.312   6.320  1.00  0.00    -0.166 F 
ENDBRANCH  35  39
ENDBRANCH  30  33
ENDBRANCH   9  29
TORSDOF 9
ENDMDL
MODEL 5
REMARK VINA RESULT:      -9.1      4.117      9.922
REMARK  9 active torsions:
REMARK  status: ('A' for Active; 'I' for Inactive)
REMARK    1  A    between atoms: C_4  and  S_5 
REMARK    2  A    between atoms: S_5  and  C_6 
REMARK    3  A    between atoms: C_6  and  C_7 
REMARK       I    between atoms: C_7  and  N_8 
REMARK    4  A    between atoms: N_8  and  C_9 
REMARK    5  A    between atoms: C_9  and  C_10 
REMARK    6  A    between atoms: C_20  and  C_21 
REMARK    7  A    between atoms: C_26  and  C_27 
REMARK       I    between atoms: C_27  and  N_28 
REMARK    8  A    between atoms: N_28  and  C_29 
REMARK    9  A    between atoms: C_31  and  C_32 
ROOT
HETATM    1  C   UNL     1      43.012 -13.646   5.777  1.00  0.00     0.069 C 
HETATM    2  C   UNL     1      41.827 -13.330   4.894  1.00  0.00     0.019 C 
HETATM    3  N   UNL     1      41.812 -13.980   3.672  1.00  0.00    -0.353 N 
HETATM    4  C   UNL     1      40.770 -13.984   2.762  1.00  0.00     0.087 C 
HETATM    5  C   UNL     1      39.752 -13.116   2.967  1.00  0.00     0.057 C 
HETATM    6  C   UNL     1      38.617 -12.887   1.981  1.00  0.00     0.019 C 
HETATM    7  N   UNL     1      37.675 -12.697   1.165  1.00  0.00    -0.096 N 
HETATM    8  C   UNL     1      39.768 -12.145   4.158  1.00  0.00     0.129 C 
HETATM    9  C   UNL     1      40.826 -12.473   5.210  1.00  0.00     0.048 C 
HETATM   10  H   UNL     1      42.633 -14.529   3.434  1.00  0.00     0.166 HD
ENDROOT
BRANCH   4  11
HETATM   11  S   UNL     1      40.796 -15.031   1.345  1.00  0.00    -0.102 SA
BRANCH  11  12
HETATM   12  C   UNL     1      40.494 -16.655   2.109  1.00  0.00     0.183 C 
BRANCH  12  13
HETATM   13  C   UNL     1      41.545 -17.063   3.124  1.00  0.00     0.227 C 
HETATM   14  N   UNL     1      42.757 -17.485   2.634  1.00  0.00    -0.356 N 
HETATM   15  H   UNL     1      42.901 -17.545   1.633  1.00  0.00     0.162 HD
HETATM   16  O   UNL     1      41.274 -17.096   4.324  1.00  0.00    -0.273 OA
BRANCH  14  17
HETATM   17  C   UNL     1      43.741 -18.060   3.524  1.00  0.00     0.161 C 
BRANCH  17  18
HETATM   18  C   UNL     1      44.018 -19.512   3.240  1.00  0.00    -0.041 A 
HETATM   19  C   UNL     1      44.593 -20.344   4.212  1.00  0.00     0.009 A 
HETATM   20  C   UNL     1      44.784 -21.703   3.960  1.00  0.00     0.001 A 
HETATM   21  C   UNL     1      44.390 -22.250   2.740  1.00  0.00     0.000 A 
HETATM   22  C   UNL     1      43.807 -21.438   1.770  1.00  0.00     0.001 A 
HETATM   23  C   UNL     1      43.619 -20.077   2.019  1.00  0.00     0.009 A 
ENDBRANCH  17  18
ENDBRANCH  14  17
ENDBRANCH  12  13
ENDBRANCH  11  12
ENDBRANCH   4  11
BRANCH   8  24
HETATM   24  C   UNL     1      39.885 -10.716   3.674  1.00  0.00     0.066 A 
HETATM   25  O   UNL     1      39.094  -9.800   4.307  1.00  0.00    -0.326 OA
HETATM   26  C   UNL     1      39.341  -8.597   3.728  1.00  0.00     0.142 A 
HETATM   27  C   UNL     1      40.299  -8.721   2.750  1.00  0.00     0.027 A 
HETATM   28  C   UNL     1      40.657 -10.090   2.717  1.00  0.00     0.035 A 
ENDBRANCH   8  24
BRANCH   9  29
HETATM   29  C   UNL     1      40.710 -11.923   6.612  1.00  0.00     0.255 C 
HETATM   30  N   UNL     1      41.701 -11.051   7.007  1.00  0.00    -0.323 N 
HETATM   31  H   UNL     1      42.411 -10.779   6.340  1.00  0.00     0.169 HD
HETATM   32  O   UNL     1      39.733 -12.213   7.297  1.00  0.00    -0.268 OA
BRANCH  30  33
HETATM   33  C   UNL     1      41.867 -10.467   8.284  1.00  0.00     0.035 A 
HETATM   34  C   UNL     1      42.805 -10.891   9.227  1.00  0.00     0.045 A 
HETATM   35  C   UNL     1      42.935 -10.235  10.465  1.00  0.00     0.050 A 
HETATM   36  C   UNL     1      42.086  -9.159  10.761  1.00  0.00     0.016 A 
HETATM   37  C   UNL     1      41.146  -8.730   9.827  1.00  0.00     0.003 A 
HETATM   38  C   UNL     1      41.045  -9.374   8.593  1.00  0.00     0.029 A 
BRANCH  35  39
HETATM   39  C   UNL     1      43.957 -10.701  11.472  1.00  0.00     0.417 C 
HETATM   40  F   UNL     1      43.997  -9.936  12.599  1.00  0.00    -0.166 F 
HETATM   41  F   UNL     1      43.733 -11.975  11.902  1.00  0.00    -0.166 F 
HETATM   42  F   UNL     1      45.223 -10.697  10.969  1.00  0.00    -0.166 F 
ENDBRANCH  35  39
ENDBRANCH  30  33
ENDBRANCH   9  29
TORSDOF 9
ENDMDL
MODEL 6
REMARK VINA RESULT:      -9.0      3.826      7.342
REMARK  9 active torsions:
REMARK  status: ('A' for Active; 'I' for Inactive)
REMARK    1  A    between atoms: C_4  and  S_5 
REMARK    2  A    between atoms: S_5  and  C_6 
REMARK    3  A    between atoms: C_6  and  C_7 
REMARK       I    between atoms: C_7  and  N_8 
REMARK    4  A    between atoms: N_8  and  C_9 
REMARK    5  A    between atoms: C_9  and  C_10 
REMARK    6  A    between atoms: C_20  and  C_21 
REMARK    7  A    between atoms: C_26  and  C_27 
REMARK       I    between atoms: C_27  and  N_28 
REMARK    8  A    between atoms: N_28  and  C_29 
REMARK    9  A    between atoms: C_31  and  C_32 
ROOT
HETATM    1  C   UNL     1      41.052 -16.071   1.530  1.00  0.00     0.069 C 
HETATM    2  C   UNL     1      40.839 -15.341   2.836  1.00  0.00     0.019 C 
HETATM    3  N   UNL     1      40.269 -14.085   2.723  1.00  0.00    -0.353 N 
HETATM    4  C   UNL     1      39.831 -13.291   3.768  1.00  0.00     0.087 C 
HETATM    5  C   UNL     1      40.168 -13.663   5.026  1.00  0.00     0.057 C 
HETATM    6  C   UNL     1      39.900 -12.820   6.263  1.00  0.00     0.019 C 
HETATM    7  N   UNL     1      39.677 -12.122   7.289  1.00  0.00    -0.096 N 
HETATM    8  C   UNL     1      41.028 -14.911   5.278  1.00  0.00     0.129 C 
HETATM    9  C   UNL     1      41.171 -15.821   4.059  1.00  0.00     0.048 C 
HETATM   10  H   UNL     1      40.136 -13.724   1.784  1.00  0.00     0.166 HD
ENDROOT
BRANCH   4  11
HETATM   11  S   UNL     1      38.925 -11.809   3.474  1.00  0.00    -0.102 SA
BRANCH  11  12
HETATM   12  C   UNL     1      40.270 -10.585   3.417  1.00  0.00     0.183 C 
BRANCH  12  13
HETATM   13  C   UNL     1      40.763 -10.276   2.016  1.00  0.00     0.227 C 
HETATM   14  N   UNL     1      41.639 -11.168   1.450  1.00  0.00    -0.356 N 
HETATM   15  H   UNL     1      41.953 -11.970   1.983  1.00  0.00     0.162 HD
HETATM   16  O   UNL     1      40.451  -9.220   1.465  1.00  0.00    -0.273 OA
BRANCH  14  17
HETATM   17  C   UNL     1      42.291 -10.852   0.198  1.00  0.00     0.161 C 
BRANCH  17  18
HETATM   18  C   UNL     1      42.063 -11.892  -0.865  1.00  0.00    -0.041 A 
HETATM   19  C   UNL     1      42.811 -11.892  -2.052  1.00  0.00     0.009 A 
HETATM   20  C   UNL     1      42.638 -12.900  -3.001  1.00  0.00     0.001 A 
HETATM   21  C   UNL     1      41.725 -13.928  -2.770  1.00  0.00     0.000 A 
HETATM   22  C   UNL     1      40.983 -13.947  -1.591  1.00  0.00     0.001 A 
HETATM   23  C   UNL     1      41.153 -12.937  -0.642  1.00  0.00     0.009 A 
ENDBRANCH  17  18
ENDBRANCH  14  17
ENDBRANCH  12  13
ENDBRANCH  11  12
ENDBRANCH   4  11
BRANCH   8  24
HETATM   24  C   UNL     1      42.374 -14.520   5.846  1.00  0.00     0.066 A 
HETATM   25  O   UNL     1      43.000 -15.460   6.614  1.00  0.00    -0.326 OA
HETATM   26  C   UNL     1      44.174 -14.917   7.026  1.00  0.00     0.142 A 
HETATM   27  C   UNL     1      44.326 -13.651   6.513  1.00  0.00     0.027 A 
HETATM   28  C   UNL     1      43.165 -13.393   5.744  1.00  0.00     0.035 A 
ENDBRANCH   8  24
BRANCH   9  29
HETATM   29  C   UNL     1      41.591 -17.262   4.223  1.00  0.00     0.255 C 
HETATM   30  N   UNL     1      42.923 -17.536   4.006  1.00  0.00    -0.323 N 
HETATM   31  H   UNL     1      43.557 -16.772   3.809  1.00  0.00     0.169 HD
HETATM   32  O   UNL     1      40.768 -18.093   4.596  1.00  0.00    -0.268 OA
BRANCH  30  33
HETATM   33  C   UNL     1      43.548 -18.805   4.014  1.00  0.00     0.035 A 
HETATM   34  C   UNL     1      43.534 -19.695   2.939  1.00  0.00     0.045 A 
HETATM   35  C   UNL     1      44.210 -20.927   3.010  1.00  0.00     0.050 A 
HETATM   36  C   UNL     1      44.881 -21.271   4.193  1.00  0.00     0.016 A 
HETATM   37  C   UNL     1      44.899 -20.389   5.270  1.00  0.00     0.003 A 
HETATM   38  C   UNL     1      44.245 -19.161   5.177  1.00  0.00     0.029 A 
BRANCH  35  39
HETATM   39  C   UNL     1      44.191 -21.877   1.839  1.00  0.00     0.417 C 
HETATM   40  F   UNL     1      44.890 -23.026   2.059  1.00  0.00    -0.166 F 
HETATM   41  F   UNL     1      42.931 -22.276   1.501  1.00  0.00    -0.166 F 
HETATM   42  F   UNL     1      44.719 -21.325   0.712  1.00  0.00    -0.166 F 
ENDBRANCH  35  39
ENDBRANCH  30  33
ENDBRANCH   9  29
TORSDOF 9
ENDMDL
MODEL 7
REMARK VINA RESULT:      -8.9      5.520      9.461
REMARK  9 active torsions:
REMARK  status: ('A' for Active; 'I' for Inactive)
REMARK    1  A    between atoms: C_4  and  S_5 
REMARK    2  A    between atoms: S_5  and  C_6 
REMARK    3  A    between atoms: C_6  and  C_7 
REMARK       I    between atoms: C_7  and  N_8 
REMARK    4  A    between atoms: N_8  and  C_9 
REMARK    5  A    between atoms: C_9  and  C_10 
REMARK    6  A    between atoms: C_20  and  C_21 
REMARK    7  A    between atoms: C_26  and  C_27 
REMARK       I    between atoms: C_27  and  N_28 
REMARK    8  A    between atoms: N_28  and  C_29 
REMARK    9  A    between atoms: C_31  and  C_32 
ROOT
HETATM    1  C   UNL     1      40.258 -17.325   1.945  1.00  0.00     0.069 C 
HETATM    2  C   UNL     1      40.819 -16.234   2.826  1.00  0.00     0.019 C 
HETATM    3  N   UNL     1      41.055 -16.599   4.140  1.00  0.00    -0.353 N 
HETATM    4  C   UNL     1      41.707 -15.838   5.094  1.00  0.00     0.087 C 
HETATM    5  C   UNL     1      41.960 -14.540   4.800  1.00  0.00     0.057 C 
HETATM    6  C   UNL     1      42.522 -13.537   5.794  1.00  0.00     0.019 C 
HETATM    7  N   UNL     1      42.991 -12.704   6.617  1.00  0.00    -0.096 N 
HETATM    8  C   UNL     1      41.514 -13.931   3.461  1.00  0.00     0.129 C 
HETATM    9  C   UNL     1      41.082 -14.966   2.424  1.00  0.00     0.048 C 
HETATM   10  H   UNL     1      40.745 -17.523   4.422  1.00  0.00     0.166 HD
ENDROOT
BRANCH   4  11
HETATM   11  S   UNL     1      42.135 -16.510   6.665  1.00  0.00    -0.102 SA
BRANCH  11  12
HETATM   12  C   UNL     1      43.951 -16.409   6.603  1.00  0.00     0.183 C 
BRANCH  12  13
HETATM   13  C   UNL     1      44.629 -17.721   6.257  1.00  0.00     0.227 C 
HETATM   14  N   UNL     1      43.820 -18.758   5.862  1.00  0.00    -0.356 N 
HETATM   15  H   UNL     1      42.815 -18.634   5.847  1.00  0.00     0.162 HD
HETATM   16  O   UNL     1      45.842 -17.858   6.418  1.00  0.00    -0.273 OA
BRANCH  14  17
HETATM   17  C   UNL     1      44.370 -20.085   5.693  1.00  0.00     0.161 C 
BRANCH  17  18
HETATM   18  C   UNL     1      44.223 -20.611   4.290  1.00  0.00    -0.041 A 
HETATM   19  C   UNL     1      43.771 -19.785   3.250  1.00  0.00     0.009 A 
HETATM   20  C   UNL     1      43.703 -20.266   1.941  1.00  0.00     0.001 A 
HETATM   21  C   UNL     1      44.098 -21.571   1.655  1.00  0.00     0.000 A 
HETATM   22  C   UNL     1      44.560 -22.399   2.676  1.00  0.00     0.001 A 
HETATM   23  C   UNL     1      44.624 -21.921   3.986  1.00  0.00     0.009 A 
ENDBRANCH  17  18
ENDBRANCH  14  17
ENDBRANCH  12  13
ENDBRANCH  11  12
ENDBRANCH   4  11
BRANCH   8  24
HETATM   24  C   UNL     1      40.445 -12.885   3.686  1.00  0.00     0.066 A 
HETATM   25  O   UNL     1      40.507 -11.779   2.887  1.00  0.00    -0.326 OA
HETATM   26  C   UNL     1      39.477 -10.972   3.247  1.00  0.00     0.142 A 
HETATM   27  C   UNL     1      38.737 -11.553   4.250  1.00  0.00     0.027 A 
HETATM   28  C   UNL     1      39.357 -12.794   4.531  1.00  0.00     0.035 A 
ENDBRANCH   8  24
BRANCH   9  29
HETATM   29  C   UNL     1      41.036 -14.609   0.957  1.00  0.00     0.255 C 
HETATM   30  N   UNL     1      39.915 -13.929   0.532  1.00  0.00    -0.323 N 
HETATM   31  H   UNL     1      39.219 -13.654   1.212  1.00  0.00     0.169 HD
HETATM   32  O   UNL     1      41.997 -14.871   0.240  1.00  0.00    -0.268 OA
BRANCH  30  33
HETATM   33  C   UNL     1      39.593 -13.555  -0.793  1.00  0.00     0.035 A 
HETATM   34  C   UNL     1      38.810 -14.321  -1.658  1.00  0.00     0.045 A 
HETATM   35  C   UNL     1      38.503 -13.864  -2.953  1.00  0.00     0.050 A 
HETATM   36  C   UNL     1      39.020 -12.633  -3.384  1.00  0.00     0.016 A 
HETATM   37  C   UNL     1      39.803 -11.863  -2.528  1.00  0.00     0.003 A 
HETATM   38  C   UNL     1      40.079 -12.317  -1.238  1.00  0.00     0.029 A 
BRANCH  35  39
HETATM   39  C   UNL     1      37.651 -14.700  -3.875  1.00  0.00     0.417 C 
HETATM   40  F   UNL     1      38.376 -15.494  -4.713  1.00  0.00    -0.166 F 
HETATM   41  F   UNL     1      36.816 -15.544  -3.204  1.00  0.00    -0.166 F 
HETATM   42  F   UNL     1      36.850 -13.943  -4.674  1.00  0.00    -0.166 F 
ENDBRANCH  35  39
ENDBRANCH  30  33
ENDBRANCH   9  29
TORSDOF 9
ENDMDL
MODEL 8
REMARK VINA RESULT:      -8.9      4.112      8.705
REMARK  9 active torsions:
REMARK  status: ('A' for Active; 'I' for Inactive)
REMARK    1  A    between atoms: C_4  and  S_5 
REMARK    2  A    between atoms: S_5  and  C_6 
REMARK    3  A    between atoms: C_6  and  C_7 
REMARK       I    between atoms: C_7  and  N_8 
REMARK    4  A    between atoms: N_8  and  C_9 
REMARK    5  A    between atoms: C_9  and  C_10 
REMARK    6  A    between atoms: C_20  and  C_21 
REMARK    7  A    between atoms: C_26  and  C_27 
REMARK       I    between atoms: C_27  and  N_28 
REMARK    8  A    between atoms: N_28  and  C_29 
REMARK    9  A    between atoms: C_31  and  C_32 
ROOT
HETATM    1  C   UNL     1      43.580 -13.869   4.604  1.00  0.00     0.069 C 
HETATM    2  C   UNL     1      42.255 -13.839   3.877  1.00  0.00     0.019 C 
HETATM    3  N   UNL     1      42.266 -14.388   2.608  1.00  0.00    -0.353 N 
HETATM    4  C   UNL     1      41.160 -14.623   1.810  1.00  0.00     0.087 C 
HETATM    5  C   UNL     1      39.979 -14.086   2.198  1.00  0.00     0.057 C 
HETATM    6  C   UNL     1      38.713 -14.118   1.357  1.00  0.00     0.019 C 
HETATM    7  N   UNL     1      37.662 -14.146   0.661  1.00  0.00    -0.096 N 
HETATM    8  C   UNL     1      39.880 -13.226   3.468  1.00  0.00     0.129 C 
HETATM    9  C   UNL     1      41.107 -13.314   4.373  1.00  0.00     0.048 C 
HETATM   10  H   UNL     1      43.168 -14.671   2.238  1.00  0.00     0.166 HD
ENDROOT
BRANCH   4  11
HETATM   11  S   UNL     1      41.292 -15.529   0.305  1.00  0.00    -0.102 SA
BRANCH  11  12
HETATM   12  C   UNL     1      41.327 -17.238   0.932  1.00  0.00     0.183 C 
BRANCH  12  13
HETATM   13  C   UNL     1      42.586 -17.585   1.702  1.00  0.00     0.227 C 
HETATM   14  N   UNL     1      42.464 -18.498   2.721  1.00  0.00    -0.356 N 
HETATM   15  H   UNL     1      41.553 -18.879   2.948  1.00  0.00     0.162 HD
HETATM   16  O   UNL     1      43.642 -16.996   1.470  1.00  0.00    -0.273 OA
BRANCH  14  17
HETATM   17  C   UNL     1      43.574 -18.743   3.614  1.00  0.00     0.161 C 
BRANCH  17  18
HETATM   18  C   UNL     1      43.417 -18.070   4.951  1.00  0.00    -0.041 A 
HETATM   19  C   UNL     1      44.493 -17.974   5.845  1.00  0.00     0.009 A 
HETATM   20  C   UNL     1      44.353 -17.289   7.053  1.00  0.00     0.001 A 
HETATM   21  C   UNL     1      43.142 -16.680   7.376  1.00  0.00     0.000 A 
HETATM   22  C   UNL     1      42.068 -16.757   6.491  1.00  0.00     0.001 A 
HETATM   23  C   UNL     1      42.205 -17.446   5.285  1.00  0.00     0.009 A 
ENDBRANCH  17  18
ENDBRANCH  14  17
ENDBRANCH  12  13
ENDBRANCH  11  12
ENDBRANCH   4  11
BRANCH   8  24
HETATM   24  C   UNL     1      39.549 -11.793   3.112  1.00  0.00     0.066 A 
HETATM   25  O   UNL     1      40.475 -11.131   2.359  1.00  0.00    -0.326 OA
HETATM   26  C   UNL     1      39.997  -9.876   2.157  1.00  0.00     0.142 A 
HETATM   27  C   UNL     1      38.764  -9.730   2.748  1.00  0.00     0.027 A 
HETATM   28  C   UNL     1      38.469 -10.971   3.362  1.00  0.00     0.035 A 
ENDBRANCH   8  24
BRANCH   9  29
HETATM   29  C   UNL     1      41.021 -12.909   5.825  1.00  0.00     0.255 C 
HETATM   30  N   UNL     1      41.649 -11.731   6.166  1.00  0.00    -0.323 N 
HETATM   31  H   UNL     1      42.078 -11.174   5.438  1.00  0.00     0.169 HD
HETATM   32  O   UNL     1      40.359 -13.588   6.604  1.00  0.00    -0.268 OA
BRANCH  30  33
HETATM   33  C   UNL     1      41.784 -11.177   7.460  1.00  0.00     0.035 A 
HETATM   34  C   UNL     1      42.926 -11.303   8.253  1.00  0.00     0.045 A 
HETATM   35  C   UNL     1      42.999 -10.692   9.519  1.00  0.00     0.050 A 
HETATM   36  C   UNL     1      41.894  -9.972   9.995  1.00  0.00     0.016 A 
HETATM   37  C   UNL     1      40.750  -9.843   9.211  1.00  0.00     0.003 A 
HETATM   38  C   UNL     1      40.701 -10.433   7.948  1.00  0.00     0.029 A 
BRANCH  35  39
HETATM   39  C   UNL     1      44.241 -10.832  10.363  1.00  0.00     0.417 C 
HETATM   40  F   UNL     1      44.163 -10.178  11.556  1.00  0.00    -0.166 F 
HETATM   41  F   UNL     1      44.525 -12.129  10.675  1.00  0.00    -0.166 F 
HETATM   42  F   UNL     1      45.352 -10.349   9.740  1.00  0.00    -0.166 F 
ENDBRANCH  35  39
ENDBRANCH  30  33
ENDBRANCH   9  29
TORSDOF 9
ENDMDL
MODEL 9
REMARK VINA RESULT:      -8.8      4.173      9.904
REMARK  9 active torsions:
REMARK  status: ('A' for Active; 'I' for Inactive)
REMARK    1  A    between atoms: C_4  and  S_5 
REMARK    2  A    between atoms: S_5  and  C_6 
REMARK    3  A    between atoms: C_6  and  C_7 
REMARK       I    between atoms: C_7  and  N_8 
REMARK    4  A    between atoms: N_8  and  C_9 
REMARK    5  A    between atoms: C_9  and  C_10 
REMARK    6  A    between atoms: C_20  and  C_21 
REMARK    7  A    between atoms: C_26  and  C_27 
REMARK       I    between atoms: C_27  and  N_28 
REMARK    8  A    between atoms: N_28  and  C_29 
REMARK    9  A    between atoms: C_31  and  C_32 
ROOT
HETATM    1  C   UNL     1      42.457 -13.468   5.967  1.00  0.00     0.069 C 
HETATM    2  C   UNL     1      41.333 -12.913   5.124  1.00  0.00     0.019 C 
HETATM    3  N   UNL     1      41.225 -13.455   3.855  1.00  0.00    -0.353 N 
HETATM    4  C   UNL     1      40.195 -13.233   2.958  1.00  0.00     0.087 C 
HETATM    5  C   UNL     1      39.315 -12.243   3.242  1.00  0.00     0.057 C 
HETATM    6  C   UNL     1      38.228 -11.772   2.289  1.00  0.00     0.019 C 
HETATM    7  N   UNL     1      37.325 -11.382   1.500  1.00  0.00    -0.096 N 
HETATM    8  C   UNL     1      39.473 -11.383   4.506  1.00  0.00     0.129 C 
HETATM    9  C   UNL     1      40.469 -11.945   5.517  1.00  0.00     0.048 C 
HETATM   10  H   UNL     1      41.956 -14.097   3.566  1.00  0.00     0.166 HD
ENDROOT
BRANCH   4  11
HETATM   11  S   UNL     1      40.068 -14.157   1.463  1.00  0.00    -0.102 SA
BRANCH  11  12
HETATM   12  C   UNL     1      39.853 -15.842   2.115  1.00  0.00     0.183 C 
BRANCH  12  13
HETATM   13  C   UNL     1      40.946 -16.807   1.698  1.00  0.00     0.227 C 
HETATM   14  N   UNL     1      42.232 -16.489   2.059  1.00  0.00    -0.356 N 
HETATM   15  H   UNL     1      42.416 -15.623   2.551  1.00  0.00     0.162 HD
HETATM   16  O   UNL     1      40.683 -17.778   0.988  1.00  0.00    -0.273 OA
BRANCH  14  17
HETATM   17  C   UNL     1      43.343 -17.259   1.544  1.00  0.00     0.161 C 
BRANCH  17  18
HETATM   18  C   UNL     1      43.725 -18.412   2.433  1.00  0.00    -0.041 A 
HETATM   19  C   UNL     1      43.929 -19.696   1.908  1.00  0.00     0.009 A 
HETATM   20  C   UNL     1      44.348 -20.742   2.731  1.00  0.00     0.001 A 
HETATM   21  C   UNL     1      44.581 -20.514   4.086  1.00  0.00     0.000 A 
HETATM   22  C   UNL     1      44.394 -19.241   4.620  1.00  0.00     0.001 A 
HETATM   23  C   UNL     1      43.970 -18.195   3.798  1.00  0.00     0.009 A 
ENDBRANCH  17  18
ENDBRANCH  14  17
ENDBRANCH  12  13
ENDBRANCH  11  12
ENDBRANCH   4  11
BRANCH   8  24
HETATM   24  C   UNL     1      39.799  -9.953   4.134  1.00  0.00     0.066 A 
HETATM   25  O   UNL     1      40.946  -9.764   3.418  1.00  0.00    -0.326 OA
HETATM   26  C   UNL     1      41.058  -8.429   3.195  1.00  0.00     0.142 A 
HETATM   27  C   UNL     1      39.986  -7.759   3.735  1.00  0.00     0.027 A 
HETATM   28  C   UNL     1      39.167  -8.743   4.339  1.00  0.00     0.035 A 
ENDBRANCH   8  24
BRANCH   9  29
HETATM   29  C   UNL     1      40.434 -11.497   6.959  1.00  0.00     0.255 C 
HETATM   30  N   UNL     1      41.424 -10.622   7.348  1.00  0.00    -0.323 N 
HETATM   31  H   UNL     1      42.078 -10.281   6.657  1.00  0.00     0.169 HD
HETATM   32  O   UNL     1      39.515 -11.867   7.685  1.00  0.00    -0.268 OA
BRANCH  30  33
HETATM   33  C   UNL     1      41.660 -10.122   8.650  1.00  0.00     0.035 A 
HETATM   34  C   UNL     1      42.610 -10.641   9.532  1.00  0.00     0.045 A 
HETATM   35  C   UNL     1      42.812 -10.066  10.800  1.00  0.00     0.050 A 
HETATM   36  C   UNL     1      42.023  -8.973  11.187  1.00  0.00     0.016 A 
HETATM   37  C   UNL     1      41.073  -8.449  10.315  1.00  0.00     0.003 A 
HETATM   38  C   UNL     1      40.900  -9.015   9.051  1.00  0.00     0.029 A 
BRANCH  35  39
HETATM   39  C   UNL     1      43.845 -10.634  11.740  1.00  0.00     0.417 C 
HETATM   40  F   UNL     1      43.574 -11.909  12.137  1.00  0.00    -0.166 F 
HETATM   41  F   UNL     1      45.093 -10.681  11.189  1.00  0.00    -0.166 F 
HETATM   42  F   UNL     1      43.971  -9.902  12.881  1.00  0.00    -0.166 F 
ENDBRANCH  35  39
ENDBRANCH  30  33
ENDBRANCH   9  29
TORSDOF 9
ENDMDL
MODEL 10
REMARK VINA RESULT:      -8.7      2.471      3.148
REMARK  9 active torsions:
REMARK  status: ('A' for Active; 'I' for Inactive)
REMARK    1  A    between atoms: C_4  and  S_5 
REMARK    2  A    between atoms: S_5  and  C_6 
REMARK    3  A    between atoms: C_6  and  C_7 
REMARK       I    between atoms: C_7  and  N_8 
REMARK    4  A    between atoms: N_8  and  C_9 
REMARK    5  A    between atoms: C_9  and  C_10 
REMARK    6  A    between atoms: C_20  and  C_21 
REMARK    7  A    between atoms: C_26  and  C_27 
REMARK       I    between atoms: C_27  and  N_28 
REMARK    8  A    between atoms: N_28  and  C_29 
REMARK    9  A    between atoms: C_31  and  C_32 
ROOT
HETATM    1  C   UNL     1      40.382 -14.576   6.057  1.00  0.00     0.069 C 
HETATM    2  C   UNL     1      40.656 -13.786   4.798  1.00  0.00     0.019 C 
HETATM    3  N   UNL     1      40.512 -12.415   4.919  1.00  0.00    -0.353 N 
HETATM    4  C   UNL     1      40.856 -11.472   3.967  1.00  0.00     0.087 C 
HETATM    5  C   UNL     1      41.166 -11.914   2.725  1.00  0.00     0.057 C 
HETATM    6  C   UNL     1      41.410 -11.002   1.533  1.00  0.00     0.019 C 
HETATM    7  N   UNL     1      41.614 -10.246   0.545  1.00  0.00    -0.096 N 
HETATM    8  C   UNL     1      41.112 -13.411   2.382  1.00  0.00     0.129 C 
HETATM    9  C   UNL     1      41.007 -14.322   3.603  1.00  0.00     0.048 C 
HETATM   10  H   UNL     1      40.146 -12.068   5.799  1.00  0.00     0.166 HD
ENDROOT
BRANCH   4  11
HETATM   11  S   UNL     1      40.826  -9.749   4.334  1.00  0.00    -0.102 SA
BRANCH  11  12
HETATM   12  C   UNL     1      40.144  -9.765   6.020  1.00  0.00     0.183 C 
BRANCH  12  13
HETATM   13  C   UNL     1      41.155  -9.418   7.097  1.00  0.00     0.227 C 
HETATM   14  N   UNL     1      41.120 -10.162   8.250  1.00  0.00    -0.356 N 
HETATM   15  H   UNL     1      40.415 -10.881   8.364  1.00  0.00     0.162 HD
HETATM   16  O   UNL     1      41.903  -8.450   6.961  1.00  0.00    -0.273 OA
BRANCH  14  17
HETATM   17  C   UNL     1      41.925  -9.777   9.388  1.00  0.00     0.161 C 
BRANCH  17  18
HETATM   18  C   UNL     1      43.163 -10.618   9.549  1.00  0.00    -0.041 A 
HETATM   19  C   UNL     1      43.484 -11.620   8.621  1.00  0.00     0.009 A 
HETATM   20  C   UNL     1      44.668 -12.348   8.744  1.00  0.00     0.001 A 
HETATM   21  C   UNL     1      45.552 -12.075   9.787  1.00  0.00     0.000 A 
HETATM   22  C   UNL     1      45.251 -11.074  10.709  1.00  0.00     0.001 A 
HETATM   23  C   UNL     1      44.065 -10.348  10.590  1.00  0.00     0.009 A 
ENDBRANCH  17  18
ENDBRANCH  14  17
ENDBRANCH  12  13
ENDBRANCH  11  12
ENDBRANCH   4  11
BRANCH   8  24
HETATM   24  C   UNL     1      40.011 -13.686   1.382  1.00  0.00     0.066 A 
HETATM   25  O   UNL     1      40.410 -13.940   0.101  1.00  0.00    -0.326 OA
HETATM   26  C   UNL     1      39.286 -14.152  -0.630  1.00  0.00     0.142 A 
HETATM   27  C   UNL     1      38.169 -14.064   0.168  1.00  0.00     0.027 A 
HETATM   28  C   UNL     1      38.636 -13.768   1.471  1.00  0.00     0.035 A 
ENDBRANCH   8  24
BRANCH   9  29
HETATM   29  C   UNL     1      41.376 -15.783   3.504  1.00  0.00     0.255 C 
HETATM   30  N   UNL     1      42.542 -16.160   4.134  1.00  0.00    -0.323 N 
HETATM   31  H   UNL     1      43.055 -15.473   4.670  1.00  0.00     0.169 HD
HETATM   32  O   UNL     1      40.613 -16.563   2.942  1.00  0.00    -0.268 OA
BRANCH  30  33
HETATM   33  C   UNL     1      43.147 -17.438   4.121  1.00  0.00     0.035 A 
HETATM   34  C   UNL     1      43.139 -18.301   3.023  1.00  0.00     0.045 A 
HETATM   35  C   UNL     1      43.794 -19.545   3.075  1.00  0.00     0.050 A 
HETATM   36  C   UNL     1      44.438 -19.929   4.261  1.00  0.00     0.016 A 
HETATM   37  C   UNL     1      44.450 -19.076   5.360  1.00  0.00     0.003 A 
HETATM   38  C   UNL     1      43.817 -17.834   5.287  1.00  0.00     0.029 A 
BRANCH  35  39
HETATM   39  C   UNL     1      43.781 -20.465   1.880  1.00  0.00     0.417 C 
HETATM   40  F   UNL     1      43.970 -19.818   0.695  1.00  0.00    -0.166 F 
HETATM   41  F   UNL     1      44.755 -21.418   1.935  1.00  0.00    -0.166 F 
HETATM   42  F   UNL     1      42.607 -21.142   1.756  1.00  0.00    -0.166 F 
ENDBRANCH  35  39
ENDBRANCH  30  33
ENDBRANCH   9  29
TORSDOF 9
ENDMDL
