MODEL 1
REMARK VINA RESULT:     -10.2      0.000      0.000
REMARK  4 active torsions:
REMARK  status: ('A' for Active; 'I' for Inactive)
REMARK    1  A    between atoms: N_7  and  N_8 
REMARK       I    between atoms: N_8  and  C_9 
REMARK    2  A    between atoms: C_9  and  C_10 
REMARK    3  A    between atoms: C_15  and  C_16 
REMARK    4  A    between atoms: C_24  and  C_25 
ROOT
HETATM    1  C   UNL     1      41.237 -14.016   4.944  1.00  0.00     0.150 A 
HETATM    2  N   UNL     1      40.104 -13.363   5.289  1.00  0.00    -0.165 NA
HETATM    3  N   UNL     1      40.546 -12.355   6.058  1.00  0.00    -0.240 N 
HETATM    4  C   UNL     1      41.890 -12.381   6.297  1.00  0.00     0.123 A 
HETATM    5  N   UNL     1      42.468 -11.515   7.154  1.00  0.00    -0.366 N 
HETATM    6  C   UNL     1      41.695 -10.536   7.915  1.00  0.00     0.118 C 
HETATM    7  C   UNL     1      40.216 -10.960   8.023  1.00  0.00     0.066 C 
HETATM    8  C   UNL     1      39.645 -11.395   6.664  1.00  0.00     0.221 C 
HETATM    9  C   UNL     1      42.382 -13.412   5.541  1.00  0.00     0.089 A 
HETATM   10  H   UNL     1      43.482 -11.460   7.253  1.00  0.00     0.161 HD
ENDROOT
BRANCH   1  11
HETATM   11  C   UNL     1      41.225 -15.214   4.089  1.00  0.00     0.292 C 
HETATM   12  N   UNL     1      42.410 -15.931   4.170  1.00  0.00    -0.241 N 
HETATM   13  H   UNL     1      43.142 -15.570   4.790  1.00  0.00     0.192 HD
HETATM   14  O   UNL     1      40.263 -15.503   3.383  1.00  0.00    -0.264 OA
BRANCH  12  15
HETATM   15  N   UNL     1      42.606 -17.058   3.426  1.00  0.00    -0.165 NA
HETATM   16  C   UNL     1      43.303 -18.002   3.971  1.00  0.00     0.157 A 
HETATM   17  C   UNL     1      43.618 -19.282   3.348  1.00  0.00     0.027 A 
HETATM   18  C   UNL     1      43.965 -18.038   5.353  1.00  0.00     0.277 A 
HETATM   19  C   UNL     1      43.284 -19.786   2.107  1.00  0.00     0.016 A 
HETATM   20  C   UNL     1      44.379 -19.999   4.268  1.00  0.00     0.048 A 
HETATM   21  C   UNL     1      43.745 -21.068   1.801  1.00  0.00     0.001 A 
HETATM   22  C   UNL     1      44.514 -21.800   2.730  1.00  0.00     0.002 A 
HETATM   23  C   UNL     1      44.841 -21.266   3.982  1.00  0.00     0.030 A 
HETATM   24  N   UNL     1      44.578 -19.270   5.437  1.00  0.00    -0.321 N 
HETATM   25  H   UNL     1      45.097 -19.575   6.247  1.00  0.00     0.169 HD
HETATM   26  O   UNL     1      43.933 -17.143   6.170  1.00  0.00    -0.266 OA
ENDBRANCH  12  15
ENDBRANCH   1  11
BRANCH   8  27
HETATM   27  C   UNL     1      39.424 -10.231   5.725  1.00  0.00     0.409 C 
HETATM   28  F   UNL     1      40.503  -9.966   4.958  1.00  0.00    -0.169 F 
HETATM   29  F   UNL     1      38.406 -10.518   4.873  1.00  0.00    -0.169 F 
HETATM   30  F   UNL     1      39.080  -9.089   6.359  1.00  0.00    -0.169 F 
ENDBRANCH   8  27
BRANCH   6  31
HETATM   31  C   UNL     1      42.302 -10.377   9.302  1.00  0.00    -0.035 A 
HETATM   32  C   UNL     1      43.565 -10.920   9.586  1.00  0.00     0.012 A 
HETATM   33  C   UNL     1      44.136 -10.759  10.852  1.00  0.00     0.043 A 
HETATM   34  C   UNL     1      43.449 -10.055  11.833  1.00  0.00     0.116 A 
HETATM   35  F   UNL     1      43.999  -9.903  13.044  1.00  0.00    -0.206 F 
HETATM   36  C   UNL     1      42.200  -9.505  11.575  1.00  0.00     0.043 A 
HETATM   37  C   UNL     1      41.629  -9.662  10.312  1.00  0.00     0.012 A 
ENDBRANCH   6  31
TORSDOF 4
ENDMDL
MODEL 2
REMARK VINA RESULT:     -10.0      5.925      9.303
REMARK  4 active torsions:
REMARK  status: ('A' for Active; 'I' for Inactive)
REMARK    1  A    between atoms: N_7  and  N_8 
REMARK       I    between atoms: N_8  and  C_9 
REMARK    2  A    between atoms: C_9  and  C_10 
REMARK    3  A    between atoms: C_15  and  C_16 
REMARK    4  A    between atoms: C_24  and  C_25 
ROOT
HETATM    1  C   UNL     1      41.559 -15.215   0.947  1.00  0.00     0.150 A 
HETATM    2  N   UNL     1      40.661 -15.388   1.943  1.00  0.00    -0.165 NA
HETATM    3  N   UNL     1      41.371 -16.006   2.901  1.00  0.00    -0.240 N 
HETATM    4  C   UNL     1      42.649 -16.317   2.536  1.00  0.00     0.123 A 
HETATM    5  N   UNL     1      43.448 -17.052   3.336  1.00  0.00    -0.366 N 
HETATM    6  C   UNL     1      42.987 -17.602   4.609  1.00  0.00     0.118 C 
HETATM    7  C   UNL     1      41.448 -17.698   4.646  1.00  0.00     0.066 C 
HETATM    8  C   UNL     1      40.781 -16.399   4.164  1.00  0.00     0.221 C 
HETATM    9  C   UNL     1      42.827 -15.766   1.295  1.00  0.00     0.089 A 
HETATM   10  H   UNL     1      44.435 -17.194   3.119  1.00  0.00     0.161 HD
ENDROOT
BRANCH   1  11
HETATM   11  C   UNL     1      41.207 -14.567  -0.326  1.00  0.00     0.292 C 
HETATM   12  N   UNL     1      42.308 -14.002  -0.954  1.00  0.00    -0.241 N 
HETATM   13  H   UNL     1      43.216 -14.090  -0.487  1.00  0.00     0.192 HD
HETATM   14  O   UNL     1      40.053 -14.533  -0.745  1.00  0.00    -0.264 OA
BRANCH  12  15
HETATM   15  N   UNL     1      42.181 -13.326  -2.132  1.00  0.00    -0.165 NA
HETATM   16  C   UNL     1      42.378 -12.048  -2.095  1.00  0.00     0.157 A 
HETATM   17  C   UNL     1      42.298 -11.151  -3.241  1.00  0.00     0.027 A 
HETATM   18  C   UNL     1      42.730 -11.160  -0.896  1.00  0.00     0.277 A 
HETATM   19  C   UNL     1      42.010 -11.407  -4.566  1.00  0.00     0.016 A 
HETATM   20  C   UNL     1      42.579  -9.871  -2.769  1.00  0.00     0.048 A 
HETATM   21  C   UNL     1      42.012 -10.314  -5.436  1.00  0.00     0.001 A 
HETATM   22  C   UNL     1      42.299  -9.016  -4.964  1.00  0.00     0.002 A 
HETATM   23  C   UNL     1      42.587  -8.782  -3.614  1.00  0.00     0.030 A 
HETATM   24  N   UNL     1      42.832  -9.881  -1.400  1.00  0.00    -0.321 N 
HETATM   25  H   UNL     1      43.058  -9.079  -0.831  1.00  0.00     0.169 HD
HETATM   26  O   UNL     1      42.875 -11.546   0.244  1.00  0.00    -0.266 OA
ENDBRANCH  12  15
ENDBRANCH   1  11
BRANCH   8  27
HETATM   27  C   UNL     1      40.910 -15.273   5.165  1.00  0.00     0.409 C 
HETATM   28  F   UNL     1      41.915 -14.423   4.870  1.00  0.00    -0.169 F 
HETATM   29  F   UNL     1      39.768 -14.535   5.172  1.00  0.00    -0.169 F 
HETATM   30  F   UNL     1      41.092 -15.702   6.433  1.00  0.00    -0.169 F 
ENDBRANCH   8  27
BRANCH   6  31
HETATM   31  C   UNL     1      43.607 -18.974   4.825  1.00  0.00    -0.035 A 
HETATM   32  C   UNL     1      44.241 -19.637   3.761  1.00  0.00     0.012 A 
HETATM   33  C   UNL     1      44.831 -20.889   3.959  1.00  0.00     0.043 A 
HETATM   34  C   UNL     1      44.790 -21.479   5.216  1.00  0.00     0.116 A 
HETATM   35  F   UNL     1      45.356 -22.678   5.401  1.00  0.00    -0.206 F 
HETATM   36  C   UNL     1      44.173 -20.842   6.284  1.00  0.00     0.043 A 
HETATM   37  C   UNL     1      43.586 -19.592   6.091  1.00  0.00     0.012 A 
ENDBRANCH   6  31
TORSDOF 4
ENDMDL
MODEL 3
REMARK VINA RESULT:     -10.0      3.810      9.667
REMARK  4 active torsions:
REMARK  status: ('A' for Active; 'I' for Inactive)
REMARK    1  A    between atoms: N_7  and  N_8 
REMARK       I    between atoms: N_8  and  C_9 
REMARK    2  A    between atoms: C_9  and  C_10 
REMARK    3  A    between atoms: C_15  and  C_16 
REMARK    4  A    between atoms: C_24  and  C_25 
ROOT
HETATM    1  C   UNL     1      39.826 -13.616   5.119  1.00  0.00     0.150 A 
HETATM    2  N   UNL     1      40.368 -13.422   3.894  1.00  0.00    -0.165 NA
HETATM    3  N   UNL     1      40.743 -14.655   3.519  1.00  0.00    -0.240 N 
HETATM    4  C   UNL     1      40.553 -15.613   4.474  1.00  0.00     0.123 A 
HETATM    5  N   UNL     1      40.996 -16.875   4.300  1.00  0.00    -0.366 N 
HETATM    6  C   UNL     1      41.747 -17.284   3.116  1.00  0.00     0.118 C 
HETATM    7  C   UNL     1      42.392 -16.067   2.420  1.00  0.00     0.066 C 
HETATM    8  C   UNL     1      41.393 -14.910   2.249  1.00  0.00     0.221 C 
HETATM    9  C   UNL     1      39.904 -14.986   5.504  1.00  0.00     0.089 A 
HETATM   10  H   UNL     1      40.762 -17.617   4.960  1.00  0.00     0.161 HD
ENDROOT
BRANCH   1  11
HETATM   11  C   UNL     1      39.276 -12.512   5.920  1.00  0.00     0.292 C 
HETATM   12  N   UNL     1      39.567 -12.643   7.269  1.00  0.00    -0.241 N 
HETATM   13  H   UNL     1      40.112 -13.460   7.560  1.00  0.00     0.192 HD
HETATM   14  O   UNL     1      38.622 -11.602   5.416  1.00  0.00    -0.264 OA
BRANCH  12  15
HETATM   15  N   UNL     1      39.116 -11.734   8.182  1.00  0.00    -0.165 NA
HETATM   16  C   UNL     1      39.960 -10.837   8.577  1.00  0.00     0.157 A 
HETATM   17  C   UNL     1      39.673  -9.777   9.536  1.00  0.00     0.027 A 
HETATM   18  C   UNL     1      41.426 -10.645   8.172  1.00  0.00     0.277 A 
HETATM   19  C   UNL     1      38.517  -9.475  10.226  1.00  0.00     0.016 A 
HETATM   20  C   UNL     1      40.845  -9.036   9.677  1.00  0.00     0.048 A 
HETATM   21  C   UNL     1      38.563  -8.376  11.087  1.00  0.00     0.001 A 
HETATM   22  C   UNL     1      39.745  -7.621  11.232  1.00  0.00     0.002 A 
HETATM   23  C   UNL     1      40.907  -7.949  10.521  1.00  0.00     0.030 A 
HETATM   24  N   UNL     1      41.865  -9.546   8.878  1.00  0.00    -0.321 N 
HETATM   25  H   UNL     1      42.803  -9.182   8.809  1.00  0.00     0.169 HD
HETATM   26  O   UNL     1      42.035 -11.345   7.391  1.00  0.00    -0.266 OA
ENDBRANCH  12  15
ENDBRANCH   1  11
BRANCH   8  27
HETATM   27  C   UNL     1      40.356 -15.189   1.185  1.00  0.00     0.409 C 
HETATM   28  F   UNL     1      40.003 -14.084   0.496  1.00  0.00    -0.169 F 
HETATM   29  F   UNL     1      40.858 -16.067   0.277  1.00  0.00    -0.169 F 
HETATM   30  F   UNL     1      39.226 -15.749   1.672  1.00  0.00    -0.169 F 
ENDBRANCH   8  27
BRANCH   6  31
HETATM   31  C   UNL     1      42.815 -18.292   3.513  1.00  0.00    -0.035 A 
HETATM   32  C   UNL     1      43.177 -18.441   4.862  1.00  0.00     0.012 A 
HETATM   33  C   UNL     1      44.143 -19.380   5.235  1.00  0.00     0.043 A 
HETATM   34  C   UNL     1      44.746 -20.171   4.265  1.00  0.00     0.116 A 
HETATM   35  F   UNL     1      45.671 -21.069   4.627  1.00  0.00    -0.206 F 
HETATM   36  C   UNL     1      44.402 -20.045   2.926  1.00  0.00     0.043 A 
HETATM   37  C   UNL     1      43.437 -19.111   2.550  1.00  0.00     0.012 A 
ENDBRANCH   6  31
TORSDOF 4
ENDMDL
MODEL 4
REMARK VINA RESULT:      -9.9      5.951      9.671
REMARK  4 active torsions:
REMARK  status: ('A' for Active; 'I' for Inactive)
REMARK    1  A    between atoms: N_7  and  N_8 
REMARK       I    between atoms: N_8  and  C_9 
REMARK    2  A    between atoms: C_9  and  C_10 
REMARK    3  A    between atoms: C_15  and  C_16 
REMARK    4  A    between atoms: C_24  and  C_25 
ROOT
HETATM    1  C   UNL     1      41.985 -13.446   2.410  1.00  0.00     0.150 A 
HETATM    2  N   UNL     1      40.978 -14.042   3.090  1.00  0.00    -0.165 NA
HETATM    3  N   UNL     1      41.551 -15.146   3.595  1.00  0.00    -0.240 N 
HETATM    4  C   UNL     1      42.845 -15.335   3.200  1.00  0.00     0.123 A 
HETATM    5  N   UNL     1      43.517 -16.460   3.516  1.00  0.00    -0.366 N 
HETATM    6  C   UNL     1      42.897 -17.563   4.247  1.00  0.00     0.118 C 
HETATM    7  C   UNL     1      41.359 -17.512   4.128  1.00  0.00     0.066 C 
HETATM    8  C   UNL     1      40.812 -16.100   4.396  1.00  0.00     0.221 C 
HETATM    9  C   UNL     1      43.180 -14.220   2.479  1.00  0.00     0.089 A 
HETATM   10  H   UNL     1      44.513 -16.559   3.318  1.00  0.00     0.161 HD
ENDROOT
BRANCH   1  11
HETATM   11  C   UNL     1      41.802 -12.181   1.681  1.00  0.00     0.292 C 
HETATM   12  N   UNL     1      42.521 -12.147   0.496  1.00  0.00    -0.241 N 
HETATM   13  H   UNL     1      43.083 -12.970   0.257  1.00  0.00     0.192 HD
HETATM   14  O   UNL     1      41.099 -11.273   2.116  1.00  0.00    -0.264 OA
BRANCH  12  15
HETATM   15  N   UNL     1      42.507 -11.044  -0.307  1.00  0.00    -0.165 NA
HETATM   16  C   UNL     1      42.472 -11.253  -1.584  1.00  0.00     0.157 A 
HETATM   17  C   UNL     1      42.445 -10.214  -2.606  1.00  0.00     0.027 A 
HETATM   18  C   UNL     1      42.455 -12.585  -2.344  1.00  0.00     0.277 A 
HETATM   19  C   UNL     1      42.452  -8.839  -2.493  1.00  0.00     0.016 A 
HETATM   20  C   UNL     1      42.408 -10.864  -3.838  1.00  0.00     0.048 A 
HETATM   21  C   UNL     1      42.418  -8.106  -3.681  1.00  0.00     0.001 A 
HETATM   22  C   UNL     1      42.378  -8.759  -4.931  1.00  0.00     0.002 A 
HETATM   23  C   UNL     1      42.374 -10.156  -5.020  1.00  0.00     0.030 A 
HETATM   24  N   UNL     1      42.413 -12.248  -3.679  1.00  0.00    -0.321 N 
HETATM   25  H   UNL     1      42.392 -12.930  -4.422  1.00  0.00     0.169 HD
HETATM   26  O   UNL     1      42.478 -13.684  -1.833  1.00  0.00    -0.266 OA
ENDBRANCH  12  15
ENDBRANCH   1  11
BRANCH   8  27
HETATM   27  C   UNL     1      40.887 -15.714   5.856  1.00  0.00     0.409 C 
HETATM   28  F   UNL     1      40.059 -14.696   6.171  1.00  0.00    -0.169 F 
HETATM   29  F   UNL     1      40.512 -16.769   6.627  1.00  0.00    -0.169 F 
HETATM   30  F   UNL     1      42.131 -15.373   6.257  1.00  0.00    -0.169 F 
ENDBRANCH   8  27
BRANCH   6  31
HETATM   31  C   UNL     1      43.424 -18.887   3.713  1.00  0.00    -0.035 A 
HETATM   32  C   UNL     1      43.079 -19.314   2.421  1.00  0.00     0.012 A 
HETATM   33  C   UNL     1      43.577 -20.520   1.918  1.00  0.00     0.043 A 
HETATM   34  C   UNL     1      44.419 -21.298   2.703  1.00  0.00     0.116 A 
HETATM   35  F   UNL     1      44.893 -22.452   2.217  1.00  0.00    -0.206 F 
HETATM   36  C   UNL     1      44.778 -20.895   3.982  1.00  0.00     0.043 A 
HETATM   37  C   UNL     1      44.284 -19.692   4.486  1.00  0.00     0.012 A 
ENDBRANCH   6  31
TORSDOF 4
ENDMDL
MODEL 5
REMARK VINA RESULT:      -9.8      3.547     10.045
REMARK  4 active torsions:
REMARK  status: ('A' for Active; 'I' for Inactive)
REMARK    1  A    between atoms: N_7  and  N_8 
REMARK       I    between atoms: N_8  and  C_9 
REMARK    2  A    between atoms: C_9  and  C_10 
REMARK    3  A    between atoms: C_15  and  C_16 
REMARK    4  A    between atoms: C_24  and  C_25 
ROOT
HETATM    1  C   UNL     1      43.024 -13.957   5.874  1.00  0.00     0.150 A 
HETATM    2  N   UNL     1      43.369 -13.713   4.588  1.00  0.00    -0.165 NA
HETATM    3  N   UNL     1      43.107 -14.875   3.969  1.00  0.00    -0.240 N 
HETATM    4  C   UNL     1      42.699 -15.875   4.805  1.00  0.00     0.123 A 
HETATM    5  N   UNL     1      42.522 -17.135   4.358  1.00  0.00    -0.366 N 
HETATM    6  C   UNL     1      42.801 -17.521   2.977  1.00  0.00     0.118 C 
HETATM    7  C   UNL     1      43.769 -16.524   2.307  1.00  0.00     0.066 C 
HETATM    8  C   UNL     1      43.348 -15.066   2.553  1.00  0.00     0.221 C 
HETATM    9  C   UNL     1      42.576 -15.299   6.041  1.00  0.00     0.089 A 
HETATM   10  H   UNL     1      42.115 -17.859   4.951  1.00  0.00     0.161 HD
ENDROOT
BRANCH   1  11
HETATM   11  C   UNL     1      43.152 -12.939   6.928  1.00  0.00     0.292 C 
HETATM   12  N   UNL     1      42.075 -12.065   6.951  1.00  0.00    -0.241 N 
HETATM   13  H   UNL     1      41.331 -12.210   6.261  1.00  0.00     0.192 HD
HETATM   14  O   UNL     1      44.127 -12.889   7.674  1.00  0.00    -0.264 OA
BRANCH  12  15
HETATM   15  N   UNL     1      42.023 -11.029   7.838  1.00  0.00    -0.165 NA
HETATM   16  C   UNL     1      40.884 -10.808   8.410  1.00  0.00     0.157 A 
HETATM   17  C   UNL     1      40.623  -9.759   9.388  1.00  0.00     0.027 A 
HETATM   18  C   UNL     1      39.552 -11.545   8.225  1.00  0.00     0.277 A 
HETATM   19  C   UNL     1      41.457  -8.798   9.922  1.00  0.00     0.016 A 
HETATM   20  C   UNL     1      39.281  -9.871   9.748  1.00  0.00     0.048 A 
HETATM   21  C   UNL     1      40.898  -7.923  10.856  1.00  0.00     0.001 A 
HETATM   22  C   UNL     1      39.541  -8.032  11.225  1.00  0.00     0.002 A 
HETATM   23  C   UNL     1      38.714  -9.016  10.668  1.00  0.00     0.030 A 
HETATM   24  N   UNL     1      38.661 -10.915   9.068  1.00  0.00    -0.321 N 
HETATM   25  H   UNL     1      37.695 -11.191   9.157  1.00  0.00     0.169 HD
HETATM   26  O   UNL     1      39.366 -12.481   7.478  1.00  0.00    -0.266 OA
ENDBRANCH  12  15
ENDBRANCH   1  11
BRANCH   8  27
HETATM   27  C   UNL     1      42.120 -14.673   1.764  1.00  0.00     0.409 C 
HETATM   28  F   UNL     1      40.977 -14.822   2.466  1.00  0.00    -0.169 F 
HETATM   29  F   UNL     1      42.196 -13.360   1.423  1.00  0.00    -0.169 F 
HETATM   30  F   UNL     1      41.984 -15.359   0.608  1.00  0.00    -0.169 F 
ENDBRANCH   8  27
BRANCH   6  31
HETATM   31  C   UNL     1      43.388 -18.925   2.950  1.00  0.00    -0.035 A 
HETATM   32  C   UNL     1      44.194 -19.373   4.008  1.00  0.00     0.012 A 
HETATM   33  C   UNL     1      44.719 -20.669   3.999  1.00  0.00     0.043 A 
HETATM   34  C   UNL     1      44.438 -21.518   2.935  1.00  0.00     0.116 A 
HETATM   35  F   UNL     1      44.942 -22.758   2.930  1.00  0.00    -0.206 F 
HETATM   36  C   UNL     1      43.640 -21.099   1.879  1.00  0.00     0.043 A 
HETATM   37  C   UNL     1      43.113 -19.808   1.886  1.00  0.00     0.012 A 
ENDBRANCH   6  31
TORSDOF 4
ENDMDL
MODEL 6
REMARK VINA RESULT:      -9.7      6.347     10.108
REMARK  4 active torsions:
REMARK  status: ('A' for Active; 'I' for Inactive)
REMARK    1  A    between atoms: N_7  and  N_8 
REMARK       I    between atoms: N_8  and  C_9 
REMARK    2  A    between atoms: C_9  and  C_10 
REMARK    3  A    between atoms: C_15  and  C_16 
REMARK    4  A    between atoms: C_24  and  C_25 
ROOT
HETATM    1  C   UNL     1      40.942 -14.930   0.914  1.00  0.00     0.150 A 
HETATM    2  N   UNL     1      40.844 -14.898   2.263  1.00  0.00    -0.165 NA
HETATM    3  N   UNL     1      41.827 -15.718   2.668  1.00  0.00    -0.240 N 
HETATM    4  C   UNL     1      42.490 -16.341   1.649  1.00  0.00     0.123 A 
HETATM    5  N   UNL     1      43.415 -17.291   1.892  1.00  0.00    -0.366 N 
HETATM    6  C   UNL     1      43.729 -17.749   3.244  1.00  0.00     0.118 C 
HETATM    7  C   UNL     1      42.574 -17.437   4.218  1.00  0.00     0.066 C 
HETATM    8  C   UNL     1      42.075 -15.990   4.069  1.00  0.00     0.221 C 
HETATM    9  C   UNL     1      41.982 -15.808   0.494  1.00  0.00     0.089 A 
HETATM   10  H   UNL     1      43.989 -17.681   1.144  1.00  0.00     0.161 HD
ENDROOT
BRANCH   1  11
HETATM   11  C   UNL     1      40.039 -14.162   0.041  1.00  0.00     0.292 C 
HETATM   12  N   UNL     1      40.697 -13.619  -1.052  1.00  0.00    -0.241 N 
HETATM   13  H   UNL     1      41.703 -13.799  -1.138  1.00  0.00     0.192 HD
HETATM   14  O   UNL     1      38.845 -14.025   0.296  1.00  0.00    -0.264 OA
BRANCH  12  15
HETATM   15  N   UNL     1      40.038 -12.845  -1.962  1.00  0.00    -0.165 NA
HETATM   16  C   UNL     1      40.750 -12.318  -2.904  1.00  0.00     0.157 A 
HETATM   17  C   UNL     1      40.237 -11.470  -3.973  1.00  0.00     0.027 A 
HETATM   18  C   UNL     1      42.261 -12.427  -3.148  1.00  0.00     0.277 A 
HETATM   19  C   UNL     1      38.955 -11.036  -4.241  1.00  0.00     0.016 A 
HETATM   20  C   UNL     1      41.328 -11.121  -4.767  1.00  0.00     0.048 A 
HETATM   21  C   UNL     1      38.785 -10.219  -5.361  1.00  0.00     0.001 A 
HETATM   22  C   UNL     1      39.885  -9.865  -6.170  1.00  0.00     0.002 A 
HETATM   23  C   UNL     1      41.177 -10.317  -5.876  1.00  0.00     0.030 A 
HETATM   24  N   UNL     1      42.506 -11.683  -4.282  1.00  0.00    -0.321 N 
HETATM   25  H   UNL     1      43.425 -11.574  -4.684  1.00  0.00     0.169 HD
HETATM   26  O   UNL     1      43.040 -13.047  -2.457  1.00  0.00    -0.266 OA
ENDBRANCH  12  15
ENDBRANCH   1  11
BRANCH   8  27
HETATM   27  C   UNL     1      43.051 -14.978   4.625  1.00  0.00     0.409 C 
HETATM   28  F   UNL     1      43.832 -14.426   3.673  1.00  0.00    -0.169 F 
HETATM   29  F   UNL     1      42.368 -13.956   5.205  1.00  0.00    -0.169 F 
HETATM   30  F   UNL     1      43.861 -15.484   5.581  1.00  0.00    -0.169 F 
ENDBRANCH   8  27
BRANCH   6  31
HETATM   31  C   UNL     1      44.012 -19.244   3.222  1.00  0.00    -0.035 A 
HETATM   32  C   UNL     1      43.723 -20.000   2.074  1.00  0.00     0.012 A 
HETATM   33  C   UNL     1      43.999 -21.370   2.041  1.00  0.00     0.043 A 
HETATM   34  C   UNL     1      44.566 -21.986   3.151  1.00  0.00     0.116 A 
HETATM   35  F   UNL     1      44.829 -23.297   3.114  1.00  0.00    -0.206 F 
HETATM   36  C   UNL     1      44.865 -21.259   4.295  1.00  0.00     0.043 A 
HETATM   37  C   UNL     1      44.592 -19.891   4.331  1.00  0.00     0.012 A 
ENDBRANCH   6  31
TORSDOF 4
ENDMDL
MODEL 7
REMARK VINA RESULT:      -9.7      5.457      8.164
REMARK  4 active torsions:
REMARK  status: ('A' for Active; 'I' for Inactive)
REMARK    1  A    between atoms: N_7  and  N_8 
REMARK       I    between atoms: N_8  and  C_9 
REMARK    2  A    between atoms: C_9  and  C_10 
REMARK    3  A    between atoms: C_15  and  C_16 
REMARK    4  A    between atoms: C_24  and  C_25 
ROOT
HETATM    1  C   UNL     1      41.573 -15.666   0.424  1.00  0.00     0.150 A 
HETATM    2  N   UNL     1      42.015 -14.646   1.196  1.00  0.00    -0.165 NA
HETATM    3  N   UNL     1      41.699 -13.554   0.482  1.00  0.00    -0.240 N 
HETATM    4  C   UNL     1      41.162 -13.824  -0.744  1.00  0.00     0.123 A 
HETATM    5  N   UNL     1      40.911 -12.840  -1.633  1.00  0.00    -0.366 N 
HETATM    6  C   UNL     1      41.244 -11.443  -1.366  1.00  0.00     0.118 C 
HETATM    7  C   UNL     1      42.329 -11.329  -0.275  1.00  0.00     0.066 C 
HETATM    8  C   UNL     1      42.012 -12.216   0.941  1.00  0.00     0.221 C 
HETATM    9  C   UNL     1      41.009 -15.184  -0.792  1.00  0.00     0.089 A 
HETATM   10  H   UNL     1      40.411 -13.023  -2.503  1.00  0.00     0.161 HD
ENDROOT
BRANCH   1  11
HETATM   11  C   UNL     1      41.716 -17.074   0.825  1.00  0.00     0.292 C 
HETATM   12  N   UNL     1      43.044 -17.457   0.943  1.00  0.00    -0.241 N 
HETATM   13  H   UNL     1      43.760 -16.750   0.748  1.00  0.00     0.192 HD
HETATM   14  O   UNL     1      40.745 -17.804   1.007  1.00  0.00    -0.264 OA
BRANCH  12  15
HETATM   15  N   UNL     1      43.385 -18.736   1.274  1.00  0.00    -0.165 NA
HETATM   16  C   UNL     1      43.728 -18.948   2.503  1.00  0.00     0.157 A 
HETATM   17  C   UNL     1      44.118 -20.238   3.057  1.00  0.00     0.027 A 
HETATM   18  C   UNL     1      43.822 -17.951   3.665  1.00  0.00     0.277 A 
HETATM   19  C   UNL     1      44.219 -21.480   2.464  1.00  0.00     0.016 A 
HETATM   20  C   UNL     1      44.405 -20.026   4.405  1.00  0.00     0.048 A 
HETATM   21  C   UNL     1      44.626 -22.539   3.278  1.00  0.00     0.001 A 
HETATM   22  C   UNL     1      44.915 -22.331   4.643  1.00  0.00     0.002 A 
HETATM   23  C   UNL     1      44.806 -21.061   5.222  1.00  0.00     0.030 A 
HETATM   24  N   UNL     1      44.229 -18.690   4.755  1.00  0.00    -0.321 N 
HETATM   25  H   UNL     1      44.376 -18.292   5.670  1.00  0.00     0.169 HD
HETATM   26  O   UNL     1      43.581 -16.765   3.593  1.00  0.00    -0.266 OA
ENDBRANCH  12  15
ENDBRANCH   1  11
BRANCH   8  27
HETATM   27  C   UNL     1      40.870 -11.677   1.773  1.00  0.00     0.409 C 
HETATM   28  F   UNL     1      41.022 -11.925   3.091  1.00  0.00    -0.169 F 
HETATM   29  F   UNL     1      40.806 -10.326   1.639  1.00  0.00    -0.169 F 
HETATM   30  F   UNL     1      39.663 -12.154   1.400  1.00  0.00    -0.169 F 
ENDBRANCH   8  27
BRANCH   6  31
HETATM   31  C   UNL     1      41.716 -10.778  -2.651  1.00  0.00    -0.035 A 
HETATM   32  C   UNL     1      42.024  -9.408  -2.665  1.00  0.00     0.012 A 
HETATM   33  C   UNL     1      42.478  -8.797  -3.837  1.00  0.00     0.043 A 
HETATM   34  C   UNL     1      42.627  -9.551  -4.995  1.00  0.00     0.116 A 
HETATM   35  F   UNL     1      43.062  -8.962  -6.115  1.00  0.00    -0.206 F 
HETATM   36  C   UNL     1      42.333 -10.908  -5.005  1.00  0.00     0.043 A 
HETATM   37  C   UNL     1      41.882 -11.522  -3.836  1.00  0.00     0.012 A 
ENDBRANCH   6  31
TORSDOF 4
ENDMDL
MODEL 8
REMARK VINA RESULT:      -9.6      5.932     10.093
REMARK  4 active torsions:
REMARK  status: ('A' for Active; 'I' for Inactive)
REMARK    1  A    between atoms: N_7  and  N_8 
REMARK       I    between atoms: N_8  and  C_9 
REMARK    2  A    between atoms: C_9  and  C_10 
REMARK    3  A    between atoms: C_15  and  C_16 
REMARK    4  A    between atoms: C_24  and  C_25 
ROOT
HETATM    1  C   UNL     1      39.989 -15.065   1.656  1.00  0.00     0.150 A 
HETATM    2  N   UNL     1      40.295 -14.969   2.970  1.00  0.00    -0.165 NA
HETATM    3  N   UNL     1      41.405 -15.715   3.089  1.00  0.00    -0.240 N 
HETATM    4  C   UNL     1      41.772 -16.357   1.940  1.00  0.00     0.123 A 
HETATM    5  N   UNL     1      42.788 -17.245   1.927  1.00  0.00    -0.366 N 
HETATM    6  C   UNL     1      43.518 -17.615   3.137  1.00  0.00     0.118 C 
HETATM    7  C   UNL     1      42.688 -17.311   4.402  1.00  0.00     0.066 C 
HETATM    8  C   UNL     1      42.076 -15.901   4.359  1.00  0.00     0.221 C 
HETATM    9  C   UNL     1      40.911 -15.911   0.974  1.00  0.00     0.089 A 
HETATM   10  H   UNL     1      43.136 -17.643   1.055  1.00  0.00     0.161 HD
ENDROOT
BRANCH   1  11
HETATM   11  C   UNL     1      38.820 -14.392   1.068  1.00  0.00     0.292 C 
HETATM   12  N   UNL     1      39.180 -13.356   0.219  1.00  0.00    -0.241 N 
HETATM   13  H   UNL     1      40.180 -13.173   0.092  1.00  0.00     0.192 HD
HETATM   14  O   UNL     1      37.669 -14.725   1.339  1.00  0.00    -0.264 OA
BRANCH  12  15
HETATM   15  N   UNL     1      38.236 -12.588  -0.398  1.00  0.00    -0.165 NA
HETATM   16  C   UNL     1      38.052 -12.795  -1.662  1.00  0.00     0.157 A 
HETATM   17  C   UNL     1      37.091 -12.088  -2.499  1.00  0.00     0.027 A 
HETATM   18  C   UNL     1      38.760 -13.789  -2.591  1.00  0.00     0.277 A 
HETATM   19  C   UNL     1      36.193 -11.086  -2.191  1.00  0.00     0.016 A 
HETATM   20  C   UNL     1      37.214 -12.614  -3.784  1.00  0.00     0.048 A 
HETATM   21  C   UNL     1      35.395 -10.609  -3.233  1.00  0.00     0.001 A 
HETATM   22  C   UNL     1      35.514 -11.139  -4.534  1.00  0.00     0.002 A 
HETATM   23  C   UNL     1      36.434 -12.155  -4.823  1.00  0.00     0.030 A 
HETATM   24  N   UNL     1      38.189 -13.607  -3.832  1.00  0.00    -0.321 N 
HETATM   25  H   UNL     1      38.461 -14.133  -4.649  1.00  0.00     0.169 HD
HETATM   26  O   UNL     1      39.639 -14.555  -2.259  1.00  0.00    -0.266 OA
ENDBRANCH  12  15
ENDBRANCH   1  11
BRANCH   8  27
HETATM   27  C   UNL     1      43.106 -14.813   4.562  1.00  0.00     0.409 C 
HETATM   28  F   UNL     1      43.745 -14.479   3.421  1.00  0.00    -0.169 F 
HETATM   29  F   UNL     1      42.496 -13.684   5.008  1.00  0.00    -0.169 F 
HETATM   30  F   UNL     1      44.043 -15.128   5.482  1.00  0.00    -0.169 F 
ENDBRANCH   8  27
BRANCH   6  31
HETATM   31  C   UNL     1      43.877 -19.092   3.083  1.00  0.00    -0.035 A 
HETATM   32  C   UNL     1      44.503 -19.707   4.179  1.00  0.00     0.012 A 
HETATM   33  C   UNL     1      44.816 -21.069   4.143  1.00  0.00     0.043 A 
HETATM   34  C   UNL     1      44.503 -21.819   3.015  1.00  0.00     0.116 A 
HETATM   35  F   UNL     1      44.804 -23.122   2.985  1.00  0.00    -0.206 F 
HETATM   36  C   UNL     1      43.880 -21.234   1.920  1.00  0.00     0.043 A 
HETATM   37  C   UNL     1      43.565 -19.876   1.954  1.00  0.00     0.012 A 
ENDBRANCH   6  31
TORSDOF 4
ENDMDL
MODEL 9
REMARK VINA RESULT:      -9.5      4.549      9.829
REMARK  4 active torsions:
REMARK  status: ('A' for Active; 'I' for Inactive)
REMARK    1  A    between atoms: N_7  and  N_8 
REMARK       I    between atoms: N_8  and  C_9 
REMARK    2  A    between atoms: C_9  and  C_10 
REMARK    3  A    between atoms: C_15  and  C_16 
REMARK    4  A    between atoms: C_24  and  C_25 
ROOT
HETATM    1  C   UNL     1      40.993 -14.467   4.940  1.00  0.00     0.150 A 
HETATM    2  N   UNL     1      41.096 -15.217   6.061  1.00  0.00    -0.165 NA
HETATM    3  N   UNL     1      42.054 -16.107   5.755  1.00  0.00    -0.240 N 
HETATM    4  C   UNL     1      42.505 -16.023   4.468  1.00  0.00     0.123 A 
HETATM    5  N   UNL     1      43.371 -16.928   3.968  1.00  0.00    -0.366 N 
HETATM    6  C   UNL     1      43.838 -18.075   4.743  1.00  0.00     0.118 C 
HETATM    7  C   UNL     1      42.869 -18.395   5.900  1.00  0.00     0.066 C 
HETATM    8  C   UNL     1      42.480 -17.132   6.686  1.00  0.00     0.221 C 
HETATM    9  C   UNL     1      41.882 -14.931   3.927  1.00  0.00     0.089 A 
HETATM   10  H   UNL     1      43.793 -16.808   3.047  1.00  0.00     0.161 HD
ENDROOT
BRANCH   1  11
HETATM   11  C   UNL     1      40.042 -13.350   4.825  1.00  0.00     0.292 C 
HETATM   12  N   UNL     1      39.919 -12.893   3.522  1.00  0.00    -0.241 N 
HETATM   13  H   UNL     1      40.479 -13.359   2.801  1.00  0.00     0.192 HD
HETATM   14  O   UNL     1      39.455 -12.889   5.801  1.00  0.00    -0.264 OA
BRANCH  12  15
HETATM   15  N   UNL     1      39.108 -11.840   3.215  1.00  0.00    -0.165 NA
HETATM   16  C   UNL     1      38.275 -12.010   2.240  1.00  0.00     0.157 A 
HETATM   17  C   UNL     1      37.322 -11.015   1.763  1.00  0.00     0.027 A 
HETATM   18  C   UNL     1      38.068 -13.243   1.351  1.00  0.00     0.277 A 
HETATM   19  C   UNL     1      37.076  -9.726   2.192  1.00  0.00     0.016 A 
HETATM   20  C   UNL     1      36.623 -11.601   0.710  1.00  0.00     0.048 A 
HETATM   21  C   UNL     1      36.080  -9.016   1.519  1.00  0.00     0.001 A 
HETATM   22  C   UNL     1      35.367  -9.605   0.453  1.00  0.00     0.002 A 
HETATM   23  C   UNL     1      35.636 -10.914   0.037  1.00  0.00     0.030 A 
HETATM   24  N   UNL     1      37.061 -12.902   0.474  1.00  0.00    -0.321 N 
HETATM   25  H   UNL     1      36.710 -13.527  -0.235  1.00  0.00     0.169 HD
HETATM   26  O   UNL     1      38.689 -14.281   1.436  1.00  0.00    -0.266 OA
ENDBRANCH  12  15
ENDBRANCH   1  11
BRANCH   8  27
HETATM   27  C   UNL     1      43.609 -16.610   7.545  1.00  0.00     0.409 C 
HETATM   28  F   UNL     1      43.359 -16.729   8.866  1.00  0.00    -0.169 F 
HETATM   29  F   UNL     1      44.738 -17.326   7.300  1.00  0.00    -0.169 F 
HETATM   30  F   UNL     1      43.917 -15.318   7.299  1.00  0.00    -0.169 F 
ENDBRANCH   8  27
BRANCH   6  31
HETATM   31  C   UNL     1      43.986 -19.281   3.828  1.00  0.00    -0.035 A 
HETATM   32  C   UNL     1      44.667 -20.425   4.273  1.00  0.00     0.012 A 
HETATM   33  C   UNL     1      44.787 -21.545   3.445  1.00  0.00     0.043 A 
HETATM   34  C   UNL     1      44.226 -21.524   2.173  1.00  0.00     0.116 A 
HETATM   35  F   UNL     1      44.344 -22.598   1.383  1.00  0.00    -0.206 F 
HETATM   36  C   UNL     1      43.544 -20.406   1.712  1.00  0.00     0.043 A 
HETATM   37  C   UNL     1      43.421 -19.288   2.537  1.00  0.00     0.012 A 
ENDBRANCH   6  31
TORSDOF 4
ENDMDL
MODEL 10
REMARK VINA RESULT:      -9.4      4.221      9.977
REMARK  4 active torsions:
REMARK  status: ('A' for Active; 'I' for Inactive)
REMARK    1  A    between atoms: N_7  and  N_8 
REMARK       I    between atoms: N_8  and  C_9 
REMARK    2  A    between atoms: C_9  and  C_10 
REMARK    3  A    between atoms: C_15  and  C_16 
REMARK    4  A    between atoms: C_24  and  C_25 
ROOT
HETATM    1  C   UNL     1      43.367 -14.889   5.079  1.00  0.00     0.150 A 
HETATM    2  N   UNL     1      43.173 -16.158   4.654  1.00  0.00    -0.165 NA
HETATM    3  N   UNL     1      42.859 -16.008   3.357  1.00  0.00    -0.240 N 
HETATM    4  C   UNL     1      42.753 -14.708   2.954  1.00  0.00     0.123 A 
HETATM    5  N   UNL     1      42.319 -14.389   1.717  1.00  0.00    -0.366 N 
HETATM    6  C   UNL     1      41.887 -15.401   0.755  1.00  0.00     0.118 C 
HETATM    7  C   UNL     1      41.497 -16.713   1.468  1.00  0.00     0.066 C 
HETATM    8  C   UNL     1      42.553 -17.137   2.503  1.00  0.00     0.221 C 
HETATM    9  C   UNL     1      43.135 -13.953   4.030  1.00  0.00     0.089 A 
HETATM   10  H   UNL     1      42.342 -13.429   1.375  1.00  0.00     0.161 HD
ENDROOT
BRANCH   1  11
HETATM   11  C   UNL     1      43.734 -14.573   6.469  1.00  0.00     0.292 C 
HETATM   12  N   UNL     1      43.627 -13.218   6.748  1.00  0.00    -0.241 N 
HETATM   13  H   UNL     1      43.317 -12.601   5.991  1.00  0.00     0.192 HD
HETATM   14  O   UNL     1      44.106 -15.436   7.259  1.00  0.00    -0.264 OA
BRANCH  12  15
HETATM   15  N   UNL     1      43.955 -12.721   7.976  1.00  0.00    -0.165 NA
HETATM   16  C   UNL     1      43.235 -11.742   8.419  1.00  0.00     0.157 A 
HETATM   17  C   UNL     1      43.417 -11.078   9.704  1.00  0.00     0.027 A 
HETATM   18  C   UNL     1      42.050 -11.034   7.750  1.00  0.00     0.277 A 
HETATM   19  C   UNL     1      44.335 -11.301  10.710  1.00  0.00     0.016 A 
HETATM   20  C   UNL     1      42.439 -10.090   9.787  1.00  0.00     0.048 A 
HETATM   21  C   UNL     1      44.247 -10.483  11.839  1.00  0.00     0.001 A 
HETATM   22  C   UNL     1      43.257  -9.481  11.929  1.00  0.00     0.002 A 
HETATM   23  C   UNL     1      42.337  -9.275  10.894  1.00  0.00     0.030 A 
HETATM   24  N   UNL     1      41.643 -10.069   8.645  1.00  0.00    -0.321 N 
HETATM   25  H   UNL     1      40.872  -9.442   8.470  1.00  0.00     0.169 HD
HETATM   26  O   UNL     1      41.601 -11.301   6.656  1.00  0.00    -0.266 OA
ENDBRANCH  12  15
ENDBRANCH   1  11
BRANCH   8  27
HETATM   27  C   UNL     1      43.820 -17.658   1.862  1.00  0.00     0.409 C 
HETATM   28  F   UNL     1      44.390 -18.657   2.568  1.00  0.00    -0.169 F 
HETATM   29  F   UNL     1      43.535 -18.166   0.634  1.00  0.00    -0.169 F 
HETATM   30  F   UNL     1      44.755 -16.702   1.671  1.00  0.00    -0.169 F 
ENDBRANCH   8  27
BRANCH   6  31
HETATM   31  C   UNL     1      40.712 -14.869  -0.051  1.00  0.00    -0.035 A 
HETATM   32  C   UNL     1      39.564 -14.394   0.604  1.00  0.00     0.012 A 
HETATM   33  C   UNL     1      38.490 -13.885  -0.130  1.00  0.00     0.043 A 
HETATM   34  C   UNL     1      38.561 -13.846  -1.518  1.00  0.00     0.116 A 
HETATM   35  F   UNL     1      37.529 -13.357  -2.217  1.00  0.00    -0.206 F 
HETATM   36  C   UNL     1      39.687 -14.305  -2.188  1.00  0.00     0.043 A 
HETATM   37  C   UNL     1      40.761 -14.812  -1.458  1.00  0.00     0.012 A 
ENDBRANCH   6  31
TORSDOF 4
ENDMDL
