MODEL 1
REMARK VINA RESULT:      -9.3      0.000      0.000
REMARK  2 active torsions:
REMARK  status: ('A' for Active; 'I' for Inactive)
REMARK       I    between atoms: N_4  and  C_5 
REMARK       I    between atoms: C_5  and  N_6 
REMARK    1  A    between atoms: N_6  and  C_7 
REMARK    2  A    between atoms: C_20  and  C_21 
ROOT
HETATM    1  C   UNL     1      37.981 -11.945   1.805  1.00  0.00     0.011 C 
HETATM    2  C   UNL     1      39.259 -12.620   1.335  1.00  0.00     0.002 C 
HETATM    3  C   UNL     1      39.237 -14.133   1.513  1.00  0.00     0.132 C 
HETATM    4  N   UNL     1      40.172 -14.609   0.511  1.00  0.00    -0.325 N 
HETATM    5  C   UNL     1      41.175 -15.542   0.695  1.00  0.00     0.323 C 
HETATM    6  N   UNL     1      40.964 -16.377   1.771  1.00  0.00    -0.309 N 
HETATM    7  O   UNL     1      42.150 -15.601  -0.049  1.00  0.00    -0.247 OA
HETATM    8  C   UNL     1      40.187 -13.719  -0.645  1.00  0.00     0.125 C 
HETATM    9  C   UNL     1      39.535 -12.409  -0.161  1.00  0.00     0.036 C 
HETATM   10  H   UNL     1      39.992 -16.540   1.988  1.00  0.00     0.170 HD
ENDROOT
BRANCH   6  11
HETATM   11  C   UNL     1      41.911 -17.233   2.366  1.00  0.00     0.038 A 
HETATM   12  C   UNL     1      42.179 -18.519   1.889  1.00  0.00     0.062 A 
HETATM   13  C   UNL     1      43.163 -19.302   2.497  1.00  0.00     0.070 A 
HETATM   14  C   UNL     1      43.883 -18.813   3.587  1.00  0.00     0.096 A 
HETATM   15  N   UNL     1      43.453 -20.562   1.975  1.00  0.00    -0.323 N 
HETATM   16  O   UNL     1      44.878 -19.506   4.216  1.00  0.00    -0.335 OA
HETATM   17  C   UNL     1      43.631 -17.525   4.057  1.00  0.00     0.041 A 
HETATM   18  C   UNL     1      44.955 -20.892   3.888  1.00  0.00     0.217 C 
HETATM   19  C   UNL     1      44.392 -21.375   2.543  1.00  0.00     0.251 C 
HETATM   20  C   UNL     1      44.292 -21.684   5.012  1.00  0.00     0.050 C 
HETATM   21  O   UNL     1      44.695 -22.453   2.036  1.00  0.00    -0.270 OA
HETATM   22  C   UNL     1      42.652 -16.735   3.445  1.00  0.00     0.032 A 
HETATM   23  H   UNL     1      43.006 -20.890   1.130  1.00  0.00     0.169 HD
ENDBRANCH   6  11
BRANCH   8  24
HETATM   24  C   UNL     1      39.508 -14.375  -1.834  1.00  0.00     0.003 A 
HETATM   25  C   UNL     1      40.208 -15.086  -2.816  1.00  0.00     0.124 A 
HETATM   26  F   UNL     1      41.542 -15.217  -2.743  1.00  0.00    -0.205 F 
HETATM   27  C   UNL     1      39.559 -15.666  -3.903  1.00  0.00     0.043 A 
HETATM   28  C   UNL     1      38.182 -15.525  -4.045  1.00  0.00     0.003 A 
HETATM   29  C   UNL     1      37.465 -14.795  -3.099  1.00  0.00     0.001 A 
HETATM   30  C   UNL     1      38.121 -14.224  -2.005  1.00  0.00     0.012 A 
ENDBRANCH   8  24
TORSDOF 2
ENDMDL
MODEL 2
REMARK VINA RESULT:      -9.2      3.055      8.980
REMARK  2 active torsions:
REMARK  status: ('A' for Active; 'I' for Inactive)
REMARK       I    between atoms: N_4  and  C_5 
REMARK       I    between atoms: C_5  and  N_6 
REMARK    1  A    between atoms: N_6  and  C_7 
REMARK    2  A    between atoms: C_20  and  C_21 
ROOT
HETATM    1  C   UNL     1      44.334 -22.272   2.498  1.00  0.00     0.011 C 
HETATM    2  C   UNL     1      44.466 -20.759   2.464  1.00  0.00     0.002 C 
HETATM    3  C   UNL     1      43.133 -20.039   2.631  1.00  0.00     0.132 C 
HETATM    4  N   UNL     1      43.507 -18.747   3.173  1.00  0.00    -0.325 N 
HETATM    5  C   UNL     1      43.055 -17.511   2.749  1.00  0.00     0.323 C 
HETATM    6  N   UNL     1      41.850 -17.561   2.084  1.00  0.00    -0.309 N 
HETATM    7  O   UNL     1      43.687 -16.481   2.965  1.00  0.00    -0.247 OA
HETATM    8  C   UNL     1      44.714 -18.858   3.986  1.00  0.00     0.125 C 
HETATM    9  C   UNL     1      45.348 -20.207   3.593  1.00  0.00     0.036 C 
HETATM   10  H   UNL     1      41.246 -18.318   2.369  1.00  0.00     0.170 HD
ENDROOT
BRANCH   6  11
HETATM   11  C   UNL     1      41.274 -16.532   1.314  1.00  0.00     0.038 A 
HETATM   12  C   UNL     1      41.671 -16.251   0.003  1.00  0.00     0.062 A 
HETATM   13  C   UNL     1      41.028 -15.245  -0.723  1.00  0.00     0.070 A 
HETATM   14  C   UNL     1      39.991 -14.510  -0.149  1.00  0.00     0.096 A 
HETATM   15  N   UNL     1      41.401 -15.013  -2.046  1.00  0.00    -0.323 N 
HETATM   16  O   UNL     1      39.296 -13.533  -0.804  1.00  0.00    -0.335 OA
HETATM   17  C   UNL     1      39.582 -14.797   1.151  1.00  0.00     0.041 A 
HETATM   18  C   UNL     1      39.879 -13.088  -2.027  1.00  0.00     0.217 C 
HETATM   19  C   UNL     1      40.818 -14.030  -2.795  1.00  0.00     0.251 C 
HETATM   20  C   UNL     1      40.612 -11.777  -1.756  1.00  0.00     0.050 C 
HETATM   21  O   UNL     1      41.099 -13.880  -3.982  1.00  0.00    -0.270 OA
HETATM   22  C   UNL     1      40.217 -15.809   1.879  1.00  0.00     0.032 A 
HETATM   23  H   UNL     1      42.084 -15.601  -2.505  1.00  0.00     0.169 HD
ENDBRANCH   6  11
BRANCH   8  24
HETATM   24  C   UNL     1      44.381 -18.708   5.460  1.00  0.00     0.003 A 
HETATM   25  C   UNL     1      44.032 -19.791   6.276  1.00  0.00     0.124 A 
HETATM   26  F   UNL     1      43.976 -21.034   5.774  1.00  0.00    -0.205 F 
HETATM   27  C   UNL     1      43.718 -19.622   7.623  1.00  0.00     0.043 A 
HETATM   28  C   UNL     1      43.723 -18.347   8.181  1.00  0.00     0.003 A 
HETATM   29  C   UNL     1      44.034 -17.248   7.383  1.00  0.00     0.001 A 
HETATM   30  C   UNL     1      44.358 -17.426   6.035  1.00  0.00     0.012 A 
ENDBRANCH   8  24
TORSDOF 2
ENDMDL
MODEL 3
REMARK VINA RESULT:      -9.1      3.200      8.462
REMARK  2 active torsions:
REMARK  status: ('A' for Active; 'I' for Inactive)
REMARK       I    between atoms: N_4  and  C_5 
REMARK       I    between atoms: C_5  and  N_6 
REMARK    1  A    between atoms: N_6  and  C_7 
REMARK    2  A    between atoms: C_20  and  C_21 
ROOT
HETATM    1  C   UNL     1      44.720 -14.450   7.084  1.00  0.00     0.011 C 
HETATM    2  C   UNL     1      43.512 -15.054   6.388  1.00  0.00     0.002 C 
HETATM    3  C   UNL     1      43.686 -15.165   4.878  1.00  0.00     0.132 C 
HETATM    4  N   UNL     1      42.796 -16.249   4.509  1.00  0.00    -0.325 N 
HETATM    5  C   UNL     1      41.892 -16.256   3.463  1.00  0.00     0.323 C 
HETATM    6  N   UNL     1      42.193 -15.355   2.466  1.00  0.00    -0.309 N 
HETATM    7  O   UNL     1      40.923 -17.010   3.450  1.00  0.00    -0.247 OA
HETATM    8  C   UNL     1      42.683 -17.217   5.596  1.00  0.00     0.125 C 
HETATM    9  C   UNL     1      43.205 -16.486   6.848  1.00  0.00     0.036 C 
HETATM   10  H   UNL     1      43.178 -15.161   2.361  1.00  0.00     0.170 HD
ENDROOT
BRANCH   6  11
HETATM   11  C   UNL     1      41.341 -14.943   1.423  1.00  0.00     0.038 A 
HETATM   12  C   UNL     1      41.438 -15.441   0.120  1.00  0.00     0.062 A 
HETATM   13  C   UNL     1      40.532 -15.025  -0.859  1.00  0.00     0.070 A 
HETATM   14  C   UNL     1      39.528 -14.108  -0.550  1.00  0.00     0.096 A 
HETATM   15  N   UNL     1      40.611 -15.572  -2.139  1.00  0.00    -0.323 N 
HETATM   16  O   UNL     1      38.590 -13.676  -1.444  1.00  0.00    -0.335 OA
HETATM   17  C   UNL     1      39.418 -13.620   0.750  1.00  0.00     0.041 A 
HETATM   18  C   UNL     1      38.861 -13.987  -2.809  1.00  0.00     0.217 C 
HETATM   19  C   UNL     1      39.763 -15.186  -3.138  1.00  0.00     0.251 C 
HETATM   20  C   UNL     1      39.437 -12.741  -3.477  1.00  0.00     0.050 C 
HETATM   21  O   UNL     1      39.790 -15.725  -4.243  1.00  0.00    -0.270 OA
HETATM   22  C   UNL     1      40.317 -14.041   1.735  1.00  0.00     0.032 A 
HETATM   23  H   UNL     1      41.272 -16.307  -2.351  1.00  0.00     0.169 HD
ENDBRANCH   6  11
BRANCH   8  24
HETATM   24  C   UNL     1      43.416 -18.500   5.247  1.00  0.00     0.003 A 
HETATM   25  C   UNL     1      43.663 -19.514   6.180  1.00  0.00     0.124 A 
HETATM   26  F   UNL     1      43.253 -19.387   7.451  1.00  0.00    -0.205 F 
HETATM   27  C   UNL     1      44.351 -20.675   5.834  1.00  0.00     0.043 A 
HETATM   28  C   UNL     1      44.832 -20.837   4.538  1.00  0.00     0.003 A 
HETATM   29  C   UNL     1      44.628 -19.828   3.598  1.00  0.00     0.001 A 
HETATM   30  C   UNL     1      43.929 -18.670   3.949  1.00  0.00     0.012 A 
ENDBRANCH   8  24
TORSDOF 2
ENDMDL
MODEL 4
REMARK VINA RESULT:      -9.0      2.876      8.990
REMARK  2 active torsions:
REMARK  status: ('A' for Active; 'I' for Inactive)
REMARK       I    between atoms: N_4  and  C_5 
REMARK       I    between atoms: C_5  and  N_6 
REMARK    1  A    between atoms: N_6  and  C_7 
REMARK    2  A    between atoms: C_20  and  C_21 
ROOT
HETATM    1  C   UNL     1      44.434 -22.303   1.929  1.00  0.00     0.011 C 
HETATM    2  C   UNL     1      44.514 -20.794   2.086  1.00  0.00     0.002 C 
HETATM    3  C   UNL     1      43.155 -20.144   2.318  1.00  0.00     0.132 C 
HETATM    4  N   UNL     1      43.478 -18.918   3.022  1.00  0.00    -0.325 N 
HETATM    5  C   UNL     1      42.988 -17.654   2.748  1.00  0.00     0.323 C 
HETATM    6  N   UNL     1      41.795 -17.661   2.061  1.00  0.00    -0.309 N 
HETATM    7  O   UNL     1      43.583 -16.640   3.100  1.00  0.00    -0.247 OA
HETATM    8  C   UNL     1      44.678 -19.090   3.835  1.00  0.00     0.125 C 
HETATM    9  C   UNL     1      45.363 -20.358   3.288  1.00  0.00     0.036 C 
HETATM   10  H   UNL     1      41.214 -18.466   2.240  1.00  0.00     0.170 HD
ENDROOT
BRANCH   6  11
HETATM   11  C   UNL     1      41.193 -16.563   1.415  1.00  0.00     0.038 A 
HETATM   12  C   UNL     1      41.587 -16.116   0.151  1.00  0.00     0.062 A 
HETATM   13  C   UNL     1      40.920 -15.048  -0.455  1.00  0.00     0.070 A 
HETATM   14  C   UNL     1      39.860 -14.417   0.195  1.00  0.00     0.096 A 
HETATM   15  N   UNL     1      41.291 -14.650  -1.738  1.00  0.00    -0.323 N 
HETATM   16  O   UNL     1      39.141 -13.388  -0.344  1.00  0.00    -0.335 OA
HETATM   17  C   UNL     1      39.453 -14.869   1.448  1.00  0.00     0.041 A 
HETATM   18  C   UNL     1      39.716 -12.783  -1.501  1.00  0.00     0.217 C 
HETATM   19  C   UNL     1      40.685 -13.601  -2.368  1.00  0.00     0.251 C 
HETATM   20  C   UNL     1      40.410 -11.494  -1.069  1.00  0.00     0.050 C 
HETATM   21  O   UNL     1      40.967 -13.301  -3.527  1.00  0.00    -0.270 OA
HETATM   22  C   UNL     1      40.113 -15.942   2.054  1.00  0.00     0.032 A 
HETATM   23  H   UNL     1      41.994 -15.159  -2.258  1.00  0.00     0.169 HD
ENDBRANCH   6  11
BRANCH   8  24
HETATM   24  C   UNL     1      44.321 -19.136   5.310  1.00  0.00     0.003 A 
HETATM   25  C   UNL     1      44.376 -18.012   6.143  1.00  0.00     0.124 A 
HETATM   26  F   UNL     1      44.757 -16.821   5.658  1.00  0.00    -0.205 F 
HETATM   27  C   UNL     1      44.057 -18.088   7.497  1.00  0.00     0.043 A 
HETATM   28  C   UNL     1      43.694 -19.310   8.057  1.00  0.00     0.003 A 
HETATM   29  C   UNL     1      43.663 -20.450   7.258  1.00  0.00     0.001 A 
HETATM   30  C   UNL     1      43.975 -20.366   5.898  1.00  0.00     0.012 A 
ENDBRANCH   8  24
TORSDOF 2
ENDMDL
MODEL 5
REMARK VINA RESULT:      -9.0      3.169      9.254
REMARK  2 active torsions:
REMARK  status: ('A' for Active; 'I' for Inactive)
REMARK       I    between atoms: N_4  and  C_5 
REMARK       I    between atoms: C_5  and  N_6 
REMARK    1  A    between atoms: N_6  and  C_7 
REMARK    2  A    between atoms: C_20  and  C_21 
ROOT
HETATM    1  C   UNL     1      44.315 -22.143   1.793  1.00  0.00     0.011 C 
HETATM    2  C   UNL     1      44.414 -20.663   2.125  1.00  0.00     0.002 C 
HETATM    3  C   UNL     1      43.068 -20.038   2.471  1.00  0.00     0.132 C 
HETATM    4  N   UNL     1      43.422 -18.906   3.307  1.00  0.00    -0.325 N 
HETATM    5  C   UNL     1      42.936 -17.615   3.198  1.00  0.00     0.323 C 
HETATM    6  N   UNL     1      41.724 -17.533   2.550  1.00  0.00    -0.309 N 
HETATM    7  O   UNL     1      43.549 -16.653   3.651  1.00  0.00    -0.247 OA
HETATM    8  C   UNL     1      44.642 -19.180   4.058  1.00  0.00     0.125 C 
HETATM    9  C   UNL     1      45.299 -20.378   3.346  1.00  0.00     0.036 C 
HETATM   10  H   UNL     1      41.141 -18.351   2.649  1.00  0.00     0.170 HD
ENDROOT
BRANCH   6  11
HETATM   11  C   UNL     1      41.115 -16.363   2.056  1.00  0.00     0.038 A 
HETATM   12  C   UNL     1      40.489 -15.425   2.882  1.00  0.00     0.062 A 
HETATM   13  C   UNL     1      39.943 -14.262   2.334  1.00  0.00     0.070 A 
HETATM   14  C   UNL     1      40.011 -14.027   0.961  1.00  0.00     0.096 A 
HETATM   15  N   UNL     1      39.370 -13.312   3.179  1.00  0.00    -0.323 N 
HETATM   16  O   UNL     1      39.527 -12.902   0.356  1.00  0.00    -0.335 OA
HETATM   17  C   UNL     1      40.647 -14.951   0.135  1.00  0.00     0.041 A 
HETATM   18  C   UNL     1      38.674 -12.094   1.165  1.00  0.00     0.217 C 
HETATM   19  C   UNL     1      38.804 -12.168   2.694  1.00  0.00     0.251 C 
HETATM   20  C   UNL     1      37.228 -12.395   0.780  1.00  0.00     0.050 C 
HETATM   21  O   UNL     1      38.367 -11.301   3.449  1.00  0.00    -0.270 OA
HETATM   22  C   UNL     1      41.202 -16.113   0.681  1.00  0.00     0.032 A 
HETATM   23  H   UNL     1      39.398 -13.425   4.184  1.00  0.00     0.169 HD
ENDBRANCH   6  11
BRANCH   8  24
HETATM   24  C   UNL     1      44.326 -19.399   5.527  1.00  0.00     0.003 A 
HETATM   25  C   UNL     1      44.490 -18.404   6.499  1.00  0.00     0.124 A 
HETATM   26  F   UNL     1      44.946 -17.188   6.160  1.00  0.00    -0.205 F 
HETATM   27  C   UNL     1      44.205 -18.638   7.842  1.00  0.00     0.043 A 
HETATM   28  C   UNL     1      43.768 -19.895   8.250  1.00  0.00     0.003 A 
HETATM   29  C   UNL     1      43.627 -20.913   7.308  1.00  0.00     0.001 A 
HETATM   30  C   UNL     1      43.906 -20.668   5.960  1.00  0.00     0.012 A 
ENDBRANCH   8  24
TORSDOF 2
ENDMDL
MODEL 6
REMARK VINA RESULT:      -8.7      2.520      4.175
REMARK  2 active torsions:
REMARK  status: ('A' for Active; 'I' for Inactive)
REMARK       I    between atoms: N_4  and  C_5 
REMARK       I    between atoms: C_5  and  N_6 
REMARK    1  A    between atoms: N_6  and  C_7 
REMARK    2  A    between atoms: C_20  and  C_21 
ROOT
HETATM    1  C   UNL     1      38.919 -15.906  -4.356  1.00  0.00     0.011 C 
HETATM    2  C   UNL     1      39.196 -15.427  -2.940  1.00  0.00     0.002 C 
HETATM    3  C   UNL     1      40.615 -15.730  -2.474  1.00  0.00     0.132 C 
HETATM    4  N   UNL     1      40.863 -14.724  -1.459  1.00  0.00    -0.325 N 
HETATM    5  C   UNL     1      41.410 -14.932  -0.206  1.00  0.00     0.323 C 
HETATM    6  N   UNL     1      42.163 -16.082  -0.115  1.00  0.00    -0.309 N 
HETATM    7  O   UNL     1      41.227 -14.146   0.719  1.00  0.00    -0.247 OA
HETATM    8  C   UNL     1      40.127 -13.499  -1.754  1.00  0.00     0.125 C 
HETATM    9  C   UNL     1      39.051 -13.908  -2.780  1.00  0.00     0.036 C 
HETATM   10  H   UNL     1      42.604 -16.362  -0.978  1.00  0.00     0.170 HD
ENDROOT
BRANCH   6  11
HETATM   11  C   UNL     1      42.615 -16.696   1.069  1.00  0.00     0.038 A 
HETATM   12  C   UNL     1      42.080 -16.407   2.328  1.00  0.00     0.062 A 
HETATM   13  C   UNL     1      42.543 -17.085   3.459  1.00  0.00     0.070 A 
HETATM   14  C   UNL     1      43.544 -18.049   3.345  1.00  0.00     0.096 A 
HETATM   15  N   UNL     1      41.961 -16.823   4.698  1.00  0.00    -0.323 N 
HETATM   16  O   UNL     1      44.028 -18.772   4.398  1.00  0.00    -0.335 OA
HETATM   17  C   UNL     1      44.070 -18.351   2.091  1.00  0.00     0.041 A 
HETATM   18  C   UNL     1      43.663 -18.287   5.689  1.00  0.00     0.217 C 
HETATM   19  C   UNL     1      42.389 -17.442   5.837  1.00  0.00     0.251 C 
HETATM   20  C   UNL     1      44.844 -17.500   6.253  1.00  0.00     0.050 C 
HETATM   21  O   UNL     1      41.824 -17.261   6.914  1.00  0.00    -0.270 OA
HETATM   22  C   UNL     1      43.604 -17.681   0.955  1.00  0.00     0.032 A 
HETATM   23  H   UNL     1      41.171 -16.196   4.780  1.00  0.00     0.169 HD
ENDBRANCH   6  11
BRANCH   8  24
HETATM   24  C   UNL     1      41.073 -12.405  -2.216  1.00  0.00     0.003 A 
HETATM   25  C   UNL     1      41.443 -11.325  -1.405  1.00  0.00     0.124 A 
HETATM   26  F   UNL     1      40.961 -11.212  -0.157  1.00  0.00    -0.205 F 
HETATM   27  C   UNL     1      42.302 -10.328  -1.860  1.00  0.00     0.043 A 
HETATM   28  C   UNL     1      42.797 -10.379  -3.160  1.00  0.00     0.003 A 
HETATM   29  C   UNL     1      42.419 -11.426  -3.999  1.00  0.00     0.001 A 
HETATM   30  C   UNL     1      41.564 -12.428  -3.532  1.00  0.00     0.012 A 
ENDBRANCH   8  24
TORSDOF 2
ENDMDL
MODEL 7
REMARK VINA RESULT:      -8.6      3.000      9.029
REMARK  2 active torsions:
REMARK  status: ('A' for Active; 'I' for Inactive)
REMARK       I    between atoms: N_4  and  C_5 
REMARK       I    between atoms: C_5  and  N_6 
REMARK    1  A    between atoms: N_6  and  C_7 
REMARK    2  A    between atoms: C_20  and  C_21 
ROOT
HETATM    1  C   UNL     1      43.612 -21.586   2.172  1.00  0.00     0.011 C 
HETATM    2  C   UNL     1      43.829 -20.085   2.083  1.00  0.00     0.002 C 
HETATM    3  C   UNL     1      42.529 -19.290   2.121  1.00  0.00     0.132 C 
HETATM    4  N   UNL     1      42.935 -17.995   2.633  1.00  0.00    -0.325 N 
HETATM    5  C   UNL     1      42.582 -16.758   2.125  1.00  0.00     0.323 C 
HETATM    6  N   UNL     1      41.426 -16.777   1.377  1.00  0.00    -0.309 N 
HETATM    7  O   UNL     1      43.253 -15.754   2.342  1.00  0.00    -0.247 OA
HETATM    8  C   UNL     1      44.074 -18.130   3.536  1.00  0.00     0.125 C 
HETATM    9  C   UNL     1      44.659 -19.527   3.248  1.00  0.00     0.036 C 
HETATM   10  H   UNL     1      40.763 -17.487   1.650  1.00  0.00     0.170 HD
ENDROOT
BRANCH   6  11
HETATM   11  C   UNL     1      40.963 -15.757   0.523  1.00  0.00     0.038 A 
HETATM   12  C   UNL     1      40.227 -14.660   0.980  1.00  0.00     0.062 A 
HETATM   13  C   UNL     1      39.835 -13.658   0.089  1.00  0.00     0.070 A 
HETATM   14  C   UNL     1      40.169 -13.744  -1.263  1.00  0.00     0.096 A 
HETATM   15  N   UNL     1      39.148 -12.545   0.571  1.00  0.00    -0.323 N 
HETATM   16  O   UNL     1      39.847 -12.792  -2.189  1.00  0.00    -0.335 OA
HETATM   17  C   UNL     1      40.915 -14.827  -1.720  1.00  0.00     0.041 A 
HETATM   18  C   UNL     1      38.887 -11.827  -1.762  1.00  0.00     0.217 C 
HETATM   19  C   UNL     1      38.725 -11.547  -0.260  1.00  0.00     0.251 C 
HETATM   20  C   UNL     1      37.529 -12.221  -2.338  1.00  0.00     0.050 C 
HETATM   21  O   UNL     1      38.185 -10.534   0.180  1.00  0.00    -0.270 OA
HETATM   22  C   UNL     1      41.316 -15.828  -0.829  1.00  0.00     0.032 A 
HETATM   23  H   UNL     1      38.983 -12.424   1.561  1.00  0.00     0.169 HD
ENDBRANCH   6  11
BRANCH   8  24
HETATM   24  C   UNL     1      43.647 -17.895   4.974  1.00  0.00     0.003 A 
HETATM   25  C   UNL     1      44.532 -17.980   6.055  1.00  0.00     0.124 A 
HETATM   26  F   UNL     1      45.824 -18.283   5.858  1.00  0.00    -0.205 F 
HETATM   27  C   UNL     1      44.108 -17.773   7.366  1.00  0.00     0.043 A 
HETATM   28  C   UNL     1      42.769 -17.496   7.627  1.00  0.00     0.003 A 
HETATM   29  C   UNL     1      41.861 -17.438   6.572  1.00  0.00     0.001 A 
HETATM   30  C   UNL     1      42.294 -17.637   5.258  1.00  0.00     0.012 A 
ENDBRANCH   8  24
TORSDOF 2
ENDMDL
MODEL 8
REMARK VINA RESULT:      -8.3      1.901      2.497
REMARK  2 active torsions:
REMARK  status: ('A' for Active; 'I' for Inactive)
REMARK       I    between atoms: N_4  and  C_5 
REMARK       I    between atoms: C_5  and  N_6 
REMARK    1  A    between atoms: N_6  and  C_7 
REMARK    2  A    between atoms: C_20  and  C_21 
ROOT
HETATM    1  C   UNL     1      36.029 -11.664   0.421  1.00  0.00     0.011 C 
HETATM    2  C   UNL     1      37.512 -11.996   0.433  1.00  0.00     0.002 C 
HETATM    3  C   UNL     1      37.807 -13.389   0.976  1.00  0.00     0.132 C 
HETATM    4  N   UNL     1      39.075 -13.734   0.360  1.00  0.00    -0.325 N 
HETATM    5  C   UNL     1      40.180 -14.275   0.992  1.00  0.00     0.323 C 
HETATM    6  N   UNL     1      39.881 -14.928   2.167  1.00  0.00    -0.309 N 
HETATM    7  O   UNL     1      41.310 -14.170   0.523  1.00  0.00    -0.247 OA
HETATM    8  C   UNL     1      39.203 -13.102  -0.949  1.00  0.00     0.125 C 
HETATM    9  C   UNL     1      38.143 -11.983  -0.966  1.00  0.00     0.036 C 
HETATM   10  H   UNL     1      38.957 -15.334   2.196  1.00  0.00     0.170 HD
ENDROOT
BRANCH   6  11
HETATM   11  C   UNL     1      40.797 -15.340   3.154  1.00  0.00     0.038 A 
HETATM   12  C   UNL     1      41.489 -16.553   3.090  1.00  0.00     0.062 A 
HETATM   13  C   UNL     1      42.419 -16.883   4.079  1.00  0.00     0.070 A 
HETATM   14  C   UNL     1      42.662 -16.012   5.140  1.00  0.00     0.096 A 
HETATM   15  N   UNL     1      43.138 -18.072   3.970  1.00  0.00    -0.323 N 
HETATM   16  O   UNL     1      43.575 -16.251   6.128  1.00  0.00    -0.335 OA
HETATM   17  C   UNL     1      41.986 -14.795   5.201  1.00  0.00     0.041 A 
HETATM   18  C   UNL     1      44.071 -17.587   6.188  1.00  0.00     0.217 C 
HETATM   19  C   UNL     1      44.045 -18.452   4.919  1.00  0.00     0.251 C 
HETATM   20  C   UNL     1      43.327 -18.322   7.300  1.00  0.00     0.050 C 
HETATM   21  O   UNL     1      44.728 -19.464   4.781  1.00  0.00    -0.270 OA
HETATM   22  C   UNL     1      41.061 -14.457   4.208  1.00  0.00     0.032 A 
HETATM   23  H   UNL     1      43.041 -18.667   3.158  1.00  0.00     0.169 HD
ENDBRANCH   6  11
BRANCH   8  24
HETATM   24  C   UNL     1      39.070 -14.132  -2.055  1.00  0.00     0.003 A 
HETATM   25  C   UNL     1      40.171 -14.772  -2.638  1.00  0.00     0.124 A 
HETATM   26  F   UNL     1      41.418 -14.490  -2.231  1.00  0.00    -0.205 F 
HETATM   27  C   UNL     1      40.019 -15.704  -3.662  1.00  0.00     0.043 A 
HETATM   28  C   UNL     1      38.749 -16.001  -4.146  1.00  0.00     0.003 A 
HETATM   29  C   UNL     1      37.638 -15.355  -3.607  1.00  0.00     0.001 A 
HETATM   30  C   UNL     1      37.797 -14.428  -2.573  1.00  0.00     0.012 A 
ENDBRANCH   8  24
TORSDOF 2
ENDMDL
MODEL 9
REMARK VINA RESULT:      -8.3      3.582      4.329
REMARK  2 active torsions:
REMARK  status: ('A' for Active; 'I' for Inactive)
REMARK       I    between atoms: N_4  and  C_5 
REMARK       I    between atoms: C_5  and  N_6 
REMARK    1  A    between atoms: N_6  and  C_7 
REMARK    2  A    between atoms: C_20  and  C_21 
ROOT
HETATM    1  C   UNL     1      41.840  -9.748  -2.417  1.00  0.00     0.011 C 
HETATM    2  C   UNL     1      42.168 -11.160  -1.961  1.00  0.00     0.002 C 
HETATM    3  C   UNL     1      41.281 -11.641  -0.818  1.00  0.00     0.132 C 
HETATM    4  N   UNL     1      41.305 -13.085  -0.951  1.00  0.00    -0.325 N 
HETATM    5  C   UNL     1      41.504 -14.004   0.063  1.00  0.00     0.323 C 
HETATM    6  N   UNL     1      41.211 -13.517   1.317  1.00  0.00    -0.309 N 
HETATM    7  O   UNL     1      41.902 -15.143  -0.165  1.00  0.00    -0.247 OA
HETATM    8  C   UNL     1      41.467 -13.473  -2.349  1.00  0.00     0.125 C 
HETATM    9  C   UNL     1      41.979 -12.209  -3.066  1.00  0.00     0.036 C 
HETATM   10  H   UNL     1      40.497 -12.804   1.332  1.00  0.00     0.170 HD
ENDROOT
BRANCH   6  11
HETATM   11  C   UNL     1      41.559 -14.106   2.548  1.00  0.00     0.038 A 
HETATM   12  C   UNL     1      42.677 -13.714   3.289  1.00  0.00     0.062 A 
HETATM   13  C   UNL     1      42.943 -14.309   4.525  1.00  0.00     0.070 A 
HETATM   14  C   UNL     1      42.100 -15.299   5.030  1.00  0.00     0.096 A 
HETATM   15  N   UNL     1      44.032 -13.868   5.275  1.00  0.00    -0.323 N 
HETATM   16  O   UNL     1      42.276 -15.905   6.241  1.00  0.00    -0.335 OA
HETATM   17  C   UNL     1      40.975 -15.682   4.302  1.00  0.00     0.041 A 
HETATM   18  C   UNL     1      43.546 -15.684   6.853  1.00  0.00     0.217 C 
HETATM   19  C   UNL     1      44.347 -14.428   6.480  1.00  0.00     0.251 C 
HETATM   20  C   UNL     1      44.415 -16.914   6.602  1.00  0.00     0.050 C 
HETATM   21  O   UNL     1      45.265 -13.987   7.170  1.00  0.00    -0.270 OA
HETATM   22  C   UNL     1      40.702 -15.084   3.068  1.00  0.00     0.032 A 
HETATM   23  H   UNL     1      44.595 -13.087   4.966  1.00  0.00     0.169 HD
ENDBRANCH   6  11
BRANCH   8  24
HETATM   24  C   UNL     1      40.172 -14.045  -2.898  1.00  0.00     0.003 A 
HETATM   25  C   UNL     1      40.042 -15.375  -3.315  1.00  0.00     0.124 A 
HETATM   26  F   UNL     1      41.085 -16.217  -3.246  1.00  0.00    -0.205 F 
HETATM   27  C   UNL     1      38.844 -15.868  -3.828  1.00  0.00     0.043 A 
HETATM   28  C   UNL     1      37.745 -15.024  -3.957  1.00  0.00     0.003 A 
HETATM   29  C   UNL     1      37.857 -13.688  -3.580  1.00  0.00     0.001 A 
HETATM   30  C   UNL     1      39.058 -13.201  -3.057  1.00  0.00     0.012 A 
ENDBRANCH   8  24
TORSDOF 2
ENDMDL
MODEL 10
REMARK VINA RESULT:      -8.3      2.976      8.541
REMARK  2 active torsions:
REMARK  status: ('A' for Active; 'I' for Inactive)
REMARK       I    between atoms: N_4  and  C_5 
REMARK       I    between atoms: C_5  and  N_6 
REMARK    1  A    between atoms: N_6  and  C_7 
REMARK    2  A    between atoms: C_20  and  C_21 
ROOT
HETATM    1  C   UNL     1      43.224 -14.306   5.909  1.00  0.00     0.011 C 
HETATM    2  C   UNL     1      42.262 -15.067   5.013  1.00  0.00     0.002 C 
HETATM    3  C   UNL     1      42.693 -15.082   3.551  1.00  0.00     0.132 C 
HETATM    4  N   UNL     1      42.067 -16.280   3.022  1.00  0.00    -0.325 N 
HETATM    5  C   UNL     1      41.357 -16.389   1.841  1.00  0.00     0.323 C 
HETATM    6  N   UNL     1      41.659 -15.408   0.922  1.00  0.00    -0.309 N 
HETATM    7  O   UNL     1      40.543 -17.288   1.656  1.00  0.00    -0.247 OA
HETATM    8  C   UNL     1      41.945 -17.300   4.059  1.00  0.00     0.125 C 
HETATM    9  C   UNL     1      42.130 -16.549   5.393  1.00  0.00     0.036 C 
HETATM   10  H   UNL     1      42.601 -15.052   0.985  1.00  0.00     0.170 HD
ENDROOT
BRANCH   6  11
HETATM   11  C   UNL     1      40.928 -15.096  -0.241  1.00  0.00     0.038 A 
HETATM   12  C   UNL     1      39.846 -14.211  -0.243  1.00  0.00     0.062 A 
HETATM   13  C   UNL     1      39.190 -13.908  -1.440  1.00  0.00     0.070 A 
HETATM   14  C   UNL     1      39.604 -14.487  -2.639  1.00  0.00     0.096 A 
HETATM   15  N   UNL     1      38.147 -12.984  -1.432  1.00  0.00    -0.323 N 
HETATM   16  O   UNL     1      39.033 -14.219  -3.851  1.00  0.00    -0.335 OA
HETATM   17  C   UNL     1      40.692 -15.357  -2.644  1.00  0.00     0.041 A 
HETATM   18  C   UNL     1      37.786 -13.530  -3.797  1.00  0.00     0.217 C 
HETATM   19  C   UNL     1      37.461 -12.666  -2.569  1.00  0.00     0.251 C 
HETATM   20  C   UNL     1      36.669 -14.553  -3.988  1.00  0.00     0.050 C 
HETATM   21  O   UNL     1      36.592 -11.797  -2.570  1.00  0.00    -0.270 OA
HETATM   22  C   UNL     1      41.356 -15.657  -1.450  1.00  0.00     0.032 A 
HETATM   23  H   UNL     1      37.899 -12.486  -0.587  1.00  0.00     0.169 HD
ENDBRANCH   6  11
BRANCH   8  24
HETATM   24  C   UNL     1      42.929 -18.430   3.816  1.00  0.00     0.003 A 
HETATM   25  C   UNL     1      43.908 -18.802   4.746  1.00  0.00     0.124 A 
HETATM   26  F   UNL     1      44.017 -18.157   5.917  1.00  0.00    -0.205 F 
HETATM   27  C   UNL     1      44.807 -19.835   4.489  1.00  0.00     0.043 A 
HETATM   28  C   UNL     1      44.759 -20.509   3.272  1.00  0.00     0.003 A 
HETATM   29  C   UNL     1      43.817 -20.137   2.316  1.00  0.00     0.001 A 
HETATM   30  C   UNL     1      42.911 -19.106   2.584  1.00  0.00     0.012 A 
ENDBRANCH   8  24
TORSDOF 2
ENDMDL
