MODEL 1
REMARK VINA RESULT:      -8.8      0.000      0.000
REMARK  6 active torsions:
REMARK  status: ('A' for Active; 'I' for Inactive)
REMARK    1  A    between atoms: C_2  and  O_3 
REMARK    2  A    between atoms: C_2  and  C_4 
REMARK    3  A    between atoms: C_6  and  N_7 
REMARK       I    between atoms: N_7  and  C_8 
REMARK    4  A    between atoms: C_8  and  C_9 
REMARK    5  A    between atoms: C_14  and  C_15 
REMARK    6  A    between atoms: C_21  and  C_22 
ROOT
HETATM    1  C   UNL     1      41.359 -16.390   1.621  1.00  0.00     0.148 A 
HETATM    2  N   UNL     1      40.353 -15.487   1.645  1.00  0.00    -0.165 NA
HETATM    3  N   UNL     1      40.426 -14.896   0.438  1.00  0.00    -0.240 N 
HETATM    4  C   UNL     1      41.384 -15.436  -0.379  1.00  0.00     0.123 A 
HETATM    5  N   UNL     1      41.583 -14.980  -1.634  1.00  0.00    -0.364 N 
HETATM    6  C   UNL     1      40.676 -14.012  -2.250  1.00  0.00     0.143 C 
HETATM    7  C   UNL     1      40.107 -13.077  -1.171  1.00  0.00     0.068 C 
HETATM    8  C   UNL     1      39.498 -13.863   0.008  1.00  0.00     0.221 C 
HETATM    9  C   UNL     1      42.005 -16.409   0.357  1.00  0.00     0.089 A 
HETATM   10  H   UNL     1      42.170 -15.497  -2.288  1.00  0.00     0.162 HD
ENDROOT
BRANCH   1  11
HETATM   11  C   UNL     1      41.709 -17.206   2.800  1.00  0.00     0.276 C 
HETATM   12  N   UNL     1      42.887 -17.904   2.613  1.00  0.00    -0.322 N 
HETATM   13  H   UNL     1      43.336 -17.709   1.721  1.00  0.00     0.169 HD
HETATM   14  O   UNL     1      40.987 -17.235   3.790  1.00  0.00    -0.266 OA
BRANCH  12  15
HETATM   15  C   UNL     1      43.490 -18.845   3.466  1.00  0.00     0.035 A 
HETATM   16  C   UNL     1      43.453 -18.765   4.861  1.00  0.00     0.039 A 
HETATM   17  C   UNL     1      44.056 -19.752   5.661  1.00  0.00    -0.028 A 
HETATM   18  C   UNL     1      44.714 -20.820   5.038  1.00  0.00     0.010 A 
HETATM   19  C   UNL     1      44.756 -20.909   3.647  1.00  0.00     0.003 A 
HETATM   20  C   UNL     1      44.143 -19.927   2.867  1.00  0.00     0.029 A 
BRANCH  17  21
HETATM   21  C   UNL     1      43.999 -19.638   7.170  1.00  0.00     0.147 C 
HETATM   22  C   UNL     1      43.539 -20.929   7.829  1.00  0.00     0.044 C 
BRANCH  21  23
HETATM   23  O   UNL     1      43.114 -18.585   7.551  1.00  0.00    -0.391 OA
HETATM   24  H   UNL     1      42.358 -18.620   6.940  1.00  0.00     0.210 HD
ENDBRANCH  21  23
ENDBRANCH  17  21
ENDBRANCH  12  15
ENDBRANCH   1  11
BRANCH   8  25
HETATM   25  C   UNL     1      39.139 -12.910   1.126  1.00  0.00     0.409 C 
HETATM   26  F   UNL     1      38.244 -13.423   1.998  1.00  0.00    -0.169 F 
HETATM   27  F   UNL     1      40.221 -12.497   1.824  1.00  0.00    -0.169 F 
HETATM   28  F   UNL     1      38.562 -11.792   0.609  1.00  0.00    -0.169 F 
ENDBRANCH   8  25
BRANCH   6  29
HETATM   29  C   UNL     1      39.587 -14.612  -3.083  1.00  0.00     0.075 A 
HETATM   30  O   UNL     1      39.926 -15.721  -3.805  1.00  0.00    -0.325 OA
HETATM   31  C   UNL     1      38.813 -16.118  -4.473  1.00  0.00     0.142 A 
HETATM   32  C   UNL     1      37.762 -15.275  -4.200  1.00  0.00     0.027 A 
HETATM   33  C   UNL     1      38.259 -14.300  -3.302  1.00  0.00     0.037 A 
ENDBRANCH   6  29
TORSDOF 6
ENDMDL
MODEL 2
REMARK VINA RESULT:      -8.7      2.792      4.202
REMARK  6 active torsions:
REMARK  status: ('A' for Active; 'I' for Inactive)
REMARK    1  A    between atoms: C_2  and  O_3 
REMARK    2  A    between atoms: C_2  and  C_4 
REMARK    3  A    between atoms: C_6  and  N_7 
REMARK       I    between atoms: N_7  and  C_8 
REMARK    4  A    between atoms: C_8  and  C_9 
REMARK    5  A    between atoms: C_14  and  C_15 
REMARK    6  A    between atoms: C_21  and  C_22 
ROOT
HETATM    1  C   UNL     1      41.498 -15.711   1.739  1.00  0.00     0.148 A 
HETATM    2  N   UNL     1      41.568 -14.855   0.695  1.00  0.00    -0.165 NA
HETATM    3  N   UNL     1      40.287 -14.501   0.487  1.00  0.00    -0.240 N 
HETATM    4  C   UNL     1      39.415 -15.034   1.400  1.00  0.00     0.123 A 
HETATM    5  N   UNL     1      38.092 -14.769   1.355  1.00  0.00    -0.364 N 
HETATM    6  C   UNL     1      37.544 -13.763   0.446  1.00  0.00     0.143 C 
HETATM    7  C   UNL     1      38.384 -13.716  -0.841  1.00  0.00     0.068 C 
HETATM    8  C   UNL     1      39.887 -13.552  -0.540  1.00  0.00     0.221 C 
HETATM    9  C   UNL     1      40.169 -15.821   2.228  1.00  0.00     0.089 A 
HETATM   10  H   UNL     1      37.485 -15.024   2.133  1.00  0.00     0.162 HD
ENDROOT
BRANCH   1  11
HETATM   11  C   UNL     1      42.684 -16.429   2.247  1.00  0.00     0.276 C 
HETATM   12  N   UNL     1      42.368 -17.697   2.693  1.00  0.00    -0.322 N 
HETATM   13  H   UNL     1      41.388 -17.941   2.561  1.00  0.00     0.169 HD
HETATM   14  O   UNL     1      43.789 -15.899   2.261  1.00  0.00    -0.266 OA
BRANCH  12  15
HETATM   15  C   UNL     1      43.204 -18.637   3.321  1.00  0.00     0.035 A 
HETATM   16  C   UNL     1      43.634 -19.821   2.716  1.00  0.00     0.039 A 
HETATM   17  C   UNL     1      44.491 -20.710   3.388  1.00  0.00    -0.028 A 
HETATM   18  C   UNL     1      44.902 -20.401   4.692  1.00  0.00     0.010 A 
HETATM   19  C   UNL     1      44.478 -19.222   5.303  1.00  0.00     0.003 A 
HETATM   20  C   UNL     1      43.637 -18.344   4.619  1.00  0.00     0.029 A 
BRANCH  17  21
HETATM   21  C   UNL     1      44.940 -21.986   2.706  1.00  0.00     0.147 C 
HETATM   22  C   UNL     1      44.243 -22.201   1.371  1.00  0.00     0.044 C 
BRANCH  21  23
HETATM   23  O   UNL     1      44.682 -23.110   3.547  1.00  0.00    -0.391 OA
HETATM   24  H   UNL     1      44.759 -22.796   4.465  1.00  0.00     0.210 HD
ENDBRANCH  21  23
ENDBRANCH  17  21
ENDBRANCH  12  15
ENDBRANCH   1  11
BRANCH   8  25
HETATM   25  C   UNL     1      40.684 -13.715  -1.815  1.00  0.00     0.409 C 
HETATM   26  F   UNL     1      41.915 -13.164  -1.749  1.00  0.00    -0.169 F 
HETATM   27  F   UNL     1      40.817 -15.009  -2.183  1.00  0.00    -0.169 F 
HETATM   28  F   UNL     1      40.046 -13.085  -2.838  1.00  0.00    -0.169 F 
ENDBRANCH   8  25
BRANCH   6  29
HETATM   29  C   UNL     1      37.378 -12.400   1.040  1.00  0.00     0.075 A 
HETATM   30  O   UNL     1      36.313 -11.674   0.586  1.00  0.00    -0.325 OA
HETATM   31  C   UNL     1      36.326 -10.489   1.248  1.00  0.00     0.142 A 
HETATM   32  C   UNL     1      37.390 -10.436   2.117  1.00  0.00     0.027 A 
HETATM   33  C   UNL     1      38.071 -11.670   1.985  1.00  0.00     0.037 A 
ENDBRANCH   6  29
TORSDOF 6
ENDMDL
MODEL 3
REMARK VINA RESULT:      -8.6      3.069      4.326
REMARK  6 active torsions:
REMARK  status: ('A' for Active; 'I' for Inactive)
REMARK    1  A    between atoms: C_2  and  O_3 
REMARK    2  A    between atoms: C_2  and  C_4 
REMARK    3  A    between atoms: C_6  and  N_7 
REMARK       I    between atoms: N_7  and  C_8 
REMARK    4  A    between atoms: C_8  and  C_9 
REMARK    5  A    between atoms: C_14  and  C_15 
REMARK    6  A    between atoms: C_21  and  C_22 
ROOT
HETATM    1  C   UNL     1      41.333 -15.497   1.169  1.00  0.00     0.148 A 
HETATM    2  N   UNL     1      41.477 -15.518  -0.176  1.00  0.00    -0.165 NA
HETATM    3  N   UNL     1      41.110 -14.280  -0.555  1.00  0.00    -0.240 N 
HETATM    4  C   UNL     1      40.813 -13.451   0.495  1.00  0.00     0.123 A 
HETATM    5  N   UNL     1      40.446 -12.166   0.300  1.00  0.00    -0.364 N 
HETATM    6  C   UNL     1      40.516 -11.542  -1.020  1.00  0.00     0.143 C 
HETATM    7  C   UNL     1      40.242 -12.595  -2.106  1.00  0.00     0.068 C 
HETATM    8  C   UNL     1      41.139 -13.838  -1.940  1.00  0.00     0.221 C 
HETATM    9  C   UNL     1      40.952 -14.208   1.626  1.00  0.00     0.089 A 
HETATM   10  H   UNL     1      40.399 -11.515   1.083  1.00  0.00     0.162 HD
ENDROOT
BRANCH   1  11
HETATM   11  C   UNL     1      41.538 -16.700   1.999  1.00  0.00     0.276 C 
HETATM   12  N   UNL     1      42.878 -16.947   2.228  1.00  0.00    -0.322 N 
HETATM   13  H   UNL     1      43.494 -16.243   1.826  1.00  0.00     0.169 HD
HETATM   14  O   UNL     1      40.590 -17.369   2.392  1.00  0.00    -0.266 OA
BRANCH  12  15
HETATM   15  C   UNL     1      43.465 -18.038   2.892  1.00  0.00     0.035 A 
HETATM   16  C   UNL     1      43.740 -19.264   2.279  1.00  0.00     0.039 A 
HETATM   17  C   UNL     1      44.351 -20.311   2.991  1.00  0.00    -0.028 A 
HETATM   18  C   UNL     1      44.671 -20.116   4.342  1.00  0.00     0.010 A 
HETATM   19  C   UNL     1      44.401 -18.897   4.961  1.00  0.00     0.003 A 
HETATM   20  C   UNL     1      43.804 -17.863   4.238  1.00  0.00     0.029 A 
BRANCH  17  21
HETATM   21  C   UNL     1      44.637 -21.628   2.300  1.00  0.00     0.147 C 
HETATM   22  C   UNL     1      43.653 -21.913   1.175  1.00  0.00     0.044 C 
BRANCH  21  23
HETATM   23  O   UNL     1      44.584 -22.700   3.242  1.00  0.00    -0.391 OA
HETATM   24  H   UNL     1      44.546 -23.523   2.725  1.00  0.00     0.210 HD
ENDBRANCH  21  23
ENDBRANCH  17  21
ENDBRANCH  12  15
ENDBRANCH   1  11
BRANCH   8  25
HETATM   25  C   UNL     1      40.695 -14.920  -2.898  1.00  0.00     0.409 C 
HETATM   26  F   UNL     1      41.658 -15.830  -3.159  1.00  0.00    -0.169 F 
HETATM   27  F   UNL     1      39.595 -15.578  -2.466  1.00  0.00    -0.169 F 
HETATM   28  F   UNL     1      40.368 -14.366  -4.097  1.00  0.00    -0.169 F 
ENDBRANCH   8  25
BRANCH   6  29
HETATM   29  C   UNL     1      41.780 -10.789  -1.295  1.00  0.00     0.075 A 
HETATM   30  O   UNL     1      41.821 -10.096  -2.471  1.00  0.00    -0.325 OA
HETATM   31  C   UNL     1      43.027  -9.476  -2.528  1.00  0.00     0.142 A 
HETATM   32  C   UNL     1      43.770  -9.768  -1.409  1.00  0.00     0.027 A 
HETATM   33  C   UNL     1      42.967 -10.617  -0.610  1.00  0.00     0.037 A 
ENDBRANCH   6  29
TORSDOF 6
ENDMDL
MODEL 4
REMARK VINA RESULT:      -8.4      1.598      2.371
REMARK  6 active torsions:
REMARK  status: ('A' for Active; 'I' for Inactive)
REMARK    1  A    between atoms: C_2  and  O_3 
REMARK    2  A    between atoms: C_2  and  C_4 
REMARK    3  A    between atoms: C_6  and  N_7 
REMARK       I    between atoms: N_7  and  C_8 
REMARK    4  A    between atoms: C_8  and  C_9 
REMARK    5  A    between atoms: C_14  and  C_15 
REMARK    6  A    between atoms: C_21  and  C_22 
ROOT
HETATM    1  C   UNL     1      41.056 -15.952   1.289  1.00  0.00     0.148 A 
HETATM    2  N   UNL     1      40.146 -14.972   1.490  1.00  0.00    -0.165 NA
HETATM    3  N   UNL     1      40.106 -14.328   0.309  1.00  0.00    -0.240 N 
HETATM    4  C   UNL     1      40.892 -14.902  -0.656  1.00  0.00     0.123 A 
HETATM    5  N   UNL     1      40.957 -14.400  -1.907  1.00  0.00    -0.364 N 
HETATM    6  C   UNL     1      40.063 -13.331  -2.350  1.00  0.00     0.143 C 
HETATM    7  C   UNL     1      39.732 -12.408  -1.166  1.00  0.00     0.068 C 
HETATM    8  C   UNL     1      39.223 -13.201   0.055  1.00  0.00     0.221 C 
HETATM    9  C   UNL     1      41.518 -15.960  -0.054  1.00  0.00     0.089 A 
HETATM   10  H   UNL     1      41.400 -14.930  -2.657  1.00  0.00     0.162 HD
ENDROOT
BRANCH   1  11
HETATM   11  C   UNL     1      41.490 -16.854   2.373  1.00  0.00     0.276 C 
HETATM   12  N   UNL     1      42.728 -17.411   2.117  1.00  0.00    -0.322 N 
HETATM   13  H   UNL     1      43.151 -17.079   1.253  1.00  0.00     0.169 HD
HETATM   14  O   UNL     1      40.781 -17.059   3.352  1.00  0.00    -0.266 OA
BRANCH  12  15
HETATM   15  C   UNL     1      43.424 -18.377   2.865  1.00  0.00     0.035 A 
HETATM   16  C   UNL     1      43.759 -19.644   2.379  1.00  0.00     0.039 A 
HETATM   17  C   UNL     1      44.478 -20.558   3.168  1.00  0.00    -0.028 A 
HETATM   18  C   UNL     1      44.846 -20.188   4.469  1.00  0.00     0.010 A 
HETATM   19  C   UNL     1      44.517 -18.927   4.963  1.00  0.00     0.003 A 
HETATM   20  C   UNL     1      43.812 -18.026   4.163  1.00  0.00     0.029 A 
BRANCH  17  21
HETATM   21  C   UNL     1      44.826 -21.923   2.614  1.00  0.00     0.147 C 
HETATM   22  C   UNL     1      44.075 -22.232   1.328  1.00  0.00     0.044 C 
BRANCH  21  23
HETATM   23  O   UNL     1      44.530 -22.936   3.575  1.00  0.00    -0.391 OA
HETATM   24  H   UNL     1      44.457 -22.490   4.437  1.00  0.00     0.210 HD
ENDBRANCH  21  23
ENDBRANCH  17  21
ENDBRANCH  12  15
ENDBRANCH   1  11
BRANCH   8  25
HETATM   25  C   UNL     1      39.107 -12.281   1.249  1.00  0.00     0.409 C 
HETATM   26  F   UNL     1      38.197 -12.696   2.157  1.00  0.00    -0.169 F 
HETATM   27  F   UNL     1      40.288 -12.102   1.884  1.00  0.00    -0.169 F 
HETATM   28  F   UNL     1      38.696 -11.050   0.842  1.00  0.00    -0.169 F 
ENDBRANCH   8  25
BRANCH   6  29
HETATM   29  C   UNL     1      38.821 -13.795  -3.045  1.00  0.00     0.075 A 
HETATM   30  O   UNL     1      37.886 -12.834  -3.307  1.00  0.00    -0.325 OA
HETATM   31  C   UNL     1      36.855 -13.443  -3.946  1.00  0.00     0.142 A 
HETATM   32  C   UNL     1      37.107 -14.787  -4.091  1.00  0.00     0.027 A 
HETATM   33  C   UNL     1      38.377 -15.017  -3.510  1.00  0.00     0.037 A 
ENDBRANCH   6  29
TORSDOF 6
ENDMDL
MODEL 5
REMARK VINA RESULT:      -8.4      6.378      8.817
REMARK  6 active torsions:
REMARK  status: ('A' for Active; 'I' for Inactive)
REMARK    1  A    between atoms: C_2  and  O_3 
REMARK    2  A    between atoms: C_2  and  C_4 
REMARK    3  A    between atoms: C_6  and  N_7 
REMARK       I    between atoms: N_7  and  C_8 
REMARK    4  A    between atoms: C_8  and  C_9 
REMARK    5  A    between atoms: C_14  and  C_15 
REMARK    6  A    between atoms: C_21  and  C_22 
ROOT
HETATM    1  C   UNL     1      40.719 -13.693   5.866  1.00  0.00     0.148 A 
HETATM    2  N   UNL     1      42.024 -14.022   6.003  1.00  0.00    -0.165 NA
HETATM    3  N   UNL     1      42.091 -15.273   5.515  1.00  0.00    -0.240 N 
HETATM    4  C   UNL     1      40.903 -15.726   5.003  1.00  0.00     0.123 A 
HETATM    5  N   UNL     1      40.791 -16.954   4.452  1.00  0.00    -0.364 N 
HETATM    6  C   UNL     1      41.964 -17.794   4.211  1.00  0.00     0.143 C 
HETATM    7  C   UNL     1      43.023 -17.528   5.293  1.00  0.00     0.068 C 
HETATM    8  C   UNL     1      43.333 -16.024   5.436  1.00  0.00     0.221 C 
HETATM    9  C   UNL     1      39.994 -14.725   5.212  1.00  0.00     0.089 A 
HETATM   10  H   UNL     1      39.960 -17.212   3.922  1.00  0.00     0.162 HD
ENDROOT
BRANCH   1  11
HETATM   11  C   UNL     1      40.172 -12.420   6.373  1.00  0.00     0.276 C 
HETATM   12  N   UNL     1      41.006 -11.834   7.306  1.00  0.00    -0.322 N 
HETATM   13  H   UNL     1      41.871 -12.350   7.456  1.00  0.00     0.169 HD
HETATM   14  O   UNL     1      39.090 -11.995   5.986  1.00  0.00    -0.266 OA
BRANCH  12  15
HETATM   15  C   UNL     1      40.787 -10.674   8.068  1.00  0.00     0.035 A 
HETATM   16  C   UNL     1      40.235 -10.681   9.352  1.00  0.00     0.039 A 
HETATM   17  C   UNL     1      40.063  -9.487  10.075  1.00  0.00    -0.028 A 
HETATM   18  C   UNL     1      40.440  -8.275   9.481  1.00  0.00     0.010 A 
HETATM   19  C   UNL     1      40.991  -8.258   8.201  1.00  0.00     0.003 A 
HETATM   20  C   UNL     1      41.166  -9.453   7.501  1.00  0.00     0.029 A 
BRANCH  17  21
HETATM   21  C   UNL     1      39.463  -9.527  11.465  1.00  0.00     0.147 C 
HETATM   22  C   UNL     1      40.265  -8.704  12.462  1.00  0.00     0.044 C 
BRANCH  21  23
HETATM   23  O   UNL     1      39.390 -10.874  11.932  1.00  0.00    -0.391 OA
HETATM   24  H   UNL     1      38.596 -10.933  12.490  1.00  0.00     0.210 HD
ENDBRANCH  21  23
ENDBRANCH  17  21
ENDBRANCH  12  15
ENDBRANCH   1  11
BRANCH   8  25
HETATM   25  C   UNL     1      44.220 -15.797   6.640  1.00  0.00     0.409 C 
HETATM   26  F   UNL     1      45.193 -16.725   6.768  1.00  0.00    -0.169 F 
HETATM   27  F   UNL     1      44.796 -14.574   6.637  1.00  0.00    -0.169 F 
HETATM   28  F   UNL     1      43.477 -15.872   7.777  1.00  0.00    -0.169 F 
ENDBRANCH   8  25
BRANCH   6  29
HETATM   29  C   UNL     1      42.547 -17.683   2.837  1.00  0.00     0.075 A 
HETATM   30  O   UNL     1      41.773 -17.050   1.907  1.00  0.00    -0.325 OA
HETATM   31  C   UNL     1      42.474 -17.037   0.745  1.00  0.00     0.142 A 
HETATM   32  C   UNL     1      43.687 -17.663   0.909  1.00  0.00     0.027 A 
HETATM   33  C   UNL     1      43.737 -18.082   2.261  1.00  0.00     0.037 A 
ENDBRANCH   6  29
TORSDOF 6
ENDMDL
MODEL 6
REMARK VINA RESULT:      -8.3      2.586      3.518
REMARK  6 active torsions:
REMARK  status: ('A' for Active; 'I' for Inactive)
REMARK    1  A    between atoms: C_2  and  O_3 
REMARK    2  A    between atoms: C_2  and  C_4 
REMARK    3  A    between atoms: C_6  and  N_7 
REMARK       I    between atoms: N_7  and  C_8 
REMARK    4  A    between atoms: C_8  and  C_9 
REMARK    5  A    between atoms: C_14  and  C_15 
REMARK    6  A    between atoms: C_21  and  C_22 
ROOT
HETATM    1  C   UNL     1      41.533 -15.578   1.402  1.00  0.00     0.148 A 
HETATM    2  N   UNL     1      41.681 -15.039   0.171  1.00  0.00    -0.165 NA
HETATM    3  N   UNL     1      40.440 -14.629  -0.149  1.00  0.00    -0.240 N 
HETATM    4  C   UNL     1      39.525 -14.815   0.854  1.00  0.00     0.123 A 
HETATM    5  N   UNL     1      38.235 -14.443   0.715  1.00  0.00    -0.364 N 
HETATM    6  C   UNL     1      37.784 -13.665  -0.439  1.00  0.00     0.143 C 
HETATM    7  C   UNL     1      38.616 -14.042  -1.675  1.00  0.00     0.068 C 
HETATM    8  C   UNL     1      40.130 -13.952  -1.398  1.00  0.00     0.221 C 
HETATM    9  C   UNL     1      40.203 -15.425   1.876  1.00  0.00     0.089 A 
HETATM   10  H   UNL     1      37.610 -14.423   1.520  1.00  0.00     0.162 HD
ENDROOT
BRANCH   1  11
HETATM   11  C   UNL     1      42.644 -16.248   2.104  1.00  0.00     0.276 C 
HETATM   12  N   UNL     1      42.408 -17.598   2.276  1.00  0.00    -0.322 N 
HETATM   13  H   UNL     1      41.536 -17.913   1.857  1.00  0.00     0.169 HD
HETATM   14  O   UNL     1      43.627 -15.620   2.483  1.00  0.00    -0.266 OA
BRANCH  12  15
HETATM   15  C   UNL     1      43.186 -18.540   2.971  1.00  0.00     0.035 A 
HETATM   16  C   UNL     1      43.263 -18.608   4.365  1.00  0.00     0.039 A 
HETATM   17  C   UNL     1      44.041 -19.591   5.003  1.00  0.00    -0.028 A 
HETATM   18  C   UNL     1      44.760 -20.501   4.216  1.00  0.00     0.010 A 
HETATM   19  C   UNL     1      44.690 -20.441   2.826  1.00  0.00     0.003 A 
HETATM   20  C   UNL     1      43.904 -19.467   2.208  1.00  0.00     0.029 A 
BRANCH  17  21
HETATM   21  C   UNL     1      44.103 -19.640   6.515  1.00  0.00     0.147 C 
HETATM   22  C   UNL     1      43.665 -20.988   7.066  1.00  0.00     0.044 C 
BRANCH  21  23
HETATM   23  O   UNL     1      43.274 -18.621   7.075  1.00  0.00    -0.391 OA
HETATM   24  H   UNL     1      43.287 -18.751   8.039  1.00  0.00     0.210 HD
ENDBRANCH  21  23
ENDBRANCH  17  21
ENDBRANCH  12  15
ENDBRANCH   1  11
BRANCH   8  25
HETATM   25  C   UNL     1      40.898 -14.522  -2.568  1.00  0.00     0.409 C 
HETATM   26  F   UNL     1      42.145 -14.016  -2.686  1.00  0.00    -0.169 F 
HETATM   27  F   UNL     1      40.990 -15.870  -2.522  1.00  0.00    -0.169 F 
HETATM   28  F   UNL     1      40.259 -14.217  -3.730  1.00  0.00    -0.169 F 
ENDBRANCH   8  25
BRANCH   6  29
HETATM   29  C   UNL     1      37.757 -12.184  -0.228  1.00  0.00     0.075 A 
HETATM   30  O   UNL     1      37.759 -11.763   1.072  1.00  0.00    -0.325 OA
HETATM   31  C   UNL     1      37.749 -10.406   1.052  1.00  0.00     0.142 A 
HETATM   32  C   UNL     1      37.730  -9.944  -0.243  1.00  0.00     0.027 A 
HETATM   33  C   UNL     1      37.736 -11.091  -1.072  1.00  0.00     0.037 A 
ENDBRANCH   6  29
TORSDOF 6
ENDMDL
MODEL 7
REMARK VINA RESULT:      -8.2      1.282      1.948
REMARK  6 active torsions:
REMARK  status: ('A' for Active; 'I' for Inactive)
REMARK    1  A    between atoms: C_2  and  O_3 
REMARK    2  A    between atoms: C_2  and  C_4 
REMARK    3  A    between atoms: C_6  and  N_7 
REMARK       I    between atoms: N_7  and  C_8 
REMARK    4  A    between atoms: C_8  and  C_9 
REMARK    5  A    between atoms: C_14  and  C_15 
REMARK    6  A    between atoms: C_21  and  C_22 
ROOT
HETATM    1  C   UNL     1      41.313 -15.495   1.869  1.00  0.00     0.148 A 
HETATM    2  N   UNL     1      40.162 -14.805   1.697  1.00  0.00    -0.165 NA
HETATM    3  N   UNL     1      40.247 -14.355   0.431  1.00  0.00    -0.240 N 
HETATM    4  C   UNL     1      41.363 -14.793  -0.232  1.00  0.00     0.123 A 
HETATM    5  N   UNL     1      41.600 -14.456  -1.518  1.00  0.00    -0.364 N 
HETATM    6  C   UNL     1      40.598 -13.758  -2.323  1.00  0.00     0.143 C 
HETATM    7  C   UNL     1      39.766 -12.830  -1.424  1.00  0.00     0.068 C 
HETATM    8  C   UNL     1      39.195 -13.576  -0.201  1.00  0.00     0.221 C 
HETATM    9  C   UNL     1      42.073 -15.537   0.671  1.00  0.00     0.089 A 
HETATM   10  H   UNL     1      42.332 -14.924  -2.051  1.00  0.00     0.162 HD
ENDROOT
BRANCH   1  11
HETATM   11  C   UNL     1      41.686 -16.087   3.168  1.00  0.00     0.276 C 
HETATM   12  N   UNL     1      42.896 -16.749   3.105  1.00  0.00    -0.322 N 
HETATM   13  H   UNL     1      43.347 -16.684   2.195  1.00  0.00     0.169 HD
HETATM   14  O   UNL     1      40.955 -15.984   4.147  1.00  0.00    -0.266 OA
BRANCH  12  15
HETATM   15  C   UNL     1      43.532 -17.506   4.105  1.00  0.00     0.035 A 
HETATM   16  C   UNL     1      43.942 -18.831   3.934  1.00  0.00     0.039 A 
HETATM   17  C   UNL     1      44.596 -19.528   4.966  1.00  0.00    -0.028 A 
HETATM   18  C   UNL     1      44.820 -18.877   6.187  1.00  0.00     0.010 A 
HETATM   19  C   UNL     1      44.414 -17.556   6.367  1.00  0.00     0.003 A 
HETATM   20  C   UNL     1      43.777 -16.874   5.329  1.00  0.00     0.029 A 
BRANCH  17  21
HETATM   21  C   UNL     1      45.030 -20.962   4.750  1.00  0.00     0.147 C 
HETATM   22  C   UNL     1      44.607 -21.494   3.389  1.00  0.00     0.044 C 
BRANCH  21  23
HETATM   23  O   UNL     1      44.477 -21.801   5.765  1.00  0.00    -0.391 OA
HETATM   24  H   UNL     1      44.613 -21.342   6.611  1.00  0.00     0.210 HD
ENDBRANCH  21  23
ENDBRANCH  17  21
ENDBRANCH  12  15
ENDBRANCH   1  11
BRANCH   8  25
HETATM   25  C   UNL     1      38.561 -12.586   0.751  1.00  0.00     0.409 C 
HETATM   26  F   UNL     1      37.587 -13.128   1.514  1.00  0.00    -0.169 F 
HETATM   27  F   UNL     1      39.465 -12.000   1.569  1.00  0.00    -0.169 F 
HETATM   28  F   UNL     1      37.971 -11.584   0.045  1.00  0.00    -0.169 F 
ENDBRANCH   8  25
BRANCH   6  29
HETATM   29  C   UNL     1      39.722 -14.648  -3.150  1.00  0.00     0.075 A 
HETATM   30  O   UNL     1      38.497 -14.143  -3.481  1.00  0.00    -0.325 OA
HETATM   31  C   UNL     1      37.869 -15.081  -4.234  1.00  0.00     0.142 A 
HETATM   32  C   UNL     1      38.668 -16.189  -4.386  1.00  0.00     0.027 A 
HETATM   33  C   UNL     1      39.867 -15.912  -3.686  1.00  0.00     0.037 A 
ENDBRANCH   6  29
TORSDOF 6
ENDMDL
MODEL 8
REMARK VINA RESULT:      -8.1      2.899      3.926
REMARK  6 active torsions:
REMARK  status: ('A' for Active; 'I' for Inactive)
REMARK    1  A    between atoms: C_2  and  O_3 
REMARK    2  A    between atoms: C_2  and  C_4 
REMARK    3  A    between atoms: C_6  and  N_7 
REMARK       I    between atoms: N_7  and  C_8 
REMARK    4  A    between atoms: C_8  and  C_9 
REMARK    5  A    between atoms: C_14  and  C_15 
REMARK    6  A    between atoms: C_21  and  C_22 
ROOT
HETATM    1  C   UNL     1      41.195 -15.377   1.059  1.00  0.00     0.148 A 
HETATM    2  N   UNL     1      41.407 -15.369  -0.277  1.00  0.00    -0.165 NA
HETATM    3  N   UNL     1      41.045 -14.128  -0.650  1.00  0.00    -0.240 N 
HETATM    4  C   UNL     1      40.686 -13.323   0.400  1.00  0.00     0.123 A 
HETATM    5  N   UNL     1      40.315 -12.039   0.212  1.00  0.00    -0.364 N 
HETATM    6  C   UNL     1      40.445 -11.387  -1.091  1.00  0.00     0.143 C 
HETATM    7  C   UNL     1      40.238 -12.421  -2.210  1.00  0.00     0.068 C 
HETATM    8  C   UNL     1      41.139 -13.658  -2.022  1.00  0.00     0.221 C 
HETATM    9  C   UNL     1      40.776 -14.101   1.522  1.00  0.00     0.089 A 
HETATM   10  H   UNL     1      40.221 -11.404   1.004  1.00  0.00     0.162 HD
ENDROOT
BRANCH   1  11
HETATM   11  C   UNL     1      41.372 -16.594   1.875  1.00  0.00     0.276 C 
HETATM   12  N   UNL     1      42.695 -16.800   2.215  1.00  0.00    -0.322 N 
HETATM   13  H   UNL     1      43.316 -16.064   1.887  1.00  0.00     0.169 HD
HETATM   14  O   UNL     1      40.419 -17.307   2.166  1.00  0.00    -0.266 OA
BRANCH  12  15
HETATM   15  C   UNL     1      43.262 -17.887   2.902  1.00  0.00     0.035 A 
HETATM   16  C   UNL     1      43.206 -18.045   4.290  1.00  0.00     0.039 A 
HETATM   17  C   UNL     1      43.772 -19.169   4.917  1.00  0.00    -0.028 A 
HETATM   18  C   UNL     1      44.414 -20.133   4.128  1.00  0.00     0.010 A 
HETATM   19  C   UNL     1      44.475 -19.985   2.744  1.00  0.00     0.003 A 
HETATM   20  C   UNL     1      43.898 -18.869   2.135  1.00  0.00     0.029 A 
BRANCH  17  21
HETATM   21  C   UNL     1      43.695 -19.311   6.422  1.00  0.00     0.147 C 
HETATM   22  C   UNL     1      44.733 -18.459   7.136  1.00  0.00     0.044 C 
BRANCH  21  23
HETATM   23  O   UNL     1      43.882 -20.676   6.798  1.00  0.00    -0.391 OA
HETATM   24  H   UNL     1      44.197 -20.671   7.718  1.00  0.00     0.210 HD
ENDBRANCH  21  23
ENDBRANCH  17  21
ENDBRANCH  12  15
ENDBRANCH   1  11
BRANCH   8  25
HETATM   25  C   UNL     1      40.756 -14.725  -3.023  1.00  0.00     0.409 C 
HETATM   26  F   UNL     1      39.938 -15.669  -2.510  1.00  0.00    -0.169 F 
HETATM   27  F   UNL     1      40.173 -14.213  -4.130  1.00  0.00    -0.169 F 
HETATM   28  F   UNL     1      41.871 -15.382  -3.442  1.00  0.00    -0.169 F 
ENDBRANCH   8  25
BRANCH   6  29
HETATM   29  C   UNL     1      41.712 -10.616  -1.286  1.00  0.00     0.075 A 
HETATM   30  O   UNL     1      41.797  -9.885  -2.437  1.00  0.00    -0.325 OA
HETATM   31  C   UNL     1      42.999  -9.254  -2.421  1.00  0.00     0.142 A 
HETATM   32  C   UNL     1      43.696  -9.576  -1.281  1.00  0.00     0.027 A 
HETATM   33  C   UNL     1      42.866 -10.456  -0.545  1.00  0.00     0.037 A 
ENDBRANCH   6  29
TORSDOF 6
ENDMDL
MODEL 9
REMARK VINA RESULT:      -8.0      3.080      9.173
REMARK  6 active torsions:
REMARK  status: ('A' for Active; 'I' for Inactive)
REMARK    1  A    between atoms: C_2  and  O_3 
REMARK    2  A    between atoms: C_2  and  C_4 
REMARK    3  A    between atoms: C_6  and  N_7 
REMARK       I    between atoms: N_7  and  C_8 
REMARK    4  A    between atoms: C_8  and  C_9 
REMARK    5  A    between atoms: C_14  and  C_15 
REMARK    6  A    between atoms: C_21  and  C_22 
ROOT
HETATM    1  C   UNL     1      42.157 -14.436   2.188  1.00  0.00     0.148 A 
HETATM    2  N   UNL     1      43.009 -14.311   3.230  1.00  0.00    -0.165 NA
HETATM    3  N   UNL     1      42.732 -15.379   3.999  1.00  0.00    -0.240 N 
HETATM    4  C   UNL     1      41.796 -16.219   3.455  1.00  0.00     0.123 A 
HETATM    5  N   UNL     1      41.412 -17.352   4.081  1.00  0.00    -0.364 N 
HETATM    6  C   UNL     1      42.097 -17.834   5.279  1.00  0.00     0.143 C 
HETATM    7  C   UNL     1      42.613 -16.639   6.097  1.00  0.00     0.068 C 
HETATM    8  C   UNL     1      43.444 -15.669   5.233  1.00  0.00     0.221 C 
HETATM    9  C   UNL     1      41.405 -15.638   2.278  1.00  0.00     0.089 A 
HETATM   10  H   UNL     1      40.853 -18.051   3.593  1.00  0.00     0.162 HD
ENDROOT
BRANCH   1  11
HETATM   11  C   UNL     1      42.050 -13.411   1.133  1.00  0.00     0.276 C 
HETATM   12  N   UNL     1      41.530 -13.926  -0.039  1.00  0.00    -0.322 N 
HETATM   13  H   UNL     1      41.269 -14.908   0.032  1.00  0.00     0.169 HD
HETATM   14  O   UNL     1      42.415 -12.257   1.329  1.00  0.00    -0.266 OA
BRANCH  12  15
HETATM   15  C   UNL     1      41.363 -13.285  -1.278  1.00  0.00     0.035 A 
HETATM   16  C   UNL     1      40.121 -12.910  -1.799  1.00  0.00     0.039 A 
HETATM   17  C   UNL     1      40.022 -12.249  -3.035  1.00  0.00    -0.028 A 
HETATM   18  C   UNL     1      41.193 -11.981  -3.757  1.00  0.00     0.010 A 
HETATM   19  C   UNL     1      42.436 -12.351  -3.246  1.00  0.00     0.003 A 
HETATM   20  C   UNL     1      42.519 -12.997  -2.012  1.00  0.00     0.029 A 
BRANCH  17  21
HETATM   21  C   UNL     1      38.662 -11.854  -3.573  1.00  0.00     0.147 C 
HETATM   22  C   UNL     1      37.684 -13.019  -3.576  1.00  0.00     0.044 C 
BRANCH  21  23
HETATM   23  O   UNL     1      38.786 -11.353  -4.904  1.00  0.00    -0.391 OA
HETATM   24  H   UNL     1      37.934 -11.518  -5.344  1.00  0.00     0.210 HD
ENDBRANCH  21  23
ENDBRANCH  17  21
ENDBRANCH  12  15
ENDBRANCH   1  11
BRANCH   8  25
HETATM   25  C   UNL     1      43.755 -14.418   6.025  1.00  0.00     0.409 C 
HETATM   26  F   UNL     1      44.825 -13.741   5.554  1.00  0.00    -0.169 F 
HETATM   27  F   UNL     1      42.706 -13.567   6.085  1.00  0.00    -0.169 F 
HETATM   28  F   UNL     1      44.058 -14.751   7.309  1.00  0.00    -0.169 F 
ENDBRANCH   8  25
BRANCH   6  29
HETATM   29  C   UNL     1      43.182 -18.833   5.026  1.00  0.00     0.075 A 
HETATM   30  O   UNL     1      43.476 -19.674   6.062  1.00  0.00    -0.325 OA
HETATM   31  C   UNL     1      44.462 -20.504   5.635  1.00  0.00     0.142 A 
HETATM   32  C   UNL     1      44.816 -20.203   4.341  1.00  0.00     0.027 A 
HETATM   33  C   UNL     1      43.990 -19.124   3.945  1.00  0.00     0.037 A 
ENDBRANCH   6  29
TORSDOF 6
ENDMDL
MODEL 10
REMARK VINA RESULT:      -7.9      2.451      9.074
REMARK  6 active torsions:
REMARK  status: ('A' for Active; 'I' for Inactive)
REMARK    1  A    between atoms: C_2  and  O_3 
REMARK    2  A    between atoms: C_2  and  C_4 
REMARK    3  A    between atoms: C_6  and  N_7 
REMARK       I    between atoms: N_7  and  C_8 
REMARK    4  A    between atoms: C_8  and  C_9 
REMARK    5  A    between atoms: C_14  and  C_15 
REMARK    6  A    between atoms: C_21  and  C_22 
ROOT
HETATM    1  C   UNL     1      41.043 -15.262   1.314  1.00  0.00     0.148 A 
HETATM    2  N   UNL     1      42.094 -14.845   2.054  1.00  0.00    -0.165 NA
HETATM    3  N   UNL     1      42.077 -15.663   3.122  1.00  0.00    -0.240 N 
HETATM    4  C   UNL     1      41.108 -16.630   3.056  1.00  0.00     0.123 A 
HETATM    5  N   UNL     1      40.959 -17.551   4.032  1.00  0.00    -0.364 N 
HETATM    6  C   UNL     1      41.929 -17.678   5.119  1.00  0.00     0.143 C 
HETATM    7  C   UNL     1      42.524 -16.298   5.445  1.00  0.00     0.068 C 
HETATM    8  C   UNL     1      43.066 -15.594   4.185  1.00  0.00     0.221 C 
HETATM    9  C   UNL     1      40.422 -16.400   1.894  1.00  0.00     0.089 A 
HETATM   10  H   UNL     1      40.359 -18.363   3.892  1.00  0.00     0.162 HD
ENDROOT
BRANCH   1  11
HETATM   11  C   UNL     1      40.626 -14.567   0.080  1.00  0.00     0.276 C 
HETATM   12  N   UNL     1      39.298 -14.191   0.122  1.00  0.00    -0.322 N 
HETATM   13  H   UNL     1      38.841 -14.414   1.004  1.00  0.00     0.169 HD
HETATM   14  O   UNL     1      41.410 -14.393  -0.846  1.00  0.00    -0.266 OA
BRANCH  12  15
HETATM   15  C   UNL     1      38.525 -13.594  -0.889  1.00  0.00     0.035 A 
HETATM   16  C   UNL     1      38.256 -14.199  -2.120  1.00  0.00     0.039 A 
HETATM   17  C   UNL     1      37.455 -13.561  -3.083  1.00  0.00    -0.028 A 
HETATM   18  C   UNL     1      36.937 -12.289  -2.799  1.00  0.00     0.010 A 
HETATM   19  C   UNL     1      37.201 -11.678  -1.575  1.00  0.00     0.003 A 
HETATM   20  C   UNL     1      37.988 -12.330  -0.624  1.00  0.00     0.029 A 
BRANCH  17  21
HETATM   21  C   UNL     1      37.180 -14.241  -4.407  1.00  0.00     0.147 C 
HETATM   22  C   UNL     1      35.697 -14.272  -4.743  1.00  0.00     0.044 C 
BRANCH  21  23
HETATM   23  O   UNL     1      37.675 -15.581  -4.385  1.00  0.00    -0.391 OA
HETATM   24  H   UNL     1      36.941 -16.153  -4.667  1.00  0.00     0.210 HD
ENDBRANCH  21  23
ENDBRANCH  17  21
ENDBRANCH  12  15
ENDBRANCH   1  11
BRANCH   8  25
HETATM   25  C   UNL     1      43.452 -14.171   4.521  1.00  0.00     0.409 C 
HETATM   26  F   UNL     1      44.073 -14.053   5.714  1.00  0.00    -0.169 F 
HETATM   27  F   UNL     1      44.239 -13.610   3.575  1.00  0.00    -0.169 F 
HETATM   28  F   UNL     1      42.334 -13.400   4.601  1.00  0.00    -0.169 F 
ENDBRANCH   8  25
BRANCH   6  29
HETATM   29  C   UNL     1      43.002 -18.696   4.892  1.00  0.00     0.075 A 
HETATM   30  O   UNL     1      43.237 -19.038   3.591  1.00  0.00    -0.325 OA
HETATM   31  C   UNL     1      44.242 -19.950   3.593  1.00  0.00     0.142 A 
HETATM   32  C   UNL     1      44.653 -20.209   4.879  1.00  0.00     0.027 A 
HETATM   33  C   UNL     1      43.853 -19.399   5.721  1.00  0.00     0.037 A 
ENDBRANCH   6  29
TORSDOF 6
ENDMDL
