MODEL 1
REMARK VINA RESULT:      -7.8      0.000      0.000
REMARK  9 active torsions:
REMARK  status: ('A' for Active; 'I' for Inactive)
REMARK    1  A    between atoms: C_2  and  C_3 
REMARK    2  A    between atoms: C_6  and  N_7 
REMARK    3  A    between atoms: C_8  and  C_10 
REMARK    4  A    between atoms: C_8  and  O_9 
REMARK       I    between atoms: C_10  and  N_11 
REMARK    5  A    between atoms: N_11  and  C_12 
REMARK    6  A    between atoms: C_12  and  C_13 
REMARK    7  A    between atoms: C_13  and  N_14 
REMARK    8  A    between atoms: N_14  and  C_16 
REMARK    9  A    between atoms: N_14  and  C_18 
ROOT
HETATM    1  N   UNL     1      42.381 -15.008   3.252  1.00  0.00    -0.254 N 
HETATM    2  C   UNL     1      40.936 -14.929   2.949  1.00  0.00     0.256 C 
HETATM    3  C   UNL     1      40.404 -13.538   2.677  1.00  0.00     0.034 A 
HETATM    4  C   UNL     1      41.230 -12.446   2.878  1.00  0.00     0.048 A 
HETATM    5  N   UNL     1      42.517 -12.658   3.339  1.00  0.00    -0.308 N 
HETATM    6  C   UNL     1      43.105 -13.863   3.560  1.00  0.00     0.330 C 
HETATM    7  O   UNL     1      44.253 -13.843   4.001  1.00  0.00    -0.246 OA
HETATM    8  C   UNL     1      39.075 -13.302   2.274  1.00  0.00     0.015 A 
HETATM    9  C   UNL     1      38.620 -12.004   2.034  1.00  0.00     0.001 A 
HETATM   10  C   UNL     1      39.477 -10.923   2.220  1.00  0.00     0.002 A 
HETATM   11  C   UNL     1      40.783 -11.142   2.653  1.00  0.00     0.030 A 
HETATM   12  H   UNL     1      43.106 -11.864   3.564  1.00  0.00     0.170 HD
ENDROOT
BRANCH   2  13
HETATM   13  C   UNL     1      40.613 -15.807   1.633  1.00  0.00     0.279 C 
HETATM   14  N   UNL     1      41.103 -15.319   0.436  1.00  0.00    -0.355 N 
HETATM   15  H   UNL     1      41.623 -14.445   0.494  1.00  0.00     0.162 HD
HETATM   16  O   UNL     1      39.903 -16.816   1.653  1.00  0.00    -0.268 OA
BRANCH  14  17
HETATM   17  C   UNL     1      40.994 -15.926  -0.885  1.00  0.00     0.150 C 
BRANCH  17  18
HETATM   18  C   UNL     1      40.558 -15.034  -2.070  1.00  0.00     0.254 C 
BRANCH  18  19
HETATM   19  N   UNL     1      39.069 -14.722  -2.095  1.00  0.00    -0.070 N 
HETATM   20  H   UNL     1      38.670 -15.408  -1.417  1.00  0.00     0.279 HD
BRANCH  19  21
HETATM   21  C   UNL     1      38.654 -13.382  -1.535  1.00  0.00     0.230 C 
HETATM   22  C   UNL     1      39.829 -12.433  -1.390  1.00  0.00     0.034 C 
ENDBRANCH  19  21
BRANCH  19  23
HETATM   23  C   UNL     1      38.407 -15.029  -3.420  1.00  0.00     0.230 C 
HETATM   24  C   UNL     1      39.074 -16.207  -4.109  1.00  0.00     0.034 C 
ENDBRANCH  19  23
ENDBRANCH  18  19
ENDBRANCH  17  18
ENDBRANCH  14  17
ENDBRANCH   2  13
BRANCH   2  25
HETATM   25  O   UNL     1      40.240 -15.376   4.100  1.00  0.00    -0.359 OA
HETATM   26  H   UNL     1      39.358 -15.625   3.776  1.00  0.00     0.213 HD
ENDBRANCH   2  25
BRANCH   1  27
HETATM   27  C   UNL     1      43.042 -16.306   3.237  1.00  0.00     0.043 A 
HETATM   28  C   UNL     1      42.940 -17.210   4.309  1.00  0.00     0.030 A 
HETATM   29  C   UNL     1      43.455 -18.511   4.219  1.00  0.00     0.009 A 
HETATM   30  C   UNL     1      44.086 -18.947   3.054  1.00  0.00    -0.058 A 
HETATM   31  C   UNL     1      44.216 -18.055   1.990  1.00  0.00     0.009 A 
HETATM   32  C   UNL     1      43.707 -16.754   2.085  1.00  0.00     0.030 A 
BRANCH  30  33
HETATM   33  C   UNL     1      44.590 -20.363   2.929  1.00  0.00     0.034 C 
HETATM   34  C   UNL     1      43.798 -21.144   1.890  1.00  0.00     0.010 C 
ENDBRANCH  30  33
ENDBRANCH   1  27
TORSDOF 9
ENDMDL
MODEL 2
REMARK VINA RESULT:      -7.7      2.113      7.648
REMARK  9 active torsions:
REMARK  status: ('A' for Active; 'I' for Inactive)
REMARK    1  A    between atoms: C_2  and  C_3 
REMARK    2  A    between atoms: C_6  and  N_7 
REMARK    3  A    between atoms: C_8  and  C_10 
REMARK    4  A    between atoms: C_8  and  O_9 
REMARK       I    between atoms: C_10  and  N_11 
REMARK    5  A    between atoms: N_11  and  C_12 
REMARK    6  A    between atoms: C_12  and  C_13 
REMARK    7  A    between atoms: C_13  and  N_14 
REMARK    8  A    between atoms: N_14  and  C_16 
REMARK    9  A    between atoms: N_14  and  C_18 
ROOT
HETATM    1  N   UNL     1      40.426 -15.096   0.820  1.00  0.00    -0.254 N 
HETATM    2  C   UNL     1      40.582 -15.861   2.075  1.00  0.00     0.256 C 
HETATM    3  C   UNL     1      41.796 -16.763   2.142  1.00  0.00     0.034 A 
HETATM    4  C   UNL     1      42.572 -16.938   1.009  1.00  0.00     0.048 A 
HETATM    5  N   UNL     1      42.204 -16.293  -0.158  1.00  0.00    -0.308 N 
HETATM    6  C   UNL     1      41.171 -15.424  -0.307  1.00  0.00     0.330 C 
HETATM    7  O   UNL     1      40.985 -14.977  -1.438  1.00  0.00    -0.246 OA
HETATM    8  C   UNL     1      42.143 -17.479   3.303  1.00  0.00     0.015 A 
HETATM    9  C   UNL     1      43.270 -18.303   3.326  1.00  0.00     0.001 A 
HETATM   10  C   UNL     1      44.049 -18.444   2.181  1.00  0.00     0.002 A 
HETATM   11  C   UNL     1      43.695 -17.769   1.015  1.00  0.00     0.030 A 
HETATM   12  H   UNL     1      42.718 -16.473  -1.013  1.00  0.00     0.170 HD
ENDROOT
BRANCH   2  13
HETATM   13  C   UNL     1      40.704 -14.837   3.318  1.00  0.00     0.279 C 
HETATM   14  N   UNL     1      41.907 -14.167   3.442  1.00  0.00    -0.355 N 
HETATM   15  H   UNL     1      42.610 -14.384   2.736  1.00  0.00     0.162 HD
HETATM   16  O   UNL     1      39.822 -14.702   4.171  1.00  0.00    -0.268 OA
BRANCH  14  17
HETATM   17  C   UNL     1      42.271 -13.166   4.437  1.00  0.00     0.150 C 
BRANCH  17  18
HETATM   18  C   UNL     1      42.577 -13.639   5.877  1.00  0.00     0.254 C 
BRANCH  18  19
HETATM   19  N   UNL     1      43.710 -14.649   5.968  1.00  0.00    -0.070 N 
HETATM   20  H   UNL     1      43.998 -14.776   4.973  1.00  0.00     0.279 HD
BRANCH  19  21
HETATM   21  C   UNL     1      44.974 -14.180   6.651  1.00  0.00     0.230 C 
HETATM   22  C   UNL     1      44.683 -13.344   7.883  1.00  0.00     0.034 C 
ENDBRANCH  19  21
BRANCH  19  23
HETATM   23  C   UNL     1      43.267 -16.017   6.440  1.00  0.00     0.230 C 
HETATM   24  C   UNL     1      44.454 -16.945   6.630  1.00  0.00     0.034 C 
ENDBRANCH  19  23
ENDBRANCH  18  19
ENDBRANCH  17  18
ENDBRANCH  14  17
ENDBRANCH   2  13
BRANCH   2  25
HETATM   25  O   UNL     1      39.466 -16.730   2.179  1.00  0.00    -0.359 OA
HETATM   26  H   UNL     1      39.785 -17.584   1.842  1.00  0.00     0.213 HD
ENDBRANCH   2  25
BRANCH   1  27
HETATM   27  C   UNL     1      39.473 -13.997   0.769  1.00  0.00     0.043 A 
HETATM   28  C   UNL     1      38.087 -14.211   0.677  1.00  0.00     0.030 A 
HETATM   29  C   UNL     1      37.175 -13.151   0.780  1.00  0.00     0.009 A 
HETATM   30  C   UNL     1      37.622 -11.844   0.979  1.00  0.00    -0.058 A 
HETATM   31  C   UNL     1      38.996 -11.612   1.048  1.00  0.00     0.009 A 
HETATM   32  C   UNL     1      39.905 -12.671   0.938  1.00  0.00     0.030 A 
BRANCH  30  33
HETATM   33  C   UNL     1      36.645 -10.708   1.148  1.00  0.00     0.034 C 
HETATM   34  C   UNL     1      35.282 -11.059   0.567  1.00  0.00     0.010 C 
ENDBRANCH  30  33
ENDBRANCH   1  27
TORSDOF 9
ENDMDL
MODEL 3
REMARK VINA RESULT:      -7.5      1.828      2.260
REMARK  9 active torsions:
REMARK  status: ('A' for Active; 'I' for Inactive)
REMARK    1  A    between atoms: C_2  and  C_3 
REMARK    2  A    between atoms: C_6  and  N_7 
REMARK    3  A    between atoms: C_8  and  C_10 
REMARK    4  A    between atoms: C_8  and  O_9 
REMARK       I    between atoms: C_10  and  N_11 
REMARK    5  A    between atoms: N_11  and  C_12 
REMARK    6  A    between atoms: C_12  and  C_13 
REMARK    7  A    between atoms: C_13  and  N_14 
REMARK    8  A    between atoms: N_14  and  C_16 
REMARK    9  A    between atoms: N_14  and  C_18 
ROOT
HETATM    1  N   UNL     1      41.285 -15.995   4.351  1.00  0.00    -0.254 N 
HETATM    2  C   UNL     1      40.589 -15.085   3.416  1.00  0.00     0.256 C 
HETATM    3  C   UNL     1      39.957 -13.863   4.048  1.00  0.00     0.034 A 
HETATM    4  C   UNL     1      39.927 -13.753   5.428  1.00  0.00     0.048 A 
HETATM    5  N   UNL     1      40.462 -14.774   6.190  1.00  0.00    -0.308 N 
HETATM    6  C   UNL     1      41.098 -15.880   5.723  1.00  0.00     0.330 C 
HETATM    7  O   UNL     1      41.479 -16.693   6.564  1.00  0.00    -0.246 OA
HETATM    8  C   UNL     1      39.346 -12.848   3.286  1.00  0.00     0.015 A 
HETATM    9  C   UNL     1      38.772 -11.736   3.905  1.00  0.00     0.001 A 
HETATM   10  C   UNL     1      38.776 -11.635   5.293  1.00  0.00     0.002 A 
HETATM   11  C   UNL     1      39.344 -12.651   6.059  1.00  0.00     0.030 A 
HETATM   12  H   UNL     1      40.378 -14.743   7.201  1.00  0.00     0.170 HD
ENDROOT
BRANCH   2  13
HETATM   13  C   UNL     1      41.636 -14.540   2.315  1.00  0.00     0.279 C 
HETATM   14  N   UNL     1      41.284 -14.729   0.991  1.00  0.00    -0.355 N 
HETATM   15  H   UNL     1      40.395 -15.199   0.832  1.00  0.00     0.162 HD
HETATM   16  O   UNL     1      42.731 -14.052   2.608  1.00  0.00    -0.268 OA
BRANCH  14  17
HETATM   17  C   UNL     1      42.018 -14.302  -0.195  1.00  0.00     0.150 C 
BRANCH  17  18
HETATM   18  C   UNL     1      41.213 -13.843  -1.432  1.00  0.00     0.254 C 
BRANCH  18  19
HETATM   19  N   UNL     1      40.110 -14.807  -1.845  1.00  0.00    -0.070 N 
HETATM   20  H   UNL     1      39.994 -15.412  -1.003  1.00  0.00     0.279 HD
BRANCH  19  21
HETATM   21  C   UNL     1      38.738 -14.209  -2.049  1.00  0.00     0.230 C 
HETATM   22  C   UNL     1      38.107 -13.765  -0.743  1.00  0.00     0.034 C 
ENDBRANCH  19  21
BRANCH  19  23
HETATM   23  C   UNL     1      40.510 -15.742  -2.965  1.00  0.00     0.230 C 
HETATM   24  C   UNL     1      39.333 -16.048  -3.874  1.00  0.00     0.034 C 
ENDBRANCH  19  23
ENDBRANCH  18  19
ENDBRANCH  17  18
ENDBRANCH  14  17
ENDBRANCH   2  13
BRANCH   2  25
HETATM   25  O   UNL     1      39.511 -15.810   2.848  1.00  0.00    -0.359 OA
HETATM   26  H   UNL     1      39.498 -15.543   1.913  1.00  0.00     0.213 HD
ENDBRANCH   2  25
BRANCH   1  27
HETATM   27  C   UNL     1      42.164 -17.026   3.819  1.00  0.00     0.043 A 
HETATM   28  C   UNL     1      43.412 -17.318   4.397  1.00  0.00     0.030 A 
HETATM   29  C   UNL     1      44.178 -18.411   3.968  1.00  0.00     0.009 A 
HETATM   30  C   UNL     1      43.719 -19.245   2.948  1.00  0.00    -0.058 A 
HETATM   31  C   UNL     1      42.494 -18.955   2.348  1.00  0.00     0.009 A 
HETATM   32  C   UNL     1      41.734 -17.860   2.773  1.00  0.00     0.030 A 
BRANCH  30  33
HETATM   33  C   UNL     1      44.512 -20.455   2.522  1.00  0.00     0.034 C 
HETATM   34  C   UNL     1      43.629 -21.477   1.818  1.00  0.00     0.010 C 
ENDBRANCH  30  33
ENDBRANCH   1  27
TORSDOF 9
ENDMDL
MODEL 4
REMARK VINA RESULT:      -7.4      2.218      5.981
REMARK  9 active torsions:
REMARK  status: ('A' for Active; 'I' for Inactive)
REMARK    1  A    between atoms: C_2  and  C_3 
REMARK    2  A    between atoms: C_6  and  N_7 
REMARK    3  A    between atoms: C_8  and  C_10 
REMARK    4  A    between atoms: C_8  and  O_9 
REMARK       I    between atoms: C_10  and  N_11 
REMARK    5  A    between atoms: N_11  and  C_12 
REMARK    6  A    between atoms: C_12  and  C_13 
REMARK    7  A    between atoms: C_13  and  N_14 
REMARK    8  A    between atoms: N_14  and  C_16 
REMARK    9  A    between atoms: N_14  and  C_18 
ROOT
HETATM    1  N   UNL     1      43.657 -16.989   4.545  1.00  0.00    -0.254 N 
HETATM    2  C   UNL     1      43.436 -17.565   3.201  1.00  0.00     0.256 C 
HETATM    3  C   UNL     1      43.735 -19.043   3.070  1.00  0.00     0.034 A 
HETATM    4  C   UNL     1      44.328 -19.710   4.128  1.00  0.00     0.048 A 
HETATM    5  N   UNL     1      44.645 -19.000   5.271  1.00  0.00    -0.308 N 
HETATM    6  C   UNL     1      44.370 -17.691   5.509  1.00  0.00     0.330 C 
HETATM    7  O   UNL     1      44.762 -17.230   6.580  1.00  0.00    -0.246 OA
HETATM    8  C   UNL     1      43.481 -19.764   1.887  1.00  0.00     0.015 A 
HETATM    9  C   UNL     1      43.773 -21.127   1.804  1.00  0.00     0.001 A 
HETATM   10  C   UNL     1      44.346 -21.782   2.890  1.00  0.00     0.002 A 
HETATM   11  C   UNL     1      44.635 -21.071   4.052  1.00  0.00     0.030 A 
HETATM   12  H   UNL     1      45.150 -19.458   6.023  1.00  0.00     0.170 HD
ENDROOT
BRANCH   2  13
HETATM   13  C   UNL     1      41.889 -17.373   2.780  1.00  0.00     0.279 C 
HETATM   14  N   UNL     1      41.644 -16.501   1.735  1.00  0.00    -0.355 N 
HETATM   15  H   UNL     1      42.465 -16.056   1.327  1.00  0.00     0.162 HD
HETATM   16  O   UNL     1      40.953 -17.898   3.390  1.00  0.00    -0.268 OA
BRANCH  14  17
HETATM   17  C   UNL     1      40.358 -16.177   1.129  1.00  0.00     0.150 C 
BRANCH  17  18
HETATM   18  C   UNL     1      40.109 -14.723   0.668  1.00  0.00     0.254 C 
BRANCH  18  19
HETATM   19  N   UNL     1      39.357 -14.611  -0.650  1.00  0.00    -0.070 N 
HETATM   20  H   UNL     1      39.016 -15.584  -0.814  1.00  0.00     0.279 HD
BRANCH  19  21
HETATM   21  C   UNL     1      38.091 -13.786  -0.632  1.00  0.00     0.230 C 
HETATM   22  C   UNL     1      37.336 -13.924   0.676  1.00  0.00     0.034 C 
ENDBRANCH  19  21
BRANCH  19  23
HETATM   23  C   UNL     1      40.246 -14.288  -1.831  1.00  0.00     0.230 C 
HETATM   24  C   UNL     1      40.728 -15.553  -2.520  1.00  0.00     0.034 C 
ENDBRANCH  19  23
ENDBRANCH  18  19
ENDBRANCH  17  18
ENDBRANCH  14  17
ENDBRANCH   2  13
BRANCH   2  25
HETATM   25  O   UNL     1      44.338 -16.922   2.315  1.00  0.00    -0.359 OA
HETATM   26  H   UNL     1      44.949 -16.436   2.894  1.00  0.00     0.213 HD
ENDBRANCH   2  25
BRANCH   1  27
HETATM   27  C   UNL     1      43.127 -15.667   4.849  1.00  0.00     0.043 A 
HETATM   28  C   UNL     1      43.613 -14.504   4.226  1.00  0.00     0.030 A 
HETATM   29  C   UNL     1      42.995 -13.260   4.415  1.00  0.00     0.009 A 
HETATM   30  C   UNL     1      41.871 -13.142   5.234  1.00  0.00    -0.058 A 
HETATM   31  C   UNL     1      41.390 -14.282   5.878  1.00  0.00     0.009 A 
HETATM   32  C   UNL     1      42.013 -15.522   5.692  1.00  0.00     0.030 A 
BRANCH  30  33
HETATM   33  C   UNL     1      41.167 -11.818   5.396  1.00  0.00     0.034 C 
HETATM   34  C   UNL     1      41.174 -11.361   6.849  1.00  0.00     0.010 C 
ENDBRANCH  30  33
ENDBRANCH   1  27
TORSDOF 9
ENDMDL
MODEL 5
REMARK VINA RESULT:      -7.4      2.011      2.474
REMARK  9 active torsions:
REMARK  status: ('A' for Active; 'I' for Inactive)
REMARK    1  A    between atoms: C_2  and  C_3 
REMARK    2  A    between atoms: C_6  and  N_7 
REMARK    3  A    between atoms: C_8  and  C_10 
REMARK    4  A    between atoms: C_8  and  O_9 
REMARK       I    between atoms: C_10  and  N_11 
REMARK    5  A    between atoms: N_11  and  C_12 
REMARK    6  A    between atoms: C_12  and  C_13 
REMARK    7  A    between atoms: C_13  and  N_14 
REMARK    8  A    between atoms: N_14  and  C_16 
REMARK    9  A    between atoms: N_14  and  C_18 
ROOT
HETATM    1  N   UNL     1      42.226 -15.170   5.111  1.00  0.00    -0.254 N 
HETATM    2  C   UNL     1      40.883 -14.631   4.807  1.00  0.00     0.256 C 
HETATM    3  C   UNL     1      40.638 -13.205   5.254  1.00  0.00     0.034 A 
HETATM    4  C   UNL     1      41.587 -12.568   6.034  1.00  0.00     0.048 A 
HETATM    5  N   UNL     1      42.728 -13.260   6.396  1.00  0.00    -0.308 N 
HETATM    6  C   UNL     1      43.067 -14.516   6.003  1.00  0.00     0.330 C 
HETATM    7  O   UNL     1      44.114 -14.972   6.459  1.00  0.00    -0.246 OA
HETATM    8  C   UNL     1      39.450 -12.512   4.952  1.00  0.00     0.015 A 
HETATM    9  C   UNL     1      39.259 -11.198   5.384  1.00  0.00     0.001 A 
HETATM   10  C   UNL     1      40.239 -10.569   6.146  1.00  0.00     0.002 A 
HETATM   11  C   UNL     1      41.402 -11.258   6.482  1.00  0.00     0.030 A 
HETATM   12  H   UNL     1      43.394 -12.832   7.030  1.00  0.00     0.170 HD
ENDROOT
BRANCH   2  13
HETATM   13  C   UNL     1      40.641 -14.656   3.210  1.00  0.00     0.279 C 
HETATM   14  N   UNL     1      41.353 -13.732   2.469  1.00  0.00    -0.355 N 
HETATM   15  H   UNL     1      41.965 -13.115   3.000  1.00  0.00     0.162 HD
HETATM   16  O   UNL     1      39.814 -15.393   2.665  1.00  0.00    -0.268 OA
BRANCH  14  17
HETATM   17  C   UNL     1      41.356 -13.564   1.020  1.00  0.00     0.150 C 
BRANCH  17  18
HETATM   18  C   UNL     1      40.975 -14.777   0.140  1.00  0.00     0.254 C 
BRANCH  18  19
HETATM   19  N   UNL     1      39.641 -14.627  -0.576  1.00  0.00    -0.070 N 
HETATM   20  H   UNL     1      39.123 -15.490  -0.299  1.00  0.00     0.279 HD
BRANCH  19  21
HETATM   21  C   UNL     1      38.748 -13.505  -0.102  1.00  0.00     0.230 C 
HETATM   22  C   UNL     1      37.470 -14.020   0.533  1.00  0.00     0.034 C 
ENDBRANCH  19  21
BRANCH  19  23
HETATM   23  C   UNL     1      39.752 -14.685  -2.084  1.00  0.00     0.230 C 
HETATM   24  C   UNL     1      40.956 -15.503  -2.517  1.00  0.00     0.034 C 
ENDBRANCH  19  23
ENDBRANCH  18  19
ENDBRANCH  17  18
ENDBRANCH  14  17
ENDBRANCH   2  13
BRANCH   2  25
HETATM   25  O   UNL     1      39.943 -15.413   5.524  1.00  0.00    -0.359 OA
HETATM   26  H   UNL     1      39.107 -15.300   5.043  1.00  0.00     0.213 HD
ENDBRANCH   2  25
BRANCH   1  27
HETATM   27  C   UNL     1      42.659 -16.405   4.473  1.00  0.00     0.043 A 
HETATM   28  C   UNL     1      43.388 -16.412   3.271  1.00  0.00     0.030 A 
HETATM   29  C   UNL     1      43.927 -17.597   2.750  1.00  0.00     0.009 A 
HETATM   30  C   UNL     1      43.751 -18.811   3.415  1.00  0.00    -0.058 A 
HETATM   31  C   UNL     1      43.010 -18.825   4.596  1.00  0.00     0.009 A 
HETATM   32  C   UNL     1      42.468 -17.642   5.111  1.00  0.00     0.030 A 
BRANCH  30  33
HETATM   33  C   UNL     1      44.377 -20.079   2.889  1.00  0.00     0.034 C 
HETATM   34  C   UNL     1      43.483 -20.750   1.855  1.00  0.00     0.010 C 
ENDBRANCH  30  33
ENDBRANCH   1  27
TORSDOF 9
ENDMDL
MODEL 6
REMARK VINA RESULT:      -7.2      1.343      2.081
REMARK  9 active torsions:
REMARK  status: ('A' for Active; 'I' for Inactive)
REMARK    1  A    between atoms: C_2  and  C_3 
REMARK    2  A    between atoms: C_6  and  N_7 
REMARK    3  A    between atoms: C_8  and  C_10 
REMARK    4  A    between atoms: C_8  and  O_9 
REMARK       I    between atoms: C_10  and  N_11 
REMARK    5  A    between atoms: N_11  and  C_12 
REMARK    6  A    between atoms: C_12  and  C_13 
REMARK    7  A    between atoms: C_13  and  N_14 
REMARK    8  A    between atoms: N_14  and  C_16 
REMARK    9  A    between atoms: N_14  and  C_18 
ROOT
HETATM    1  N   UNL     1      42.194 -14.723   3.669  1.00  0.00    -0.254 N 
HETATM    2  C   UNL     1      40.759 -14.545   3.361  1.00  0.00     0.256 C 
HETATM    3  C   UNL     1      40.291 -13.109   3.256  1.00  0.00     0.034 A 
HETATM    4  C   UNL     1      41.158 -12.086   3.600  1.00  0.00     0.048 A 
HETATM    5  N   UNL     1      42.427 -12.409   4.046  1.00  0.00    -0.308 N 
HETATM    6  C   UNL     1      42.960 -13.656   4.123  1.00  0.00     0.330 C 
HETATM    7  O   UNL     1      44.100 -13.741   4.577  1.00  0.00    -0.246 OA
HETATM    8  C   UNL     1      38.980 -12.768   2.870  1.00  0.00     0.015 A 
HETATM    9  C   UNL     1      38.584 -11.431   2.786  1.00  0.00     0.001 A 
HETATM   10  C   UNL     1      39.482 -10.420   3.112  1.00  0.00     0.002 A 
HETATM   11  C   UNL     1      40.770 -10.746   3.531  1.00  0.00     0.030 A 
HETATM   12  H   UNL     1      43.045 -11.675   4.373  1.00  0.00     0.170 HD
ENDROOT
BRANCH   2  13
HETATM   13  C   UNL     1      40.421 -15.240   1.944  1.00  0.00     0.279 C 
HETATM   14  N   UNL     1      40.983 -14.653   0.825  1.00  0.00    -0.355 N 
HETATM   15  H   UNL     1      41.558 -13.830   0.998  1.00  0.00     0.162 HD
HETATM   16  O   UNL     1      39.645 -16.193   1.827  1.00  0.00    -0.268 OA
BRANCH  14  17
HETATM   17  C   UNL     1      40.877 -15.094  -0.561  1.00  0.00     0.150 C 
BRANCH  17  18
HETATM   18  C   UNL     1      40.596 -14.034  -1.650  1.00  0.00     0.254 C 
BRANCH  18  19
HETATM   19  N   UNL     1      41.658 -12.949  -1.746  1.00  0.00    -0.070 N 
HETATM   20  H   UNL     1      42.330 -13.204  -0.988  1.00  0.00     0.279 HD
BRANCH  19  21
HETATM   21  C   UNL     1      42.509 -12.952  -2.995  1.00  0.00     0.230 C 
HETATM   22  C   UNL     1      42.320 -11.694  -3.820  1.00  0.00     0.034 C 
ENDBRANCH  19  21
BRANCH  19  23
HETATM   23  C   UNL     1      41.150 -11.569  -1.392  1.00  0.00     0.230 C 
HETATM   24  C   UNL     1      41.644 -11.135  -0.023  1.00  0.00     0.034 C 
ENDBRANCH  19  23
ENDBRANCH  18  19
ENDBRANCH  17  18
ENDBRANCH  14  17
ENDBRANCH   2  13
BRANCH   2  25
HETATM   25  O   UNL     1      40.026 -15.098   4.441  1.00  0.00    -0.359 OA
HETATM   26  H   UNL     1      39.848 -14.346   5.031  1.00  0.00     0.213 HD
ENDBRANCH   2  25
BRANCH   1  27
HETATM   27  C   UNL     1      42.800 -16.037   3.503  1.00  0.00     0.043 A 
HETATM   28  C   UNL     1      42.509 -17.110   4.363  1.00  0.00     0.030 A 
HETATM   29  C   UNL     1      42.981 -18.404   4.103  1.00  0.00     0.009 A 
HETATM   30  C   UNL     1      43.759 -18.664   2.973  1.00  0.00    -0.058 A 
HETATM   31  C   UNL     1      44.076 -17.605   2.122  1.00  0.00     0.009 A 
HETATM   32  C   UNL     1      43.609 -16.313   2.388  1.00  0.00     0.030 A 
BRANCH  30  33
HETATM   33  C   UNL     1      44.221 -20.064   2.657  1.00  0.00     0.034 C 
HETATM   34  C   UNL     1      44.947 -20.689   3.841  1.00  0.00     0.010 C 
ENDBRANCH  30  33
ENDBRANCH   1  27
TORSDOF 9
ENDMDL
MODEL 7
REMARK VINA RESULT:      -7.1      2.107      7.236
REMARK  9 active torsions:
REMARK  status: ('A' for Active; 'I' for Inactive)
REMARK    1  A    between atoms: C_2  and  C_3 
REMARK    2  A    between atoms: C_6  and  N_7 
REMARK    3  A    between atoms: C_8  and  C_10 
REMARK    4  A    between atoms: C_8  and  O_9 
REMARK       I    between atoms: C_10  and  N_11 
REMARK    5  A    between atoms: N_11  and  C_12 
REMARK    6  A    between atoms: C_12  and  C_13 
REMARK    7  A    between atoms: C_13  and  N_14 
REMARK    8  A    between atoms: N_14  and  C_16 
REMARK    9  A    between atoms: N_14  and  C_18 
ROOT
HETATM    1  N   UNL     1      40.405 -15.053   0.879  1.00  0.00    -0.254 N 
HETATM    2  C   UNL     1      40.571 -15.862   2.105  1.00  0.00     0.256 C 
HETATM    3  C   UNL     1      41.784 -16.768   2.127  1.00  0.00     0.034 A 
HETATM    4  C   UNL     1      42.548 -16.904   0.980  1.00  0.00     0.048 A 
HETATM    5  N   UNL     1      42.170 -16.217  -0.159  1.00  0.00    -0.308 N 
HETATM    6  C   UNL     1      41.137 -15.342  -0.266  1.00  0.00     0.330 C 
HETATM    7  O   UNL     1      40.941 -14.853  -1.378  1.00  0.00    -0.246 OA
HETATM    8  C   UNL     1      42.141 -17.526   3.258  1.00  0.00     0.015 A 
HETATM    9  C   UNL     1      43.267 -18.352   3.240  1.00  0.00     0.001 A 
HETATM   10  C   UNL     1      44.034 -18.453   2.083  1.00  0.00     0.002 A 
HETATM   11  C   UNL     1      43.669 -17.736   0.946  1.00  0.00     0.030 A 
HETATM   12  H   UNL     1      42.675 -16.368  -1.025  1.00  0.00     0.170 HD
ENDROOT
BRANCH   2  13
HETATM   13  C   UNL     1      40.709 -14.884   3.382  1.00  0.00     0.279 C 
HETATM   14  N   UNL     1      41.786 -14.017   3.375  1.00  0.00    -0.355 N 
HETATM   15  H   UNL     1      42.398 -14.077   2.562  1.00  0.00     0.162 HD
HETATM   16  O   UNL     1      39.958 -14.940   4.360  1.00  0.00    -0.268 OA
BRANCH  14  17
HETATM   17  C   UNL     1      42.123 -13.008   4.372  1.00  0.00     0.150 C 
BRANCH  17  18
HETATM   18  C   UNL     1      41.577 -11.575   4.181  1.00  0.00     0.254 C 
BRANCH  18  19
HETATM   19  N   UNL     1      40.357 -11.258   5.034  1.00  0.00    -0.070 N 
HETATM   20  H   UNL     1      40.354 -10.215   5.069  1.00  0.00     0.279 HD
BRANCH  19  21
HETATM   21  C   UNL     1      39.013 -11.601   4.435  1.00  0.00     0.230 C 
HETATM   22  C   UNL     1      38.229 -10.363   4.042  1.00  0.00     0.034 C 
ENDBRANCH  19  21
BRANCH  19  23
HETATM   23  C   UNL     1      40.487 -11.714   6.471  1.00  0.00     0.230 C 
HETATM   24  C   UNL     1      39.300 -12.564   6.888  1.00  0.00     0.034 C 
ENDBRANCH  19  23
ENDBRANCH  18  19
ENDBRANCH  17  18
ENDBRANCH  14  17
ENDBRANCH   2  13
BRANCH   2  25
HETATM   25  O   UNL     1      39.455 -16.732   2.189  1.00  0.00    -0.359 OA
HETATM   26  H   UNL     1      38.714 -16.161   2.454  1.00  0.00     0.213 HD
ENDBRANCH   2  25
BRANCH   1  27
HETATM   27  C   UNL     1      39.454 -13.950   0.877  1.00  0.00     0.043 A 
HETATM   28  C   UNL     1      39.863 -12.608   0.789  1.00  0.00     0.030 A 
HETATM   29  C   UNL     1      38.934 -11.569   0.637  1.00  0.00     0.009 A 
HETATM   30  C   UNL     1      37.567 -11.841   0.567  1.00  0.00    -0.058 A 
HETATM   31  C   UNL     1      37.143 -13.166   0.676  1.00  0.00     0.009 A 
HETATM   32  C   UNL     1      38.072 -14.201   0.835  1.00  0.00     0.030 A 
BRANCH  30  33
HETATM   33  C   UNL     1      36.567 -10.734   0.345  1.00  0.00     0.034 C 
HETATM   34  C   UNL     1      35.745 -10.974  -0.914  1.00  0.00     0.010 C 
ENDBRANCH  30  33
ENDBRANCH   1  27
TORSDOF 9
ENDMDL
MODEL 8
REMARK VINA RESULT:      -7.1      1.973      5.766
REMARK  9 active torsions:
REMARK  status: ('A' for Active; 'I' for Inactive)
REMARK    1  A    between atoms: C_2  and  C_3 
REMARK    2  A    between atoms: C_6  and  N_7 
REMARK    3  A    between atoms: C_8  and  C_10 
REMARK    4  A    between atoms: C_8  and  O_9 
REMARK       I    between atoms: C_10  and  N_11 
REMARK    5  A    between atoms: N_11  and  C_12 
REMARK    6  A    between atoms: C_12  and  C_13 
REMARK    7  A    between atoms: C_13  and  N_14 
REMARK    8  A    between atoms: N_14  and  C_16 
REMARK    9  A    between atoms: N_14  and  C_18 
ROOT
HETATM    1  N   UNL     1      42.635 -15.902   4.806  1.00  0.00    -0.254 N 
HETATM    2  C   UNL     1      42.977 -16.381   3.450  1.00  0.00     0.256 C 
HETATM    3  C   UNL     1      43.524 -17.791   3.377  1.00  0.00     0.034 A 
HETATM    4  C   UNL     1      43.814 -18.466   4.551  1.00  0.00     0.048 A 
HETATM    5  N   UNL     1      43.609 -17.823   5.758  1.00  0.00    -0.308 N 
HETATM    6  C   UNL     1      43.074 -16.587   5.933  1.00  0.00     0.330 C 
HETATM    7  O   UNL     1      43.002 -16.175   7.089  1.00  0.00    -0.246 OA
HETATM    8  C   UNL     1      43.802 -18.432   2.155  1.00  0.00     0.015 A 
HETATM    9  C   UNL     1      44.308 -19.733   2.128  1.00  0.00     0.001 A 
HETATM   10  C   UNL     1      44.568 -20.401   3.321  1.00  0.00     0.002 A 
HETATM   11  C   UNL     1      44.331 -19.763   4.537  1.00  0.00     0.030 A 
HETATM   12  H   UNL     1      43.890 -18.277   6.621  1.00  0.00     0.170 HD
ENDROOT
BRANCH   2  13
HETATM   13  C   UNL     1      41.657 -16.355   2.520  1.00  0.00     0.279 C 
HETATM   14  N   UNL     1      41.660 -15.443   1.481  1.00  0.00    -0.355 N 
HETATM   15  H   UNL     1      42.496 -14.867   1.398  1.00  0.00     0.162 HD
HETATM   16  O   UNL     1      40.656 -17.040   2.749  1.00  0.00    -0.268 OA
BRANCH  14  17
HETATM   17  C   UNL     1      40.625 -15.238   0.474  1.00  0.00     0.150 C 
BRANCH  17  18
HETATM   18  C   UNL     1      40.988 -15.474  -1.010  1.00  0.00     0.254 C 
BRANCH  18  19
HETATM   19  N   UNL     1      39.908 -15.036  -1.989  1.00  0.00    -0.070 N 
HETATM   20  H   UNL     1      39.091 -15.630  -1.725  1.00  0.00     0.279 HD
BRANCH  19  21
HETATM   21  C   UNL     1      39.392 -13.625  -1.831  1.00  0.00     0.230 C 
HETATM   22  C   UNL     1      37.937 -13.592  -1.405  1.00  0.00     0.034 C 
ENDBRANCH  19  21
BRANCH  19  23
HETATM   23  C   UNL     1      40.216 -15.385  -3.428  1.00  0.00     0.230 C 
HETATM   24  C   UNL     1      39.091 -16.193  -4.052  1.00  0.00     0.034 C 
ENDBRANCH  19  23
ENDBRANCH  18  19
ENDBRANCH  17  18
ENDBRANCH  14  17
ENDBRANCH   2  13
BRANCH   2  25
HETATM   25  O   UNL     1      44.018 -15.552   2.961  1.00  0.00    -0.359 OA
HETATM   26  H   UNL     1      44.479 -15.237   3.758  1.00  0.00     0.213 HD
ENDBRANCH   2  25
BRANCH   1  27
HETATM   27  C   UNL     1      41.839 -14.691   4.954  1.00  0.00     0.043 A 
HETATM   28  C   UNL     1      40.501 -14.722   5.383  1.00  0.00     0.030 A 
HETATM   29  C   UNL     1      39.795 -13.544   5.665  1.00  0.00     0.009 A 
HETATM   30  C   UNL     1      40.408 -12.298   5.526  1.00  0.00    -0.058 A 
HETATM   31  C   UNL     1      41.728 -12.249   5.078  1.00  0.00     0.009 A 
HETATM   32  C   UNL     1      42.428 -13.426   4.792  1.00  0.00     0.030 A 
BRANCH  30  33
HETATM   33  C   UNL     1      39.674 -11.030   5.883  1.00  0.00     0.034 C 
HETATM   34  C   UNL     1      40.540  -9.801   5.641  1.00  0.00     0.010 C 
ENDBRANCH  30  33
ENDBRANCH   1  27
TORSDOF 9
ENDMDL
MODEL 9
REMARK VINA RESULT:      -7.1      2.325      7.607
REMARK  9 active torsions:
REMARK  status: ('A' for Active; 'I' for Inactive)
REMARK    1  A    between atoms: C_2  and  C_3 
REMARK    2  A    between atoms: C_6  and  N_7 
REMARK    3  A    between atoms: C_8  and  C_10 
REMARK    4  A    between atoms: C_8  and  O_9 
REMARK       I    between atoms: C_10  and  N_11 
REMARK    5  A    between atoms: N_11  and  C_12 
REMARK    6  A    between atoms: C_12  and  C_13 
REMARK    7  A    between atoms: C_13  and  N_14 
REMARK    8  A    between atoms: N_14  and  C_16 
REMARK    9  A    between atoms: N_14  and  C_18 
ROOT
HETATM    1  N   UNL     1      40.414 -15.078   0.641  1.00  0.00    -0.254 N 
HETATM    2  C   UNL     1      40.577 -15.801   1.920  1.00  0.00     0.256 C 
HETATM    3  C   UNL     1      41.769 -16.733   1.993  1.00  0.00     0.034 A 
HETATM    4  C   UNL     1      42.514 -16.970   0.851  1.00  0.00     0.048 A 
HETATM    5  N   UNL     1      42.137 -16.358  -0.331  1.00  0.00    -0.308 N 
HETATM    6  C   UNL     1      41.124 -15.467  -0.489  1.00  0.00     0.330 C 
HETATM    7  O   UNL     1      40.925 -15.055  -1.631  1.00  0.00    -0.246 OA
HETATM    8  C   UNL     1      42.123 -17.417   3.172  1.00  0.00     0.015 A 
HETATM    9  C   UNL     1      43.228 -18.270   3.200  1.00  0.00     0.001 A 
HETATM   10  C   UNL     1      43.977 -18.472   2.046  1.00  0.00     0.002 A 
HETATM   11  C   UNL     1      43.615 -17.830   0.864  1.00  0.00     0.030 A 
HETATM   12  H   UNL     1      42.627 -16.583  -1.190  1.00  0.00     0.170 HD
ENDROOT
BRANCH   2  13
HETATM   13  C   UNL     1      40.755 -14.738   3.122  1.00  0.00     0.279 C 
HETATM   14  N   UNL     1      39.767 -14.736   4.089  1.00  0.00    -0.355 N 
HETATM   15  H   UNL     1      39.013 -15.407   3.952  1.00  0.00     0.162 HD
HETATM   16  O   UNL     1      41.667 -13.907   3.158  1.00  0.00    -0.268 OA
BRANCH  14  17
HETATM   17  C   UNL     1      39.700 -13.916   5.292  1.00  0.00     0.150 C 
BRANCH  17  18
HETATM   18  C   UNL     1      40.718 -14.187   6.423  1.00  0.00     0.254 C 
BRANCH  18  19
HETATM   19  N   UNL     1      41.879 -13.204   6.459  1.00  0.00    -0.070 N 
HETATM   20  H   UNL     1      42.004 -13.019   7.479  1.00  0.00     0.279 HD
BRANCH  19  21
HETATM   21  C   UNL     1      43.224 -13.738   6.024  1.00  0.00     0.230 C 
HETATM   22  C   UNL     1      43.272 -15.254   6.046  1.00  0.00     0.034 C 
ENDBRANCH  19  21
BRANCH  19  23
HETATM   23  C   UNL     1      41.557 -11.862   5.840  1.00  0.00     0.230 C 
HETATM   24  C   UNL     1      41.311 -10.808   6.905  1.00  0.00     0.034 C 
ENDBRANCH  19  23
ENDBRANCH  18  19
ENDBRANCH  17  18
ENDBRANCH  14  17
ENDBRANCH   2  13
BRANCH   2  25
HETATM   25  O   UNL     1      39.442 -16.636   2.079  1.00  0.00    -0.359 OA
HETATM   26  H   UNL     1      38.791 -16.082   2.542  1.00  0.00     0.213 HD
ENDBRANCH   2  25
BRANCH   1  27
HETATM   27  C   UNL     1      39.489 -13.956   0.570  1.00  0.00     0.043 A 
HETATM   28  C   UNL     1      39.923 -12.644   0.311  1.00  0.00     0.030 A 
HETATM   29  C   UNL     1      39.010 -11.601   0.097  1.00  0.00     0.009 A 
HETATM   30  C   UNL     1      37.635 -11.840   0.135  1.00  0.00    -0.058 A 
HETATM   31  C   UNL     1      37.189 -13.132   0.415  1.00  0.00     0.009 A 
HETATM   32  C   UNL     1      38.103 -14.170   0.634  1.00  0.00     0.030 A 
BRANCH  30  33
HETATM   33  C   UNL     1      36.649 -10.736  -0.151  1.00  0.00     0.034 C 
HETATM   34  C   UNL     1      35.895 -10.989  -1.449  1.00  0.00     0.010 C 
ENDBRANCH  30  33
ENDBRANCH   1  27
TORSDOF 9
ENDMDL
MODEL 10
REMARK VINA RESULT:      -7.0      1.600      5.784
REMARK  9 active torsions:
REMARK  status: ('A' for Active; 'I' for Inactive)
REMARK    1  A    between atoms: C_2  and  C_3 
REMARK    2  A    between atoms: C_6  and  N_7 
REMARK    3  A    between atoms: C_8  and  C_10 
REMARK    4  A    between atoms: C_8  and  O_9 
REMARK       I    between atoms: C_10  and  N_11 
REMARK    5  A    between atoms: N_11  and  C_12 
REMARK    6  A    between atoms: C_12  and  C_13 
REMARK    7  A    between atoms: C_13  and  N_14 
REMARK    8  A    between atoms: N_14  and  C_16 
REMARK    9  A    between atoms: N_14  and  C_18 
ROOT
HETATM    1  N   UNL     1      42.539 -15.720   3.851  1.00  0.00    -0.254 N 
HETATM    2  C   UNL     1      43.056 -16.522   2.722  1.00  0.00     0.256 C 
HETATM    3  C   UNL     1      43.567 -17.901   3.084  1.00  0.00     0.034 A 
HETATM    4  C   UNL     1      43.667 -18.257   4.418  1.00  0.00     0.048 A 
HETATM    5  N   UNL     1      43.312 -17.333   5.384  1.00  0.00    -0.308 N 
HETATM    6  C   UNL     1      42.793 -16.097   5.164  1.00  0.00     0.330 C 
HETATM    7  O   UNL     1      42.569 -15.408   6.158  1.00  0.00    -0.246 OA
HETATM    8  C   UNL     1      43.998 -18.826   2.114  1.00  0.00     0.015 A 
HETATM    9  C   UNL     1      44.465 -20.089   2.487  1.00  0.00     0.001 A 
HETATM   10  C   UNL     1      44.533 -20.433   3.834  1.00  0.00     0.002 A 
HETATM   11  C   UNL     1      44.144 -19.512   4.804  1.00  0.00     0.030 A 
HETATM   12  H   UNL     1      43.454 -17.552   6.364  1.00  0.00     0.170 HD
ENDROOT
BRANCH   2  13
HETATM   13  C   UNL     1      41.884 -16.741   1.634  1.00  0.00     0.279 C 
HETATM   14  N   UNL     1      42.074 -16.145   0.401  1.00  0.00    -0.355 N 
HETATM   15  H   UNL     1      42.940 -15.618   0.293  1.00  0.00     0.162 HD
HETATM   16  O   UNL     1      40.830 -17.333   1.886  1.00  0.00    -0.268 OA
BRANCH  14  17
HETATM   17  C   UNL     1      41.203 -16.215  -0.766  1.00  0.00     0.150 C 
BRANCH  17  18
HETATM   18  C   UNL     1      41.038 -14.948  -1.636  1.00  0.00     0.254 C 
BRANCH  18  19
HETATM   19  N   UNL     1      40.865 -13.666  -0.836  1.00  0.00    -0.070 N 
HETATM   20  H   UNL     1      40.919 -13.992   0.154  1.00  0.00     0.279 HD
BRANCH  19  21
HETATM   21  C   UNL     1      41.981 -12.653  -0.941  1.00  0.00     0.230 C 
HETATM   22  C   UNL     1      42.727 -12.758  -2.257  1.00  0.00     0.034 C 
ENDBRANCH  19  21
BRANCH  19  23
HETATM   23  C   UNL     1      39.495 -13.039  -0.982  1.00  0.00     0.230 C 
HETATM   24  C   UNL     1      38.447 -13.818  -0.208  1.00  0.00     0.034 C 
ENDBRANCH  19  23
ENDBRANCH  18  19
ENDBRANCH  17  18
ENDBRANCH  14  17
ENDBRANCH   2  13
BRANCH   2  25
HETATM   25  O   UNL     1      44.180 -15.835   2.198  1.00  0.00    -0.359 OA
HETATM   26  H   UNL     1      43.948 -14.893   2.264  1.00  0.00     0.213 HD
ENDBRANCH   2  25
BRANCH   1  27
HETATM   27  C   UNL     1      41.765 -14.518   3.574  1.00  0.00     0.043 A 
HETATM   28  C   UNL     1      42.348 -13.362   3.025  1.00  0.00     0.030 A 
HETATM   29  C   UNL     1      41.567 -12.269   2.625  1.00  0.00     0.009 A 
HETATM   30  C   UNL     1      40.178 -12.298   2.763  1.00  0.00    -0.058 A 
HETATM   31  C   UNL     1      39.587 -13.428   3.327  1.00  0.00     0.009 A 
HETATM   32  C   UNL     1      40.369 -14.516   3.732  1.00  0.00     0.030 A 
BRANCH  30  33
HETATM   33  C   UNL     1      39.328 -11.149   2.282  1.00  0.00     0.034 C 
HETATM   34  C   UNL     1      40.126 -10.203   1.395  1.00  0.00     0.010 C 
ENDBRANCH  30  33
ENDBRANCH   1  27
TORSDOF 9
ENDMDL
