MODEL 1
REMARK VINA RESULT:      -8.9      0.000      0.000
REMARK  4 active torsions:
REMARK  status: ('A' for Active; 'I' for Inactive)
REMARK    1  A    between atoms: C_7  and  C_8 
REMARK    2  A    between atoms: C_8  and  O_9 
REMARK    3  A    between atoms: N_12  and  C_14 
REMARK    4  A    between atoms: C_14  and  C_15 
ROOT
HETATM    1  C   UNL     1      44.455 -19.416   2.106  1.00  0.00     0.001 A 
HETATM    2  C   UNL     1      43.937 -18.313   2.789  1.00  0.00     0.010 A 
HETATM    3  C   UNL     1      43.693 -18.403   4.162  1.00  0.00    -0.018 A 
HETATM    4  C   UNL     1      43.985 -19.596   4.832  1.00  0.00     0.075 A 
HETATM    5  O   UNL     1      43.756 -19.683   6.182  1.00  0.00    -0.350 OA
HETATM    6  C   UNL     1      44.294 -18.518   6.822  1.00  0.00     0.189 C 
HETATM    7  C   UNL     1      43.534 -17.237   6.408  1.00  0.00     0.036 C 
HETATM    8  C   UNL     1      43.043 -17.298   4.942  1.00  0.00     0.061 C 
HETATM    9  C   UNL     1      42.262 -17.094   7.264  1.00  0.00     0.250 C 
HETATM   10  N   UNL     1      41.125 -16.869   6.297  1.00  0.00    -0.064 N 
HETATM   11  H   UNL     1      40.293 -17.330   6.704  1.00  0.00     0.280 HD
HETATM   12  C   UNL     1      41.536 -17.556   5.037  1.00  0.00     0.245 C 
HETATM   13  C   UNL     1      44.467 -20.707   4.154  1.00  0.00     0.037 A 
HETATM   14  C   UNL     1      44.711 -20.611   2.784  1.00  0.00     0.003 A 
ENDROOT
BRANCH  10  15
HETATM   15  C   UNL     1      40.673 -15.437   6.137  1.00  0.00     0.294 C 
BRANCH  15  16
HETATM   16  C   UNL     1      40.896 -14.921   4.730  1.00  0.00     0.068 A 
HETATM   17  N   UNL     1      39.837 -15.078   3.864  1.00  0.00    -0.233 NA
HETATM   18  C   UNL     1      39.977 -14.610   2.656  1.00  0.00     0.137 A 
HETATM   19  N   UNL     1      41.125 -13.979   2.187  1.00  0.00    -0.272 N 
HETATM   20  C   UNL     1      38.841 -14.740   1.699  1.00  0.00     0.053 A 
HETATM   21  C   UNL     1      42.216 -13.819   3.023  1.00  0.00     0.255 A 
HETATM   22  C   UNL     1      41.199 -13.500   0.881  1.00  0.00     0.125 A 
HETATM   23  O   UNL     1      43.284 -13.290   2.729  1.00  0.00    -0.268 OA
HETATM   24  C   UNL     1      42.046 -14.328   4.394  1.00  0.00     0.104 A 
HETATM   25  C   UNL     1      40.173 -13.618   0.029  1.00  0.00     0.050 A 
HETATM   26  C   UNL     1      38.956 -14.257   0.456  1.00  0.00     0.029 A 
HETATM   27 CL   UNL     1      40.272 -13.018  -1.579  1.00  0.00    -0.083 Cl
ENDBRANCH  15  16
ENDBRANCH  10  15
BRANCH   7  28
HETATM   28  C   UNL     1      44.464 -16.033   6.631  1.00  0.00     0.178 C 
BRANCH  28  29
HETATM   29  O   UNL     1      43.816 -15.093   7.472  1.00  0.00    -0.400 OA
HETATM   30  H   UNL     1      44.304 -15.058   8.319  1.00  0.00     0.209 HD
ENDBRANCH  28  29
ENDBRANCH   7  28
TORSDOF 4
ENDMDL
MODEL 2
REMARK VINA RESULT:      -8.6      3.917      8.625
REMARK  4 active torsions:
REMARK  status: ('A' for Active; 'I' for Inactive)
REMARK    1  A    between atoms: C_7  and  C_8 
REMARK    2  A    between atoms: C_8  and  O_9 
REMARK    3  A    between atoms: N_12  and  C_14 
REMARK    4  A    between atoms: C_14  and  C_15 
ROOT
HETATM    1  C   UNL     1      43.625  -9.811  -1.475  1.00  0.00     0.001 A 
HETATM    2  C   UNL     1      43.425 -11.192  -1.536  1.00  0.00     0.010 A 
HETATM    3  C   UNL     1      42.126 -11.704  -1.503  1.00  0.00    -0.018 A 
HETATM    4  C   UNL     1      41.045 -10.821  -1.422  1.00  0.00     0.075 A 
HETATM    5  O   UNL     1      39.767 -11.322  -1.401  1.00  0.00    -0.350 OA
HETATM    6  C   UNL     1      39.633 -12.302  -2.438  1.00  0.00     0.189 C 
HETATM    7  C   UNL     1      40.512 -13.544  -2.169  1.00  0.00     0.036 C 
HETATM    8  C   UNL     1      41.838 -13.177  -1.460  1.00  0.00     0.061 C 
HETATM    9  C   UNL     1      39.778 -14.495  -1.205  1.00  0.00     0.250 C 
HETATM   10  N   UNL     1      40.756 -14.813  -0.099  1.00  0.00    -0.064 N 
HETATM   11  H   UNL     1      40.200 -14.915   0.767  1.00  0.00     0.280 HD
HETATM   12  C   UNL     1      41.648 -13.620  -0.006  1.00  0.00     0.245 C 
HETATM   13  C   UNL     1      41.236  -9.450  -1.327  1.00  0.00     0.037 A 
HETATM   14  C   UNL     1      42.535  -8.944  -1.362  1.00  0.00     0.003 A 
ENDROOT
BRANCH  10  15
HETATM   15  C   UNL     1      41.461 -16.143  -0.209  1.00  0.00     0.294 C 
BRANCH  15  16
HETATM   16  C   UNL     1      41.762 -16.743   1.149  1.00  0.00     0.068 A 
HETATM   17  N   UNL     1      42.677 -17.773   1.156  1.00  0.00    -0.233 NA
HETATM   18  C   UNL     1      42.992 -18.287   2.311  1.00  0.00     0.137 A 
HETATM   19  N   UNL     1      42.456 -17.873   3.527  1.00  0.00    -0.272 N 
HETATM   20  C   UNL     1      43.997 -19.386   2.357  1.00  0.00     0.053 A 
HETATM   21  C   UNL     1      41.522 -16.852   3.558  1.00  0.00     0.255 A 
HETATM   22  C   UNL     1      42.846 -18.469   4.724  1.00  0.00     0.125 A 
HETATM   23  O   UNL     1      40.971 -16.403   4.559  1.00  0.00    -0.268 OA
HETATM   24  C   UNL     1      41.185 -16.258   2.254  1.00  0.00     0.104 A 
HETATM   25  C   UNL     1      43.752 -19.454   4.757  1.00  0.00     0.050 A 
HETATM   26  C   UNL     1      44.346 -19.924   3.533  1.00  0.00     0.029 A 
HETATM   27 CL   UNL     1      44.232 -20.178   6.240  1.00  0.00    -0.083 Cl
ENDBRANCH  15  16
ENDBRANCH  10  15
BRANCH   7  28
HETATM   28  C   UNL     1      40.778 -14.245  -3.511  1.00  0.00     0.178 C 
BRANCH  28  29
HETATM   29  O   UNL     1      42.096 -14.768  -3.511  1.00  0.00    -0.400 OA
HETATM   30  H   UNL     1      42.719 -14.016  -3.562  1.00  0.00     0.209 HD
ENDBRANCH  28  29
ENDBRANCH   7  28
TORSDOF 4
ENDMDL
MODEL 3
REMARK VINA RESULT:      -8.6      4.202      8.887
REMARK  4 active torsions:
REMARK  status: ('A' for Active; 'I' for Inactive)
REMARK    1  A    between atoms: C_7  and  C_8 
REMARK    2  A    between atoms: C_8  and  O_9 
REMARK    3  A    between atoms: N_12  and  C_14 
REMARK    4  A    between atoms: C_14  and  C_15 
ROOT
HETATM    1  C   UNL     1      36.082 -12.027  -4.023  1.00  0.00     0.001 A 
HETATM    2  C   UNL     1      37.279 -12.124  -3.309  1.00  0.00     0.010 A 
HETATM    3  C   UNL     1      37.922 -13.359  -3.204  1.00  0.00    -0.018 A 
HETATM    4  C   UNL     1      37.361 -14.478  -3.828  1.00  0.00     0.075 A 
HETATM    5  O   UNL     1      37.997 -15.691  -3.735  1.00  0.00    -0.350 OA
HETATM    6  C   UNL     1      39.390 -15.509  -4.024  1.00  0.00     0.189 C 
HETATM    7  C   UNL     1      40.090 -14.650  -2.947  1.00  0.00     0.036 C 
HETATM    8  C   UNL     1      39.153 -13.561  -2.370  1.00  0.00     0.061 C 
HETATM    9  C   UNL     1      40.476 -15.539  -1.750  1.00  0.00     0.250 C 
HETATM   10  N   UNL     1      39.946 -14.844  -0.519  1.00  0.00    -0.064 N 
HETATM   11  H   UNL     1      39.660 -15.587   0.141  1.00  0.00     0.280 HD
HETATM   12  C   UNL     1      38.754 -14.073  -0.983  1.00  0.00     0.245 C 
HETATM   13  C   UNL     1      36.154 -14.397  -4.509  1.00  0.00     0.037 A 
HETATM   14  C   UNL     1      35.517 -13.161  -4.613  1.00  0.00     0.003 A 
ENDROOT
BRANCH  10  15
HETATM   15  C   UNL     1      40.958 -14.056   0.277  1.00  0.00     0.294 C 
BRANCH  15  16
HETATM   16  C   UNL     1      41.570 -14.877   1.394  1.00  0.00     0.068 A 
HETATM   17  N   UNL     1      42.179 -16.050   1.006  1.00  0.00    -0.233 NA
HETATM   18  C   UNL     1      42.751 -16.762   1.935  1.00  0.00     0.137 A 
HETATM   19  N   UNL     1      42.775 -16.422   3.284  1.00  0.00    -0.272 N 
HETATM   20  C   UNL     1      43.441 -18.026   1.547  1.00  0.00     0.053 A 
HETATM   21  C   UNL     1      42.159 -15.259   3.713  1.00  0.00     0.255 A 
HETATM   22  C   UNL     1      43.412 -17.234   4.219  1.00  0.00     0.125 A 
HETATM   23  O   UNL     1      42.102 -14.852   4.870  1.00  0.00    -0.268 OA
HETATM   24  C   UNL     1      41.533 -14.445   2.659  1.00  0.00     0.104 A 
HETATM   25  C   UNL     1      44.032 -18.365   3.862  1.00  0.00     0.050 A 
HETATM   26  C   UNL     1      44.047 -18.770   2.481  1.00  0.00     0.029 A 
HETATM   27 CL   UNL     1      44.822 -19.357   5.023  1.00  0.00    -0.083 Cl
ENDBRANCH  15  16
ENDBRANCH  10  15
BRANCH   7  28
HETATM   28  C   UNL     1      41.347 -14.024  -3.573  1.00  0.00     0.178 C 
BRANCH  28  29
HETATM   29  O   UNL     1      42.388 -14.987  -3.590  1.00  0.00    -0.400 OA
HETATM   30  H   UNL     1      43.225 -14.532  -3.369  1.00  0.00     0.209 HD
ENDBRANCH  28  29
ENDBRANCH   7  28
TORSDOF 4
ENDMDL
MODEL 4
REMARK VINA RESULT:      -8.4      3.764      7.471
REMARK  4 active torsions:
REMARK  status: ('A' for Active; 'I' for Inactive)
REMARK    1  A    between atoms: C_7  and  C_8 
REMARK    2  A    between atoms: C_8  and  O_9 
REMARK    3  A    between atoms: N_12  and  C_14 
REMARK    4  A    between atoms: C_14  and  C_15 
ROOT
HETATM    1  C   UNL     1      41.643 -10.343   8.575  1.00  0.00     0.001 A 
HETATM    2  C   UNL     1      42.062 -11.002   7.417  1.00  0.00     0.010 A 
HETATM    3  C   UNL     1      41.130 -11.696   6.642  1.00  0.00    -0.018 A 
HETATM    4  C   UNL     1      39.787 -11.707   7.034  1.00  0.00     0.075 A 
HETATM    5  O   UNL     1      38.868 -12.379   6.268  1.00  0.00    -0.350 OA
HETATM    6  C   UNL     1      39.062 -12.028   4.891  1.00  0.00     0.189 C 
HETATM    7  C   UNL     1      40.420 -12.538   4.357  1.00  0.00     0.036 C 
HETATM    8  C   UNL     1      41.521 -12.513   5.445  1.00  0.00     0.061 C 
HETATM    9  C   UNL     1      40.286 -14.014   3.939  1.00  0.00     0.250 C 
HETATM   10  N   UNL     1      41.420 -14.749   4.615  1.00  0.00    -0.064 N 
HETATM   11  H   UNL     1      41.064 -15.691   4.850  1.00  0.00     0.280 HD
HETATM   12  C   UNL     1      41.705 -13.975   5.859  1.00  0.00     0.245 C 
HETATM   13  C   UNL     1      39.369 -11.084   8.201  1.00  0.00     0.037 A 
HETATM   14  C   UNL     1      40.304 -10.391   8.970  1.00  0.00     0.003 A 
ENDROOT
BRANCH  10  15
HETATM   15  C   UNL     1      42.618 -15.047   3.746  1.00  0.00     0.294 C 
BRANCH  15  16
HETATM   16  C   UNL     1      43.123 -16.463   3.936  1.00  0.00     0.068 A 
HETATM   17  N   UNL     1      42.905 -17.319   2.880  1.00  0.00    -0.233 NA
HETATM   18  C   UNL     1      43.362 -18.534   2.990  1.00  0.00     0.137 A 
HETATM   19  N   UNL     1      44.038 -19.021   4.105  1.00  0.00    -0.272 N 
HETATM   20  C   UNL     1      43.166 -19.481   1.855  1.00  0.00     0.053 A 
HETATM   21  C   UNL     1      44.260 -18.195   5.193  1.00  0.00     0.255 A 
HETATM   22  C   UNL     1      44.500 -20.334   4.149  1.00  0.00     0.125 A 
HETATM   23  O   UNL     1      44.833 -18.504   6.234  1.00  0.00    -0.268 OA
HETATM   24  C   UNL     1      43.763 -16.816   5.056  1.00  0.00     0.104 A 
HETATM   25  C   UNL     1      44.323 -21.177   3.123  1.00  0.00     0.050 A 
HETATM   26  C   UNL     1      43.635 -20.732   1.940  1.00  0.00     0.029 A 
HETATM   27 CL   UNL     1      44.904 -22.794   3.183  1.00  0.00    -0.083 Cl
ENDBRANCH  15  16
ENDBRANCH  10  15
BRANCH   7  28
HETATM   28  C   UNL     1      40.816 -11.676   3.147  1.00  0.00     0.178 C 
BRANCH  28  29
HETATM   29  O   UNL     1      42.089 -12.088   2.678  1.00  0.00    -0.400 OA
HETATM   30  H   UNL     1      42.728 -11.373   2.870  1.00  0.00     0.209 HD
ENDBRANCH  28  29
ENDBRANCH   7  28
TORSDOF 4
ENDMDL
MODEL 5
REMARK VINA RESULT:      -8.4      3.285      8.002
REMARK  4 active torsions:
REMARK  status: ('A' for Active; 'I' for Inactive)
REMARK    1  A    between atoms: C_7  and  C_8 
REMARK    2  A    between atoms: C_8  and  O_9 
REMARK    3  A    between atoms: N_12  and  C_14 
REMARK    4  A    between atoms: C_14  and  C_15 
ROOT
HETATM    1  C   UNL     1      37.341 -10.732   1.924  1.00  0.00     0.001 A 
HETATM    2  C   UNL     1      38.648 -11.198   2.091  1.00  0.00     0.010 A 
HETATM    3  C   UNL     1      39.120 -12.234   1.283  1.00  0.00    -0.018 A 
HETATM    4  C   UNL     1      38.277 -12.781   0.310  1.00  0.00     0.075 A 
HETATM    5  O   UNL     1      38.742 -13.793  -0.493  1.00  0.00    -0.350 OA
HETATM    6  C   UNL     1      40.038 -13.435  -0.990  1.00  0.00     0.189 C 
HETATM    7  C   UNL     1      41.086 -13.362   0.145  1.00  0.00     0.036 C 
HETATM    8  C   UNL     1      40.472 -12.856   1.473  1.00  0.00     0.061 C 
HETATM    9  C   UNL     1      41.616 -14.776   0.447  1.00  0.00     0.250 C 
HETATM   10  N   UNL     1      41.494 -14.963   1.941  1.00  0.00    -0.064 N 
HETATM   11  H   UNL     1      41.271 -15.961   2.097  1.00  0.00     0.280 HD
HETATM   12  C   UNL     1      40.345 -14.103   2.353  1.00  0.00     0.245 C 
HETATM   13  C   UNL     1      36.967 -12.348   0.161  1.00  0.00     0.037 A 
HETATM   14  C   UNL     1      36.502 -11.311   0.969  1.00  0.00     0.003 A 
ENDROOT
BRANCH  10  15
HETATM   15  C   UNL     1      42.765 -14.771   2.732  1.00  0.00     0.294 C 
BRANCH  15  16
HETATM   16  C   UNL     1      43.181 -16.035   3.458  1.00  0.00     0.068 A 
HETATM   17  N   UNL     1      43.408 -17.134   2.660  1.00  0.00    -0.233 NA
HETATM   18  C   UNL     1      43.807 -18.227   3.245  1.00  0.00     0.137 A 
HETATM   19  N   UNL     1      44.003 -18.356   4.617  1.00  0.00    -0.272 N 
HETATM   20  C   UNL     1      44.087 -19.429   2.408  1.00  0.00     0.053 A 
HETATM   21  C   UNL     1      43.768 -17.279   5.453  1.00  0.00     0.255 A 
HETATM   22  C   UNL     1      44.435 -19.559   5.171  1.00  0.00     0.125 A 
HETATM   23  O   UNL     1      43.895 -17.266   6.674  1.00  0.00    -0.268 OA
HETATM   24  C   UNL     1      43.340 -16.038   4.786  1.00  0.00     0.104 A 
HETATM   25  C   UNL     1      44.688 -20.633   4.412  1.00  0.00     0.050 A 
HETATM   26  C   UNL     1      44.508 -20.561   2.985  1.00  0.00     0.029 A 
HETATM   27 CL   UNL     1      45.228 -22.111   5.103  1.00  0.00    -0.083 Cl
ENDBRANCH  15  16
ENDBRANCH  10  15
BRANCH   7  28
HETATM   28  C   UNL     1      42.234 -12.451  -0.318  1.00  0.00     0.178 C 
BRANCH  28  29
HETATM   29  O   UNL     1      42.678 -11.668   0.778  1.00  0.00    -0.400 OA
HETATM   30  H   UNL     1      43.559 -11.307   0.554  1.00  0.00     0.209 HD
ENDBRANCH  28  29
ENDBRANCH   7  28
TORSDOF 4
ENDMDL
MODEL 6
REMARK VINA RESULT:      -8.3      3.151      4.781
REMARK  4 active torsions:
REMARK  status: ('A' for Active; 'I' for Inactive)
REMARK    1  A    between atoms: C_7  and  C_8 
REMARK    2  A    between atoms: C_8  and  O_9 
REMARK    3  A    between atoms: N_12  and  C_14 
REMARK    4  A    between atoms: C_14  and  C_15 
ROOT
HETATM    1  C   UNL     1      43.241 -18.888   6.538  1.00  0.00     0.001 A 
HETATM    2  C   UNL     1      42.566 -17.998   5.699  1.00  0.00     0.010 A 
HETATM    3  C   UNL     1      42.905 -17.932   4.346  1.00  0.00    -0.018 A 
HETATM    4  C   UNL     1      43.909 -18.771   3.851  1.00  0.00     0.075 A 
HETATM    5  O   UNL     1      44.237 -18.716   2.518  1.00  0.00    -0.350 OA
HETATM    6  C   UNL     1      43.032 -18.740   1.741  1.00  0.00     0.189 C 
HETATM    7  C   UNL     1      42.185 -17.465   1.959  1.00  0.00     0.036 C 
HETATM    8  C   UNL     1      42.298 -16.931   3.407  1.00  0.00     0.061 C 
HETATM    9  C   UNL     1      42.718 -16.335   1.059  1.00  0.00     0.250 C 
HETATM   10  N   UNL     1      42.917 -15.138   1.958  1.00  0.00    -0.064 N 
HETATM   11  H   UNL     1      43.741 -14.629   1.596  1.00  0.00     0.280 HD
HETATM   12  C   UNL     1      43.207 -15.702   3.309  1.00  0.00     0.245 C 
HETATM   13  C   UNL     1      44.608 -19.633   4.684  1.00  0.00     0.037 A 
HETATM   14  C   UNL     1      44.265 -19.696   6.034  1.00  0.00     0.003 A 
ENDROOT
BRANCH  10  15
HETATM   15  C   UNL     1      41.827 -14.094   1.912  1.00  0.00     0.294 C 
BRANCH  15  16
HETATM   16  C   UNL     1      41.733 -13.427   0.554  1.00  0.00     0.068 A 
HETATM   17  N   UNL     1      42.458 -12.266   0.409  1.00  0.00    -0.233 NA
HETATM   18  C   UNL     1      42.434 -11.686  -0.758  1.00  0.00     0.137 A 
HETATM   19  N   UNL     1      41.716 -12.157  -1.853  1.00  0.00    -0.272 N 
HETATM   20  C   UNL     1      43.228 -10.441  -0.957  1.00  0.00     0.053 A 
HETATM   21  C   UNL     1      40.962 -13.311  -1.740  1.00  0.00     0.255 A 
HETATM   22  C   UNL     1      41.742 -11.483  -3.072  1.00  0.00     0.125 A 
HETATM   23  O   UNL     1      40.281 -13.823  -2.625  1.00  0.00    -0.268 OA
HETATM   24  C   UNL     1      41.009 -13.976  -0.428  1.00  0.00     0.104 A 
HETATM   25  C   UNL     1      42.460 -10.367  -3.244  1.00  0.00     0.050 A 
HETATM   26  C   UNL     1      43.228  -9.832  -2.151  1.00  0.00     0.029 A 
HETATM   27 CL   UNL     1      42.492  -9.547  -4.755  1.00  0.00    -0.083 Cl
ENDBRANCH  15  16
ENDBRANCH  10  15
BRANCH   7  28
HETATM   28  C   UNL     1      40.726 -17.790   1.600  1.00  0.00     0.178 C 
BRANCH  28  29
HETATM   29  O   UNL     1      39.866 -16.912   2.307  1.00  0.00    -0.400 OA
HETATM   30  H   UNL     1      40.278 -16.715   3.171  1.00  0.00     0.209 HD
ENDBRANCH  28  29
ENDBRANCH   7  28
TORSDOF 4
ENDMDL
MODEL 7
REMARK VINA RESULT:      -8.3      1.946      2.815
REMARK  4 active torsions:
REMARK  status: ('A' for Active; 'I' for Inactive)
REMARK    1  A    between atoms: C_7  and  C_8 
REMARK    2  A    between atoms: C_8  and  O_9 
REMARK    3  A    between atoms: N_12  and  C_14 
REMARK    4  A    between atoms: C_14  and  C_15 
ROOT
HETATM    1  C   UNL     1      44.301 -18.532   1.790  1.00  0.00     0.001 A 
HETATM    2  C   UNL     1      43.759 -17.304   2.176  1.00  0.00     0.010 A 
HETATM    3  C   UNL     1      43.137 -17.184   3.420  1.00  0.00    -0.018 A 
HETATM    4  C   UNL     1      43.079 -18.298   4.266  1.00  0.00     0.075 A 
HETATM    5  O   UNL     1      42.478 -18.180   5.494  1.00  0.00    -0.350 OA
HETATM    6  C   UNL     1      42.962 -16.993   6.138  1.00  0.00     0.189 C 
HETATM    7  C   UNL     1      42.515 -15.715   5.392  1.00  0.00     0.036 C 
HETATM    8  C   UNL     1      42.443 -15.929   3.860  1.00  0.00     0.061 C 
HETATM    9  C   UNL     1      41.085 -15.341   5.824  1.00  0.00     0.250 C 
HETATM   10  N   UNL     1      40.296 -15.145   4.551  1.00  0.00    -0.064 N 
HETATM   11  H   UNL     1      39.333 -15.468   4.746  1.00  0.00     0.280 HD
HETATM   12  C   UNL     1      40.948 -16.031   3.542  1.00  0.00     0.245 C 
HETATM   13  C   UNL     1      43.584 -19.530   3.875  1.00  0.00     0.037 A 
HETATM   14  C   UNL     1      44.206 -19.643   2.633  1.00  0.00     0.003 A 
ENDROOT
BRANCH  10  15
HETATM   15  C   UNL     1      40.092 -13.712   4.120  1.00  0.00     0.294 C 
BRANCH  15  16
HETATM   16  C   UNL     1      39.942 -13.584   2.618  1.00  0.00     0.068 A 
HETATM   17  N   UNL     1      41.041 -13.089   1.950  1.00  0.00    -0.233 NA
HETATM   18  C   UNL     1      40.964 -13.003   0.653  1.00  0.00     0.137 A 
HETATM   19  N   UNL     1      39.846 -13.363  -0.093  1.00  0.00    -0.272 N 
HETATM   20  C   UNL     1      42.144 -12.496  -0.104  1.00  0.00     0.053 A 
HETATM   21  C   UNL     1      38.717 -13.847   0.544  1.00  0.00     0.255 A 
HETATM   22  C   UNL     1      39.840 -13.245  -1.481  1.00  0.00     0.125 A 
HETATM   23  O   UNL     1      37.669 -14.189   0.004  1.00  0.00    -0.268 OA
HETATM   24  C   UNL     1      38.815 -13.965   2.008  1.00  0.00     0.104 A 
HETATM   25  C   UNL     1      40.906 -12.792  -2.154  1.00  0.00     0.050 A 
HETATM   26  C   UNL     1      42.095 -12.408  -1.439  1.00  0.00     0.029 A 
HETATM   27 CL   UNL     1      40.891 -12.657  -3.867  1.00  0.00    -0.083 Cl
ENDBRANCH  15  16
ENDBRANCH  10  15
BRANCH   7  28
HETATM   28  C   UNL     1      43.492 -14.583   5.748  1.00  0.00     0.178 C 
BRANCH  28  29
HETATM   29  O   UNL     1      42.814 -13.607   6.521  1.00  0.00    -0.400 OA
HETATM   30  H   UNL     1      43.030 -12.727   6.155  1.00  0.00     0.209 HD
ENDBRANCH  28  29
ENDBRANCH   7  28
TORSDOF 4
ENDMDL
MODEL 8
REMARK VINA RESULT:      -8.3      4.016      5.902
REMARK  4 active torsions:
REMARK  status: ('A' for Active; 'I' for Inactive)
REMARK    1  A    between atoms: C_7  and  C_8 
REMARK    2  A    between atoms: C_8  and  O_9 
REMARK    3  A    between atoms: N_12  and  C_14 
REMARK    4  A    between atoms: C_14  and  C_15 
ROOT
HETATM    1  C   UNL     1      44.352 -18.716   2.316  1.00  0.00     0.001 A 
HETATM    2  C   UNL     1      43.939 -17.581   1.615  1.00  0.00     0.010 A 
HETATM    3  C   UNL     1      42.826 -16.863   2.059  1.00  0.00    -0.018 A 
HETATM    4  C   UNL     1      42.152 -17.288   3.209  1.00  0.00     0.075 A 
HETATM    5  O   UNL     1      41.064 -16.577   3.653  1.00  0.00    -0.350 OA
HETATM    6  C   UNL     1      41.391 -15.181   3.660  1.00  0.00     0.189 C 
HETATM    7  C   UNL     1      41.618 -14.639   2.231  1.00  0.00     0.036 C 
HETATM    8  C   UNL     1      42.261 -15.697   1.301  1.00  0.00     0.061 C 
HETATM    9  C   UNL     1      40.261 -14.296   1.589  1.00  0.00     0.250 C 
HETATM   10  N   UNL     1      40.246 -14.978   0.242  1.00  0.00    -0.064 N 
HETATM   11  H   UNL     1      39.268 -15.266   0.067  1.00  0.00     0.280 HD
HETATM   12  C   UNL     1      41.122 -16.176   0.396  1.00  0.00     0.245 C 
HETATM   13  C   UNL     1      42.536 -18.434   3.890  1.00  0.00     0.037 A 
HETATM   14  C   UNL     1      43.648 -19.145   3.444  1.00  0.00     0.003 A 
ENDROOT
BRANCH  10  15
HETATM   15  C   UNL     1      40.556 -14.096  -0.943  1.00  0.00     0.294 C 
BRANCH  15  16
HETATM   16  C   UNL     1      39.428 -14.083  -1.956  1.00  0.00     0.068 A 
HETATM   17  N   UNL     1      38.560 -13.018  -1.868  1.00  0.00    -0.233 NA
HETATM   18  C   UNL     1      37.602 -12.952  -2.748  1.00  0.00     0.137 A 
HETATM   19  N   UNL     1      37.395 -13.890  -3.755  1.00  0.00    -0.272 N 
HETATM   20  C   UNL     1      36.659 -11.798  -2.698  1.00  0.00     0.053 A 
HETATM   21  C   UNL     1      38.236 -14.983  -3.864  1.00  0.00     0.255 A 
HETATM   22  C   UNL     1      36.349 -13.750  -4.664  1.00  0.00     0.125 A 
HETATM   23  O   UNL     1      38.156 -15.881  -4.698  1.00  0.00    -0.268 OA
HETATM   24  C   UNL     1      39.332 -15.043  -2.882  1.00  0.00     0.104 A 
HETATM   25  C   UNL     1      35.508 -12.709  -4.614  1.00  0.00     0.050 A 
HETATM   26  C   UNL     1      35.673 -11.702  -3.599  1.00  0.00     0.029 A 
HETATM   27 CL   UNL     1      34.224 -12.540  -5.744  1.00  0.00    -0.083 Cl
ENDBRANCH  15  16
ENDBRANCH  10  15
BRANCH   7  28
HETATM   28  C   UNL     1      42.496 -13.380   2.327  1.00  0.00     0.178 C 
BRANCH  28  29
HETATM   29  O   UNL     1      42.484 -12.707   1.079  1.00  0.00    -0.400 OA
HETATM   30  H   UNL     1      42.371 -13.377   0.376  1.00  0.00     0.209 HD
ENDBRANCH  28  29
ENDBRANCH   7  28
TORSDOF 4
ENDMDL
MODEL 9
REMARK VINA RESULT:      -8.3      3.191      7.610
REMARK  4 active torsions:
REMARK  status: ('A' for Active; 'I' for Inactive)
REMARK    1  A    between atoms: C_7  and  C_8 
REMARK    2  A    between atoms: C_8  and  O_9 
REMARK    3  A    between atoms: N_12  and  C_14 
REMARK    4  A    between atoms: C_14  and  C_15 
ROOT
HETATM    1  C   UNL     1      38.458 -12.693  -2.179  1.00  0.00     0.001 A 
HETATM    2  C   UNL     1      38.716 -13.684  -1.229  1.00  0.00     0.010 A 
HETATM    3  C   UNL     1      39.938 -13.691  -0.552  1.00  0.00    -0.018 A 
HETATM    4  C   UNL     1      40.879 -12.694  -0.830  1.00  0.00     0.075 A 
HETATM    5  O   UNL     1      42.076 -12.692  -0.158  1.00  0.00    -0.350 OA
HETATM    6  C   UNL     1      41.825 -12.872   1.242  1.00  0.00     0.189 C 
HETATM    7  C   UNL     1      41.243 -14.273   1.543  1.00  0.00     0.036 C 
HETATM    8  C   UNL     1      40.327 -14.781   0.403  1.00  0.00     0.061 C 
HETATM    9  C   UNL     1      42.390 -15.296   1.638  1.00  0.00     0.250 C 
HETATM   10  N   UNL     1      42.010 -16.442   0.731  1.00  0.00    -0.064 N 
HETATM   11  H   UNL     1      42.891 -16.803   0.326  1.00  0.00     0.280 HD
HETATM   12  C   UNL     1      41.157 -15.837  -0.333  1.00  0.00     0.245 C 
HETATM   13  C   UNL     1      40.644 -11.726  -1.796  1.00  0.00     0.037 A 
HETATM   14  C   UNL     1      39.422 -11.723  -2.468  1.00  0.00     0.003 A 
ENDROOT
BRANCH  10  15
HETATM   15  C   UNL     1      41.430 -17.656   1.416  1.00  0.00     0.294 C 
BRANCH  15  16
HETATM   16  C   UNL     1      42.215 -18.044   2.653  1.00  0.00     0.068 A 
HETATM   17  N   UNL     1      41.792 -17.470   3.832  1.00  0.00    -0.233 NA
HETATM   18  C   UNL     1      42.417 -17.811   4.922  1.00  0.00     0.137 A 
HETATM   19  N   UNL     1      43.486 -18.701   4.969  1.00  0.00    -0.272 N 
HETATM   20  C   UNL     1      41.969 -17.229   6.219  1.00  0.00     0.053 A 
HETATM   21  C   UNL     1      43.950 -19.284   3.803  1.00  0.00     0.255 A 
HETATM   22  C   UNL     1      44.103 -19.021   6.176  1.00  0.00     0.125 A 
HETATM   23  O   UNL     1      44.885 -20.075   3.708  1.00  0.00    -0.268 OA
HETATM   24  C   UNL     1      43.227 -18.915   2.575  1.00  0.00     0.104 A 
HETATM   25  C   UNL     1      43.692 -18.496   7.337  1.00  0.00     0.050 A 
HETATM   26  C   UNL     1      42.588 -17.572   7.355  1.00  0.00     0.029 A 
HETATM   27 CL   UNL     1      44.455 -18.902   8.823  1.00  0.00    -0.083 Cl
ENDBRANCH  15  16
ENDBRANCH  10  15
BRANCH   7  28
HETATM   28  C   UNL     1      40.481 -14.200   2.876  1.00  0.00     0.178 C 
BRANCH  28  29
HETATM   29  O   UNL     1      39.813 -15.432   3.098  1.00  0.00    -0.400 OA
HETATM   30  H   UNL     1      40.341 -15.951   3.736  1.00  0.00     0.209 HD
ENDBRANCH  28  29
ENDBRANCH   7  28
TORSDOF 4
ENDMDL
MODEL 10
REMARK VINA RESULT:      -8.1      2.601      3.856
REMARK  4 active torsions:
REMARK  status: ('A' for Active; 'I' for Inactive)
REMARK    1  A    between atoms: C_7  and  C_8 
REMARK    2  A    between atoms: C_8  and  O_9 
REMARK    3  A    between atoms: N_12  and  C_14 
REMARK    4  A    between atoms: C_14  and  C_15 
ROOT
HETATM    1  C   UNL     1      43.496 -19.615   6.267  1.00  0.00     0.001 A 
HETATM    2  C   UNL     1      42.794 -18.575   5.653  1.00  0.00     0.010 A 
HETATM    3  C   UNL     1      43.048 -18.267   4.315  1.00  0.00    -0.018 A 
HETATM    4  C   UNL     1      43.995 -19.016   3.608  1.00  0.00     0.075 A 
HETATM    5  O   UNL     1      44.238 -18.722   2.289  1.00  0.00    -0.350 OA
HETATM    6  C   UNL     1      42.986 -18.584   1.604  1.00  0.00     0.189 C 
HETATM    7  C   UNL     1      42.191 -17.358   2.107  1.00  0.00     0.036 C 
HETATM    8  C   UNL     1      42.410 -17.101   3.618  1.00  0.00     0.061 C 
HETATM    9  C   UNL     1      42.697 -16.090   1.395  1.00  0.00     0.250 C 
HETATM   10  N   UNL     1      42.986 -15.082   2.482  1.00  0.00    -0.064 N 
HETATM   11  H   UNL     1      43.800 -14.528   2.163  1.00  0.00     0.280 HD
HETATM   12  C   UNL     1      43.346 -15.890   3.684  1.00  0.00     0.245 C 
HETATM   13  C   UNL     1      44.721 -20.027   4.221  1.00  0.00     0.037 A 
HETATM   14  C   UNL     1      44.462 -20.332   5.557  1.00  0.00     0.003 A 
ENDROOT
BRANCH  10  15
HETATM   15  C   UNL     1      41.926 -14.030   2.700  1.00  0.00     0.294 C 
BRANCH  15  16
HETATM   16  C   UNL     1      41.407 -13.462   1.394  1.00  0.00     0.068 A 
HETATM   17  N   UNL     1      40.203 -13.971   0.960  1.00  0.00    -0.233 NA
HETATM   18  C   UNL     1      39.706 -13.478  -0.138  1.00  0.00     0.137 A 
HETATM   19  N   UNL     1      40.316 -12.487  -0.901  1.00  0.00    -0.272 N 
HETATM   20  C   UNL     1      38.391 -13.988  -0.624  1.00  0.00     0.053 A 
HETATM   21  C   UNL     1      41.535 -11.964  -0.506  1.00  0.00     0.255 A 
HETATM   22  C   UNL     1      39.720 -12.007  -2.065  1.00  0.00     0.125 A 
HETATM   23  O   UNL     1      42.177 -11.097  -1.092  1.00  0.00    -0.268 OA
HETATM   24  C   UNL     1      42.083 -12.507   0.748  1.00  0.00     0.104 A 
HETATM   25  C   UNL     1      38.538 -12.468  -2.492  1.00  0.00     0.050 A 
HETATM   26  C   UNL     1      37.854 -13.489  -1.744  1.00  0.00     0.029 A 
HETATM   27 CL   UNL     1      37.806 -11.863  -3.925  1.00  0.00    -0.083 Cl
ENDBRANCH  15  16
ENDBRANCH  10  15
BRANCH   7  28
HETATM   28  C   UNL     1      40.704 -17.588   1.794  1.00  0.00     0.178 C 
BRANCH  28  29
HETATM   29  O   UNL     1      39.929 -16.614   2.475  1.00  0.00    -0.400 OA
HETATM   30  H   UNL     1      38.986 -16.855   2.375  1.00  0.00     0.209 HD
ENDBRANCH  28  29
ENDBRANCH   7  28
TORSDOF 4
ENDMDL
