MODEL 1
REMARK VINA RESULT:      -8.4      0.000      0.000
REMARK  4 active torsions:
REMARK  status: ('A' for Active; 'I' for Inactive)
REMARK    1  A    between atoms: C_4  and  C_5 
REMARK    2  A    between atoms: C_9  and  C_10 
REMARK       I    between atoms: C_10  and  N_11 
REMARK    3  A    between atoms: N_11  and  C_12 
REMARK    4  A    between atoms: C_13  and  O_14 
ROOT
HETATM    1  C   UNL     1      42.624 -16.113   2.679  1.00  0.00     0.270 C 
HETATM    2  N   UNL     1      42.682 -17.450   2.973  1.00  0.00    -0.344 N 
HETATM    3  O   UNL     1      43.577 -15.362   2.859  1.00  0.00    -0.266 OA
HETATM    4  H   UNL     1      41.840 -18.007   2.980  1.00  0.00     0.163 HD
ENDROOT
BRANCH   1   5
HETATM    5  C   UNL     1      41.360 -15.648   2.180  1.00  0.00     0.120 A 
HETATM    6  N   UNL     1      40.173 -16.119   2.673  1.00  0.00    -0.272 N 
HETATM    7  N   UNL     1      39.086 -15.571   2.109  1.00  0.00    -0.173 NA
HETATM    8  H   UNL     1      40.051 -16.819   3.400  1.00  0.00     0.189 HD
HETATM    9  C   UNL     1      39.584 -14.684   1.238  1.00  0.00     0.096 A 
HETATM   10  C   UNL     1      41.001 -14.708   1.234  1.00  0.00     0.071 A 
BRANCH   9  11
HETATM   11  C   UNL     1      38.704 -13.790   0.417  1.00  0.00     0.035 A 
HETATM   12  S   UNL     1      38.823 -13.605  -1.277  1.00  0.00    -0.093 SA
HETATM   13  C   UNL     1      37.561 -12.451  -1.315  1.00  0.00    -0.021 A 
HETATM   14  C   UNL     1      37.145 -11.824  -2.602  1.00  0.00     0.056 C 
HETATM   15  C   UNL     1      37.038 -12.232  -0.057  1.00  0.00     0.015 A 
HETATM   16  C   UNL     1      37.700 -13.004   0.943  1.00  0.00     0.022 A 
ENDBRANCH   9  11
ENDBRANCH   1   5
BRANCH   2  17
HETATM   17  C   UNL     1      43.905 -18.071   3.434  1.00  0.00     0.147 C 
HETATM   18  C   UNL     1      44.048 -18.117   4.986  1.00  0.00     0.149 C 
HETATM   19  C   UNL     1      44.865 -19.383   5.303  1.00  0.00     0.073 C 
HETATM   20  C   UNL     1      44.526 -20.269   4.138  1.00  0.00    -0.047 A 
HETATM   21  C   UNL     1      43.985 -19.531   3.079  1.00  0.00    -0.027 A 
HETATM   22  C   UNL     1      44.735 -21.634   4.028  1.00  0.00     0.008 A 
HETATM   23  C   UNL     1      43.657 -20.149   1.880  1.00  0.00     0.010 A 
HETATM   24  C   UNL     1      43.850 -21.528   1.766  1.00  0.00     0.001 A 
HETATM   25  C   UNL     1      44.383 -22.265   2.834  1.00  0.00     0.001 A 
BRANCH  18  26
HETATM   26  O   UNL     1      42.770 -18.221   5.638  1.00  0.00    -0.393 OA
HETATM   27  H   UNL     1      42.139 -17.745   5.070  1.00  0.00     0.210 HD
ENDBRANCH  18  26
ENDBRANCH   2  17
TORSDOF 4
ENDMDL
MODEL 2
REMARK VINA RESULT:      -8.2      7.872      9.757
REMARK  4 active torsions:
REMARK  status: ('A' for Active; 'I' for Inactive)
REMARK    1  A    between atoms: C_4  and  C_5 
REMARK    2  A    between atoms: C_9  and  C_10 
REMARK       I    between atoms: C_10  and  N_11 
REMARK    3  A    between atoms: N_11  and  C_12 
REMARK    4  A    between atoms: C_13  and  O_14 
ROOT
HETATM    1  C   UNL     1      44.722 -13.182   8.127  1.00  0.00     0.270 C 
HETATM    2  N   UNL     1      43.942 -14.230   7.711  1.00  0.00    -0.344 N 
HETATM    3  O   UNL     1      45.882 -13.041   7.752  1.00  0.00    -0.266 OA
HETATM    4  H   UNL     1      43.060 -14.418   8.164  1.00  0.00     0.163 HD
ENDROOT
BRANCH   1   5
HETATM    5  C   UNL     1      44.099 -12.284   9.058  1.00  0.00     0.120 A 
HETATM    6  N   UNL     1      43.119 -11.410   8.671  1.00  0.00    -0.272 N 
HETATM    7  N   UNL     1      42.633 -10.652   9.666  1.00  0.00    -0.173 NA
HETATM    8  H   UNL     1      42.744 -11.292   7.734  1.00  0.00     0.189 HD
HETATM    9  C   UNL     1      43.298 -11.073  10.750  1.00  0.00     0.096 A 
HETATM   10  C   UNL     1      44.238 -12.080  10.417  1.00  0.00     0.071 A 
BRANCH   9  11
HETATM   11  C   UNL     1      43.022 -10.525  12.118  1.00  0.00     0.035 A 
HETATM   12  S   UNL     1      41.685 -10.964  13.086  1.00  0.00    -0.093 SA
HETATM   13  C   UNL     1      42.138  -9.886  14.334  1.00  0.00    -0.021 A 
HETATM   14  C   UNL     1      41.308  -9.760  15.566  1.00  0.00     0.056 C 
HETATM   15  C   UNL     1      43.307  -9.221  14.028  1.00  0.00     0.015 A 
HETATM   16  C   UNL     1      43.817  -9.589  12.747  1.00  0.00     0.022 A 
ENDBRANCH   9  11
ENDBRANCH   1   5
BRANCH   2  17
HETATM   17  C   UNL     1      44.417 -15.186   6.734  1.00  0.00     0.147 C 
HETATM   18  C   UNL     1      43.998 -16.658   7.031  1.00  0.00     0.149 C 
HETATM   19  C   UNL     1      43.859 -17.347   5.661  1.00  0.00     0.073 C 
HETATM   20  C   UNL     1      43.502 -16.193   4.769  1.00  0.00    -0.047 A 
HETATM   21  C   UNL     1      43.818 -14.969   5.371  1.00  0.00    -0.027 A 
HETATM   22  C   UNL     1      42.975 -16.247   3.490  1.00  0.00     0.008 A 
HETATM   23  C   UNL     1      43.624 -13.774   4.691  1.00  0.00     0.010 A 
HETATM   24  C   UNL     1      43.078 -13.819   3.406  1.00  0.00     0.001 A 
HETATM   25  C   UNL     1      42.754 -15.048   2.811  1.00  0.00     0.001 A 
BRANCH  18  26
HETATM   26  O   UNL     1      42.732 -16.727   7.710  1.00  0.00    -0.393 OA
HETATM   27  H   UNL     1      42.813 -16.150   8.489  1.00  0.00     0.210 HD
ENDBRANCH  18  26
ENDBRANCH   2  17
TORSDOF 4
ENDMDL
MODEL 3
REMARK VINA RESULT:      -8.0      6.486      9.165
REMARK  4 active torsions:
REMARK  status: ('A' for Active; 'I' for Inactive)
REMARK    1  A    between atoms: C_4  and  C_5 
REMARK    2  A    between atoms: C_9  and  C_10 
REMARK       I    between atoms: C_10  and  N_11 
REMARK    3  A    between atoms: N_11  and  C_12 
REMARK    4  A    between atoms: C_13  and  O_14 
ROOT
HETATM    1  C   UNL     1      42.041 -12.429   5.854  1.00  0.00     0.270 C 
HETATM    2  N   UNL     1      42.213 -12.199   7.194  1.00  0.00    -0.344 N 
HETATM    3  O   UNL     1      41.732 -11.536   5.072  1.00  0.00    -0.266 OA
HETATM    4  H   UNL     1      42.295 -12.973   7.837  1.00  0.00     0.163 HD
ENDROOT
BRANCH   1   5
HETATM    5  C   UNL     1      42.210 -13.793   5.438  1.00  0.00     0.120 A 
HETATM    6  N   UNL     1      41.588 -14.827   6.085  1.00  0.00    -0.272 N 
HETATM    7  N   UNL     1      41.841 -16.036   5.561  1.00  0.00    -0.173 NA
HETATM    8  H   UNL     1      40.977 -14.759   6.894  1.00  0.00     0.189 HD
HETATM    9  C   UNL     1      42.630 -15.777   4.510  1.00  0.00     0.096 A 
HETATM   10  C   UNL     1      42.903 -14.390   4.403  1.00  0.00     0.071 A 
BRANCH   9  11
HETATM   11  C   UNL     1      43.112 -16.857   3.589  1.00  0.00     0.035 A 
HETATM   12  S   UNL     1      43.092 -18.524   3.956  1.00  0.00    -0.093 SA
HETATM   13  C   UNL     1      43.819 -18.939   2.465  1.00  0.00    -0.021 A 
HETATM   14  C   UNL     1      44.119 -20.362   2.137  1.00  0.00     0.056 C 
HETATM   15  C   UNL     1      44.049 -17.823   1.687  1.00  0.00     0.015 A 
HETATM   16  C   UNL     1      43.642 -16.620   2.337  1.00  0.00     0.022 A 
ENDBRANCH   9  11
ENDBRANCH   1   5
BRANCH   2  17
HETATM   17  C   UNL     1      42.126 -10.866   7.751  1.00  0.00     0.147 C 
HETATM   18  C   UNL     1      40.685 -10.448   8.174  1.00  0.00     0.149 C 
HETATM   19  C   UNL     1      40.852  -9.485   9.364  1.00  0.00     0.073 C 
HETATM   20  C   UNL     1      42.151  -9.950   9.958  1.00  0.00    -0.047 A 
HETATM   21  C   UNL     1      42.876 -10.729   9.048  1.00  0.00    -0.027 A 
HETATM   22  C   UNL     1      42.660  -9.650  11.210  1.00  0.00     0.008 A 
HETATM   23  C   UNL     1      44.135 -11.211   9.375  1.00  0.00     0.010 A 
HETATM   24  C   UNL     1      44.650 -10.927  10.642  1.00  0.00     0.001 A 
HETATM   25  C   UNL     1      43.916 -10.153  11.554  1.00  0.00     0.001 A 
BRANCH  18  26
HETATM   26  O   UNL     1      39.905 -11.578   8.604  1.00  0.00    -0.393 OA
HETATM   27  H   UNL     1      40.540 -12.298   8.763  1.00  0.00     0.210 HD
ENDBRANCH  18  26
ENDBRANCH   2  17
TORSDOF 4
ENDMDL
MODEL 4
REMARK VINA RESULT:      -7.8      3.251      9.103
REMARK  4 active torsions:
REMARK  status: ('A' for Active; 'I' for Inactive)
REMARK    1  A    between atoms: C_4  and  C_5 
REMARK    2  A    between atoms: C_9  and  C_10 
REMARK       I    between atoms: C_10  and  N_11 
REMARK    3  A    between atoms: N_11  and  C_12 
REMARK    4  A    between atoms: C_13  and  O_14 
ROOT
HETATM    1  C   UNL     1      41.981 -14.705   0.432  1.00  0.00     0.270 C 
HETATM    2  N   UNL     1      41.752 -14.615  -0.916  1.00  0.00    -0.344 N 
HETATM    3  O   UNL     1      42.134 -13.713   1.137  1.00  0.00    -0.266 OA
HETATM    4  H   UNL     1      41.802 -15.439  -1.497  1.00  0.00     0.163 HD
ENDROOT
BRANCH   1   5
HETATM    5  C   UNL     1      42.065 -16.041   0.953  1.00  0.00     0.120 A 
HETATM    6  N   UNL     1      41.024 -16.923   0.848  1.00  0.00    -0.272 N 
HETATM    7  N   UNL     1      41.271 -18.133   1.373  1.00  0.00    -0.173 NA
HETATM    8  H   UNL     1      40.117 -16.746   0.424  1.00  0.00     0.189 HD
HETATM    9  C   UNL     1      42.536 -18.047   1.806  1.00  0.00     0.096 A 
HETATM   10  C   UNL     1      43.068 -16.753   1.581  1.00  0.00     0.071 A 
BRANCH   9  11
HETATM   11  C   UNL     1      43.250 -19.213   2.421  1.00  0.00     0.035 A 
HETATM   12  S   UNL     1      43.825 -19.258   4.029  1.00  0.00    -0.093 SA
HETATM   13  C   UNL     1      44.486 -20.822   3.829  1.00  0.00    -0.021 A 
HETATM   14  C   UNL     1      45.206 -21.490   4.949  1.00  0.00     0.056 C 
HETATM   15  C   UNL     1      44.247 -21.313   2.562  1.00  0.00     0.015 A 
HETATM   16  C   UNL     1      43.535 -20.383   1.748  1.00  0.00     0.022 A 
ENDBRANCH   9  11
ENDBRANCH   1   5
BRANCH   2  17
HETATM   17  C   UNL     1      41.590 -13.335  -1.572  1.00  0.00     0.147 C 
HETATM   18  C   UNL     1      42.266 -13.252  -2.975  1.00  0.00     0.149 C 
HETATM   19  C   UNL     1      41.411 -12.275  -3.803  1.00  0.00     0.073 C 
HETATM   20  C   UNL     1      40.058 -12.434  -3.170  1.00  0.00    -0.047 A 
HETATM   21  C   UNL     1      40.155 -13.031  -1.907  1.00  0.00    -0.027 A 
HETATM   22  C   UNL     1      38.836 -12.027  -3.678  1.00  0.00     0.008 A 
HETATM   23  C   UNL     1      39.025 -13.218  -1.123  1.00  0.00     0.010 A 
HETATM   24  C   UNL     1      37.787 -12.824  -1.634  1.00  0.00     0.001 A 
HETATM   25  C   UNL     1      37.693 -12.234  -2.904  1.00  0.00     0.001 A 
BRANCH  18  26
HETATM   26  O   UNL     1      42.278 -14.528  -3.640  1.00  0.00    -0.393 OA
HETATM   27  H   UNL     1      43.065 -14.525  -4.211  1.00  0.00     0.210 HD
ENDBRANCH  18  26
ENDBRANCH   2  17
TORSDOF 4
ENDMDL
MODEL 5
REMARK VINA RESULT:      -7.8      2.201      2.868
REMARK  4 active torsions:
REMARK  status: ('A' for Active; 'I' for Inactive)
REMARK    1  A    between atoms: C_4  and  C_5 
REMARK    2  A    between atoms: C_9  and  C_10 
REMARK       I    between atoms: C_10  and  N_11 
REMARK    3  A    between atoms: N_11  and  C_12 
REMARK    4  A    between atoms: C_13  and  O_14 
ROOT
HETATM    1  C   UNL     1      41.936 -14.796   1.222  1.00  0.00     0.270 C 
HETATM    2  N   UNL     1      42.056 -16.040   1.785  1.00  0.00    -0.344 N 
HETATM    3  O   UNL     1      42.416 -13.794   1.742  1.00  0.00    -0.266 OA
HETATM    4  H   UNL     1      41.511 -16.813   1.433  1.00  0.00     0.163 HD
ENDROOT
BRANCH   1   5
HETATM    5  C   UNL     1      41.180 -14.745   0.003  1.00  0.00     0.120 A 
HETATM    6  N   UNL     1      41.519 -15.498  -1.089  1.00  0.00    -0.272 N 
HETATM    7  N   UNL     1      40.701 -15.343  -2.141  1.00  0.00    -0.173 NA
HETATM    8  H   UNL     1      42.304 -16.138  -1.166  1.00  0.00     0.189 HD
HETATM    9  C   UNL     1      39.772 -14.481  -1.706  1.00  0.00     0.096 A 
HETATM   10  C   UNL     1      40.039 -14.065  -0.378  1.00  0.00     0.071 A 
BRANCH   9  11
HETATM   11  C   UNL     1      38.609 -14.064  -2.556  1.00  0.00     0.035 A 
HETATM   12  S   UNL     1      37.733 -15.113  -3.581  1.00  0.00    -0.093 SA
HETATM   13  C   UNL     1      36.722 -13.850  -4.135  1.00  0.00    -0.021 A 
HETATM   14  C   UNL     1      35.660 -14.118  -5.146  1.00  0.00     0.056 C 
HETATM   15  C   UNL     1      37.031 -12.652  -3.526  1.00  0.00     0.015 A 
HETATM   16  C   UNL     1      38.122 -12.775  -2.616  1.00  0.00     0.022 A 
ENDBRANCH   9  11
ENDBRANCH   1   5
BRANCH   2  17
HETATM   17  C   UNL     1      42.835 -16.255   2.986  1.00  0.00     0.147 C 
HETATM   18  C   UNL     1      42.006 -16.162   4.304  1.00  0.00     0.149 C 
HETATM   19  C   UNL     1      42.683 -17.119   5.303  1.00  0.00     0.073 C 
HETATM   20  C   UNL     1      43.302 -18.135   4.386  1.00  0.00    -0.047 A 
HETATM   21  C   UNL     1      43.392 -17.650   3.076  1.00  0.00    -0.027 A 
HETATM   22  C   UNL     1      43.790 -19.387   4.721  1.00  0.00     0.008 A 
HETATM   23  C   UNL     1      43.988 -18.409   2.078  1.00  0.00     0.010 A 
HETATM   24  C   UNL     1      44.469 -19.679   2.405  1.00  0.00     0.001 A 
HETATM   25  C   UNL     1      44.369 -20.165   3.717  1.00  0.00     0.001 A 
BRANCH  18  26
HETATM   26  O   UNL     1      40.645 -16.587   4.112  1.00  0.00    -0.393 OA
HETATM   27  H   UNL     1      40.327 -16.871   4.986  1.00  0.00     0.210 HD
ENDBRANCH  18  26
ENDBRANCH   2  17
TORSDOF 4
ENDMDL
MODEL 6
REMARK VINA RESULT:      -7.6      6.599      9.776
REMARK  4 active torsions:
REMARK  status: ('A' for Active; 'I' for Inactive)
REMARK    1  A    between atoms: C_4  and  C_5 
REMARK    2  A    between atoms: C_9  and  C_10 
REMARK       I    between atoms: C_10  and  N_11 
REMARK    3  A    between atoms: N_11  and  C_12 
REMARK    4  A    between atoms: C_13  and  O_14 
ROOT
HETATM    1  C   UNL     1      44.516 -13.527   7.670  1.00  0.00     0.270 C 
HETATM    2  N   UNL     1      43.378 -12.809   7.924  1.00  0.00    -0.344 N 
HETATM    3  O   UNL     1      45.636 -13.041   7.787  1.00  0.00    -0.266 OA
HETATM    4  H   UNL     1      42.475 -13.173   7.656  1.00  0.00     0.163 HD
ENDROOT
BRANCH   1   5
HETATM    5  C   UNL     1      44.305 -14.875   7.223  1.00  0.00     0.120 A 
HETATM    6  N   UNL     1      43.608 -15.783   7.974  1.00  0.00    -0.272 N 
HETATM    7  N   UNL     1      43.489 -16.993   7.405  1.00  0.00    -0.173 NA
HETATM    8  H   UNL     1      43.189 -15.625   8.886  1.00  0.00     0.189 HD
HETATM    9  C   UNL     1      44.104 -16.858   6.223  1.00  0.00     0.096 A 
HETATM   10  C   UNL     1      44.645 -15.557   6.071  1.00  0.00     0.071 A 
BRANCH   9  11
HETATM   11  C   UNL     1      44.159 -17.972   5.220  1.00  0.00     0.035 A 
HETATM   12  S   UNL     1      43.399 -17.938   3.691  1.00  0.00    -0.093 SA
HETATM   13  C   UNL     1      43.924 -19.521   3.311  1.00  0.00    -0.021 A 
HETATM   14  C   UNL     1      43.551 -20.151   2.013  1.00  0.00     0.056 C 
HETATM   15  C   UNL     1      44.691 -20.056   4.325  1.00  0.00     0.015 A 
HETATM   16  C   UNL     1      44.825 -19.163   5.429  1.00  0.00     0.022 A 
ENDBRANCH   9  11
ENDBRANCH   1   5
BRANCH   2  17
HETATM   17  C   UNL     1      43.434 -11.454   8.431  1.00  0.00     0.147 C 
HETATM   18  C   UNL     1      42.217 -10.572   8.020  1.00  0.00     0.149 C 
HETATM   19  C   UNL     1      42.011  -9.566   9.168  1.00  0.00     0.073 C 
HETATM   20  C   UNL     1      42.554 -10.326  10.345  1.00  0.00    -0.047 A 
HETATM   21  C   UNL     1      43.361 -11.393   9.933  1.00  0.00    -0.027 A 
HETATM   22  C   UNL     1      42.369 -10.044  11.688  1.00  0.00     0.008 A 
HETATM   23  C   UNL     1      44.011 -12.190  10.864  1.00  0.00     0.010 A 
HETATM   24  C   UNL     1      43.818 -11.923  12.222  1.00  0.00     0.001 A 
HETATM   25  C   UNL     1      43.001 -10.858  12.630  1.00  0.00     0.001 A 
BRANCH  18  26
HETATM   26  O   UNL     1      41.017 -11.351   7.872  1.00  0.00    -0.393 OA
HETATM   27  H   UNL     1      40.677 -11.495   8.772  1.00  0.00     0.210 HD
ENDBRANCH  18  26
ENDBRANCH   2  17
TORSDOF 4
ENDMDL
MODEL 7
REMARK VINA RESULT:      -7.6      5.756      9.334
REMARK  4 active torsions:
REMARK  status: ('A' for Active; 'I' for Inactive)
REMARK    1  A    between atoms: C_4  and  C_5 
REMARK    2  A    between atoms: C_9  and  C_10 
REMARK       I    between atoms: C_10  and  N_11 
REMARK    3  A    between atoms: N_11  and  C_12 
REMARK    4  A    between atoms: C_13  and  O_14 
ROOT
HETATM    1  C   UNL     1      42.581 -13.487   5.421  1.00  0.00     0.270 C 
HETATM    2  N   UNL     1      41.846 -13.087   6.506  1.00  0.00    -0.344 N 
HETATM    3  O   UNL     1      42.833 -12.732   4.488  1.00  0.00    -0.266 OA
HETATM    4  H   UNL     1      41.507 -13.768   7.170  1.00  0.00     0.163 HD
ENDROOT
BRANCH   1   5
HETATM    5  C   UNL     1      43.002 -14.860   5.436  1.00  0.00     0.120 A 
HETATM    6  N   UNL     1      43.137 -15.560   6.605  1.00  0.00    -0.272 N 
HETATM    7  N   UNL     1      43.525 -16.834   6.442  1.00  0.00    -0.173 NA
HETATM    8  H   UNL     1      42.975 -15.211   7.545  1.00  0.00     0.189 HD
HETATM    9  C   UNL     1      43.612 -16.980   5.114  1.00  0.00     0.096 A 
HETATM   10  C   UNL     1      43.312 -15.769   4.443  1.00  0.00     0.071 A 
BRANCH   9  11
HETATM   11  C   UNL     1      43.966 -18.291   4.477  1.00  0.00     0.035 A 
HETATM   12  S   UNL     1      43.378 -18.822   2.963  1.00  0.00    -0.093 SA
HETATM   13  C   UNL     1      44.207 -20.314   3.081  1.00  0.00    -0.021 A 
HETATM   14  C   UNL     1      44.090 -21.333   1.999  1.00  0.00     0.056 C 
HETATM   15  C   UNL     1      44.943 -20.393   4.245  1.00  0.00     0.015 A 
HETATM   16  C   UNL     1      44.802 -19.225   5.052  1.00  0.00     0.022 A 
ENDBRANCH   9  11
ENDBRANCH   1   5
BRANCH   2  17
HETATM   17  C   UNL     1      41.398 -11.719   6.654  1.00  0.00     0.147 C 
HETATM   18  C   UNL     1      39.849 -11.565   6.741  1.00  0.00     0.149 C 
HETATM   19  C   UNL     1      39.591 -10.333   7.629  1.00  0.00     0.073 C 
HETATM   20  C   UNL     1      40.814 -10.321   8.502  1.00  0.00    -0.047 A 
HETATM   21  C   UNL     1      41.838 -11.101   7.953  1.00  0.00    -0.027 A 
HETATM   22  C   UNL     1      41.001  -9.618   9.680  1.00  0.00     0.008 A 
HETATM   23  C   UNL     1      43.078 -11.179   8.572  1.00  0.00     0.010 A 
HETATM   24  C   UNL     1      43.270 -10.485   9.769  1.00  0.00     0.001 A 
HETATM   25  C   UNL     1      42.237  -9.712  10.320  1.00  0.00     0.001 A 
BRANCH  18  26
HETATM   26  O   UNL     1      39.231 -12.710   7.355  1.00  0.00    -0.393 OA
HETATM   27  H   UNL     1      39.920 -13.127   7.901  1.00  0.00     0.210 HD
ENDBRANCH  18  26
ENDBRANCH   2  17
TORSDOF 4
ENDMDL
MODEL 8
REMARK VINA RESULT:      -7.5      3.027      9.418
REMARK  4 active torsions:
REMARK  status: ('A' for Active; 'I' for Inactive)
REMARK    1  A    between atoms: C_4  and  C_5 
REMARK    2  A    between atoms: C_9  and  C_10 
REMARK       I    between atoms: C_10  and  N_11 
REMARK    3  A    between atoms: N_11  and  C_12 
REMARK    4  A    between atoms: C_13  and  O_14 
ROOT
HETATM    1  C   UNL     1      40.892 -14.710  -0.769  1.00  0.00     0.270 C 
HETATM    2  N   UNL     1      39.615 -14.712  -1.265  1.00  0.00    -0.344 N 
HETATM    3  O   UNL     1      41.756 -13.948  -1.190  1.00  0.00    -0.266 OA
HETATM    4  H   UNL     1      38.977 -15.457  -1.027  1.00  0.00     0.163 HD
ENDROOT
BRANCH   1   5
HETATM    5  C   UNL     1      41.157 -15.686   0.250  1.00  0.00     0.120 A 
HETATM    6  N   UNL     1      40.161 -16.188   1.045  1.00  0.00    -0.272 N 
HETATM    7  N   UNL     1      40.574 -17.101   1.936  1.00  0.00    -0.173 NA
HETATM    8  H   UNL     1      39.176 -15.938   1.016  1.00  0.00     0.189 HD
HETATM    9  C   UNL     1      41.885 -17.224   1.691  1.00  0.00     0.096 A 
HETATM   10  C   UNL     1      42.299 -16.348   0.657  1.00  0.00     0.071 A 
BRANCH   9  11
HETATM   11  C   UNL     1      42.748 -18.201   2.433  1.00  0.00     0.035 A 
HETATM   12  S   UNL     1      42.870 -18.286   4.135  1.00  0.00    -0.093 SA
HETATM   13  C   UNL     1      44.023 -19.548   4.064  1.00  0.00    -0.021 A 
HETATM   14  C   UNL     1      44.601 -20.117   5.314  1.00  0.00     0.056 C 
HETATM   15  C   UNL     1      44.290 -19.916   2.762  1.00  0.00     0.015 A 
HETATM   16  C   UNL     1      43.555 -19.137   1.820  1.00  0.00     0.022 A 
ENDBRANCH   9  11
ENDBRANCH   1   5
BRANCH   2  17
HETATM   17  C   UNL     1      39.187 -13.750  -2.258  1.00  0.00     0.147 C 
HETATM   18  C   UNL     1      38.253 -14.345  -3.356  1.00  0.00     0.149 C 
HETATM   19  C   UNL     1      37.320 -13.199  -3.790  1.00  0.00     0.073 C 
HETATM   20  C   UNL     1      37.267 -12.356  -2.548  1.00  0.00    -0.047 A 
HETATM   21  C   UNL     1      38.322 -12.663  -1.680  1.00  0.00    -0.027 A 
HETATM   22  C   UNL     1      36.360 -11.355  -2.247  1.00  0.00     0.008 A 
HETATM   23  C   UNL     1      38.494 -11.958  -0.497  1.00  0.00     0.010 A 
HETATM   24  C   UNL     1      37.574 -10.956  -0.178  1.00  0.00     0.001 A 
HETATM   25  C   UNL     1      36.513 -10.658  -1.047  1.00  0.00     0.001 A 
BRANCH  18  26
HETATM   26  O   UNL     1      37.448 -15.423  -2.847  1.00  0.00    -0.393 OA
HETATM   27  H   UNL     1      37.791 -15.618  -1.958  1.00  0.00     0.210 HD
ENDBRANCH  18  26
ENDBRANCH   2  17
TORSDOF 4
ENDMDL
MODEL 9
REMARK VINA RESULT:      -7.5      2.907      8.776
REMARK  4 active torsions:
REMARK  status: ('A' for Active; 'I' for Inactive)
REMARK    1  A    between atoms: C_4  and  C_5 
REMARK    2  A    between atoms: C_9  and  C_10 
REMARK       I    between atoms: C_10  and  N_11 
REMARK    3  A    between atoms: N_11  and  C_12 
REMARK    4  A    between atoms: C_13  and  O_14 
ROOT
HETATM    1  C   UNL     1      42.615 -14.297   1.983  1.00  0.00     0.270 C 
HETATM    2  N   UNL     1      42.001 -14.535   0.781  1.00  0.00    -0.344 N 
HETATM    3  O   UNL     1      42.836 -13.162   2.391  1.00  0.00    -0.266 OA
HETATM    4  H   UNL     1      41.988 -15.466   0.391  1.00  0.00     0.163 HD
ENDROOT
BRANCH   1   5
HETATM    5  C   UNL     1      43.013 -15.469   2.711  1.00  0.00     0.120 A 
HETATM    6  N   UNL     1      43.015 -15.501   4.079  1.00  0.00    -0.272 N 
HETATM    7  N   UNL     1      43.400 -16.676   4.602  1.00  0.00    -0.173 NA
HETATM    8  H   UNL     1      42.758 -14.744   4.707  1.00  0.00     0.189 HD
HETATM    9  C   UNL     1      43.626 -17.449   3.532  1.00  0.00     0.096 A 
HETATM   10  C   UNL     1      43.415 -16.733   2.328  1.00  0.00     0.071 A 
BRANCH   9  11
HETATM   11  C   UNL     1      44.028 -18.888   3.658  1.00  0.00     0.035 A 
HETATM   12  S   UNL     1      44.331 -19.683   5.139  1.00  0.00    -0.093 SA
HETATM   13  C   UNL     1      44.740 -21.148   4.356  1.00  0.00    -0.021 A 
HETATM   14  C   UNL     1      45.154 -22.341   5.148  1.00  0.00     0.056 C 
HETATM   15  C   UNL     1      44.621 -21.038   2.986  1.00  0.00     0.015 A 
HETATM   16  C   UNL     1      44.211 -19.733   2.583  1.00  0.00     0.022 A 
ENDBRANCH   9  11
ENDBRANCH   1   5
BRANCH   2  17
HETATM   17  C   UNL     1      41.497 -13.453  -0.039  1.00  0.00     0.147 C 
HETATM   18  C   UNL     1      41.578 -13.728  -1.571  1.00  0.00     0.149 C 
HETATM   19  C   UNL     1      40.396 -12.972  -2.204  1.00  0.00     0.073 C 
HETATM   20  C   UNL     1      39.404 -12.949  -1.076  1.00  0.00    -0.047 A 
HETATM   21  C   UNL     1      40.023 -13.219   0.150  1.00  0.00    -0.027 A 
HETATM   22  C   UNL     1      38.052 -12.660  -1.148  1.00  0.00     0.008 A 
HETATM   23  C   UNL     1      39.297 -13.189   1.332  1.00  0.00     0.010 A 
HETATM   24  C   UNL     1      37.929 -12.913   1.267  1.00  0.00     0.001 A 
HETATM   25  C   UNL     1      37.310 -12.653   0.035  1.00  0.00     0.001 A 
BRANCH  18  26
HETATM   26  O   UNL     1      41.441 -15.128  -1.872  1.00  0.00    -0.393 OA
HETATM   27  H   UNL     1      42.280 -15.398  -2.285  1.00  0.00     0.210 HD
ENDBRANCH  18  26
ENDBRANCH   2  17
TORSDOF 4
ENDMDL
MODEL 10
REMARK VINA RESULT:      -7.3      2.923      3.935
REMARK  4 active torsions:
REMARK  status: ('A' for Active; 'I' for Inactive)
REMARK    1  A    between atoms: C_4  and  C_5 
REMARK    2  A    between atoms: C_9  and  C_10 
REMARK       I    between atoms: C_10  and  N_11 
REMARK    3  A    between atoms: N_11  and  C_12 
REMARK    4  A    between atoms: C_13  and  O_14 
ROOT
HETATM    1  C   UNL     1      41.108 -16.709   1.667  1.00  0.00     0.270 C 
HETATM    2  N   UNL     1      42.330 -17.053   2.184  1.00  0.00    -0.344 N 
HETATM    3  O   UNL     1      40.060 -17.183   2.095  1.00  0.00    -0.266 OA
HETATM    4  H   UNL     1      43.178 -16.786   1.707  1.00  0.00     0.163 HD
ENDROOT
BRANCH   1   5
HETATM    5  C   UNL     1      41.144 -15.785   0.569  1.00  0.00     0.120 A 
HETATM    6  N   UNL     1      40.952 -16.193  -0.723  1.00  0.00    -0.272 N 
HETATM    7  N   UNL     1      41.002 -15.202  -1.627  1.00  0.00    -0.173 NA
HETATM    8  H   UNL     1      40.780 -17.142  -1.043  1.00  0.00     0.189 HD
HETATM    9  C   UNL     1      41.202 -14.101  -0.891  1.00  0.00     0.096 A 
HETATM   10  C   UNL     1      41.314 -14.417   0.485  1.00  0.00     0.071 A 
BRANCH   9  11
HETATM   11  C   UNL     1      41.266 -12.733  -1.503  1.00  0.00     0.035 A 
HETATM   12  S   UNL     1      42.672 -12.041  -2.182  1.00  0.00    -0.093 SA
HETATM   13  C   UNL     1      41.867 -10.576  -2.545  1.00  0.00    -0.021 A 
HETATM   14  C   UNL     1      42.598  -9.448  -3.187  1.00  0.00     0.056 C 
HETATM   15  C   UNL     1      40.537 -10.626  -2.178  1.00  0.00     0.015 A 
HETATM   16  C   UNL     1      40.191 -11.871  -1.575  1.00  0.00     0.022 A 
ENDBRANCH   9  11
ENDBRANCH   1   5
BRANCH   2  17
HETATM   17  C   UNL     1      42.447 -17.934   3.327  1.00  0.00     0.147 C 
HETATM   18  C   UNL     1      43.376 -19.163   3.087  1.00  0.00     0.149 C 
HETATM   19  C   UNL     1      44.000 -19.500   4.454  1.00  0.00     0.073 C 
HETATM   20  C   UNL     1      43.993 -18.161   5.135  1.00  0.00    -0.047 A 
HETATM   21  C   UNL     1      43.115 -17.273   4.503  1.00  0.00    -0.027 A 
HETATM   22  C   UNL     1      44.693 -17.790   6.271  1.00  0.00     0.008 A 
HETATM   23  C   UNL     1      42.912 -15.997   5.008  1.00  0.00     0.010 A 
HETATM   24  C   UNL     1      43.626 -15.608   6.144  1.00  0.00     0.001 A 
HETATM   25  C   UNL     1      44.512 -16.499   6.770  1.00  0.00     0.001 A 
BRANCH  18  26
HETATM   26  O   UNL     1      44.435 -18.861   2.162  1.00  0.00    -0.393 OA
HETATM   27  H   UNL     1      44.108 -18.131   1.608  1.00  0.00     0.210 HD
ENDBRANCH  18  26
ENDBRANCH   2  17
TORSDOF 4
ENDMDL
