MODEL 1
REMARK VINA RESULT:      -8.9      0.000      0.000
REMARK  7 active torsions:
REMARK  status: ('A' for Active; 'I' for Inactive)
REMARK    1  A    between atoms: N_2  and  C_4 
REMARK    2  A    between atoms: N_2  and  C_27 
REMARK    3  A    between atoms: C_4  and  C_5 
REMARK       I    between atoms: C_5  and  N_6 
REMARK    4  A    between atoms: N_6  and  N_7 
REMARK    5  A    between atoms: C_11  and  C_12 
REMARK    6  A    between atoms: C_11  and  C_18 
REMARK    7  A    between atoms: C_27  and  C_28 
ROOT
HETATM    1  N   UNL     1      40.269 -13.399   2.649  1.00  0.00    -0.167 N 
HETATM    2  C   UNL     1      41.366 -12.794   2.106  1.00  0.00     0.346 C 
HETATM    3  O   UNL     1      41.775 -11.672   2.353  1.00  0.00    -0.245 OA
HETATM    4  N   UNL     1      41.910 -13.636   1.176  1.00  0.00    -0.315 N 
HETATM    5  C   UNL     1      41.106 -14.826   0.903  1.00  0.00     0.173 C 
HETATM    6  C   UNL     1      39.950 -14.528   1.933  1.00  0.00     0.285 C 
HETATM    7  O   UNL     1      38.923 -15.177   2.122  1.00  0.00    -0.267 OA
HETATM    8  H   UNL     1      42.709 -13.338   0.632  1.00  0.00     0.166 HD
ENDROOT
BRANCH   1   9
HETATM    9  N   UNL     1      39.322 -12.650   3.343  1.00  0.00    -0.255 N 
HETATM   10  C   UNL     1      39.211 -12.599   4.704  1.00  0.00     0.262 C 
HETATM   11  O   UNL     1      38.456 -11.771   5.218  1.00  0.00    -0.270 OA
HETATM   12  H   UNL     1      38.852 -11.921   2.807  1.00  0.00     0.191 HD
BRANCH  10  13
HETATM   13  C   UNL     1      40.022 -13.572   5.569  1.00  0.00     0.338 C 
BRANCH  13  14
HETATM   14  N   UNL     1      41.281 -12.973   6.215  1.00  0.00    -0.061 N 
HETATM   15  C   UNL     1      41.132 -11.528   6.570  1.00  0.00     0.270 C 
HETATM   16  H   UNL     1      41.398 -13.505   7.091  1.00  0.00     0.280 HD
BRANCH  14  17
HETATM   17  C   UNL     1      42.565 -13.268   5.447  1.00  0.00     0.301 C 
BRANCH  17  18
HETATM   18  C   UNL     1      43.015 -14.681   5.681  1.00  0.00     0.102 A 
HETATM   19  S   UNL     1      44.358 -15.025   6.678  1.00  0.00    -0.071 SA
HETATM   20  C   UNL     1      44.145 -16.708   6.376  1.00  0.00     0.035 A 
HETATM   21  C   UNL     1      43.046 -16.884   5.529  1.00  0.00     0.074 A 
HETATM   22  C   UNL     1      44.895 -17.795   6.854  1.00  0.00     0.021 A 
HETATM   23  N   UNL     1      42.406 -15.715   5.135  1.00  0.00    -0.243 NA
HETATM   24  C   UNL     1      42.687 -18.191   5.147  1.00  0.00     0.033 A 
HETATM   25  C   UNL     1      43.428 -19.280   5.618  1.00  0.00     0.002 A 
HETATM   26  C   UNL     1      44.518 -19.081   6.460  1.00  0.00     0.002 A 
ENDBRANCH  17  18
ENDBRANCH  14  17
ENDBRANCH  13  14
ENDBRANCH  10  13
ENDBRANCH   1   9
BRANCH   5  27
HETATM   27  C   UNL     1      41.900 -16.093   1.252  1.00  0.00    -0.016 A 
HETATM   28  C   UNL     1      41.293 -17.362   1.283  1.00  0.00     0.010 A 
HETATM   29  C   UNL     1      42.033 -18.512   1.577  1.00  0.00     0.001 A 
HETATM   30  C   UNL     1      43.397 -18.420   1.832  1.00  0.00     0.000 A 
HETATM   31  C   UNL     1      44.026 -17.182   1.782  1.00  0.00     0.001 A 
HETATM   32  C   UNL     1      43.289 -16.032   1.488  1.00  0.00     0.010 A 
ENDBRANCH   5  27
BRANCH   5  33
HETATM   33  C   UNL     1      40.577 -14.848  -0.538  1.00  0.00    -0.016 A 
HETATM   34  C   UNL     1      39.497 -14.044  -0.952  1.00  0.00     0.010 A 
HETATM   35  C   UNL     1      39.036 -14.073  -2.272  1.00  0.00     0.001 A 
HETATM   36  C   UNL     1      39.649 -14.895  -3.211  1.00  0.00     0.000 A 
HETATM   37  C   UNL     1      40.732 -15.680  -2.836  1.00  0.00     0.001 A 
HETATM   38  C   UNL     1      41.195 -15.651  -1.518  1.00  0.00     0.010 A 
ENDBRANCH   5  33
TORSDOF 7
ENDMDL
MODEL 2
REMARK VINA RESULT:      -8.6      2.567      6.511
REMARK  7 active torsions:
REMARK  status: ('A' for Active; 'I' for Inactive)
REMARK    1  A    between atoms: N_2  and  C_4 
REMARK    2  A    between atoms: N_2  and  C_27 
REMARK    3  A    between atoms: C_4  and  C_5 
REMARK       I    between atoms: C_5  and  N_6 
REMARK    4  A    between atoms: N_6  and  N_7 
REMARK    5  A    between atoms: C_11  and  C_12 
REMARK    6  A    between atoms: C_11  and  C_18 
REMARK    7  A    between atoms: C_27  and  C_28 
ROOT
HETATM    1  N   UNL     1      42.422 -13.172   4.381  1.00  0.00    -0.167 N 
HETATM    2  C   UNL     1      41.606 -12.904   5.441  1.00  0.00     0.346 C 
HETATM    3  O   UNL     1      40.597 -12.220   5.429  1.00  0.00    -0.245 OA
HETATM    4  N   UNL     1      42.142 -13.483   6.559  1.00  0.00    -0.315 N 
HETATM    5  C   UNL     1      43.471 -14.057   6.356  1.00  0.00     0.173 C 
HETATM    6  C   UNL     1      43.602 -13.725   4.819  1.00  0.00     0.285 C 
HETATM    7  O   UNL     1      44.565 -13.927   4.083  1.00  0.00    -0.267 OA
HETATM    8  H   UNL     1      41.698 -13.353   7.457  1.00  0.00     0.166 HD
ENDROOT
BRANCH   1   9
HETATM    9  N   UNL     1      42.327 -12.422   3.211  1.00  0.00    -0.255 N 
HETATM   10  C   UNL     1      41.497 -12.709   2.165  1.00  0.00     0.262 C 
HETATM   11  O   UNL     1      41.362 -11.884   1.257  1.00  0.00    -0.270 OA
HETATM   12  H   UNL     1      42.722 -11.483   3.253  1.00  0.00     0.191 HD
BRANCH  10  13
HETATM   13  C   UNL     1      40.750 -14.047   2.132  1.00  0.00     0.338 C 
BRANCH  13  14
HETATM   14  N   UNL     1      41.500 -15.194   1.435  1.00  0.00    -0.061 N 
HETATM   15  C   UNL     1      41.849 -14.892   0.013  1.00  0.00     0.270 C 
HETATM   16  H   UNL     1      42.380 -15.285   1.965  1.00  0.00     0.280 HD
BRANCH  14  17
HETATM   17  C   UNL     1      40.839 -16.557   1.609  1.00  0.00     0.301 C 
BRANCH  17  18
HETATM   18  C   UNL     1      41.840 -17.584   2.052  1.00  0.00     0.102 A 
HETATM   19  S   UNL     1      42.929 -17.262   3.327  1.00  0.00    -0.071 SA
HETATM   20  C   UNL     1      43.611 -18.832   3.135  1.00  0.00     0.035 A 
HETATM   21  C   UNL     1      42.945 -19.496   2.100  1.00  0.00     0.074 A 
HETATM   22  C   UNL     1      44.661 -19.434   3.847  1.00  0.00     0.021 A 
HETATM   23  N   UNL     1      41.932 -18.770   1.484  1.00  0.00    -0.243 NA
HETATM   24  C   UNL     1      43.342 -20.805   1.767  1.00  0.00     0.033 A 
HETATM   25  C   UNL     1      44.387 -21.413   2.471  1.00  0.00     0.002 A 
HETATM   26  C   UNL     1      45.036 -20.733   3.497  1.00  0.00     0.002 A 
ENDBRANCH  17  18
ENDBRANCH  14  17
ENDBRANCH  13  14
ENDBRANCH  10  13
ENDBRANCH   1   9
BRANCH   5  27
HETATM   27  C   UNL     1      43.446 -15.565   6.637  1.00  0.00    -0.016 A 
HETATM   28  C   UNL     1      42.237 -16.271   6.784  1.00  0.00     0.010 A 
HETATM   29  C   UNL     1      42.228 -17.651   7.014  1.00  0.00     0.001 A 
HETATM   30  C   UNL     1      43.424 -18.357   7.087  1.00  0.00     0.000 A 
HETATM   31  C   UNL     1      44.631 -17.688   6.919  1.00  0.00     0.001 A 
HETATM   32  C   UNL     1      44.643 -16.310   6.688  1.00  0.00     0.010 A 
ENDBRANCH   5  27
BRANCH   5  33
HETATM   33  C   UNL     1      44.547 -13.329   7.176  1.00  0.00    -0.016 A 
HETATM   34  C   UNL     1      45.890 -13.264   6.759  1.00  0.00     0.010 A 
HETATM   35  C   UNL     1      46.852 -12.588   7.517  1.00  0.00     0.001 A 
HETATM   36  C   UNL     1      46.493 -11.951   8.700  1.00  0.00     0.000 A 
HETATM   37  C   UNL     1      45.169 -11.979   9.122  1.00  0.00     0.001 A 
HETATM   38  C   UNL     1      44.207 -12.652   8.364  1.00  0.00     0.010 A 
ENDBRANCH   5  33
TORSDOF 7
ENDMDL
MODEL 3
REMARK VINA RESULT:      -8.5      2.197      6.647
REMARK  7 active torsions:
REMARK  status: ('A' for Active; 'I' for Inactive)
REMARK    1  A    between atoms: N_2  and  C_4 
REMARK    2  A    between atoms: N_2  and  C_27 
REMARK    3  A    between atoms: C_4  and  C_5 
REMARK       I    between atoms: C_5  and  N_6 
REMARK    4  A    between atoms: N_6  and  N_7 
REMARK    5  A    between atoms: C_11  and  C_12 
REMARK    6  A    between atoms: C_11  and  C_18 
REMARK    7  A    between atoms: C_27  and  C_28 
ROOT
HETATM    1  N   UNL     1      41.517 -13.966   5.133  1.00  0.00    -0.167 N 
HETATM    2  C   UNL     1      40.416 -14.759   5.285  1.00  0.00     0.346 C 
HETATM    3  O   UNL     1      39.307 -14.403   5.645  1.00  0.00    -0.245 OA
HETATM    4  N   UNL     1      40.774 -16.054   5.025  1.00  0.00    -0.315 N 
HETATM    5  C   UNL     1      42.211 -16.250   4.835  1.00  0.00     0.173 C 
HETATM    6  C   UNL     1      42.644 -14.742   4.999  1.00  0.00     0.285 C 
HETATM    7  O   UNL     1      43.783 -14.280   4.992  1.00  0.00    -0.267 OA
HETATM    8  H   UNL     1      40.097 -16.796   5.132  1.00  0.00     0.166 HD
ENDROOT
BRANCH   1   9
HETATM    9  N   UNL     1      41.542 -12.683   5.675  1.00  0.00    -0.255 N 
HETATM   10  C   UNL     1      41.291 -11.536   4.977  1.00  0.00     0.262 C 
HETATM   11  O   UNL     1      41.165 -10.472   5.589  1.00  0.00    -0.270 OA
HETATM   12  H   UNL     1      41.508 -12.631   6.693  1.00  0.00     0.191 HD
BRANCH  10  13
HETATM   13  C   UNL     1      41.172 -11.586   3.449  1.00  0.00     0.338 C 
BRANCH  13  14
HETATM   14  N   UNL     1      39.739 -11.728   2.912  1.00  0.00    -0.061 N 
HETATM   15  C   UNL     1      38.707 -11.152   3.827  1.00  0.00     0.270 C 
HETATM   16  H   UNL     1      39.735 -11.174   2.041  1.00  0.00     0.280 HD
BRANCH  14  17
HETATM   17  C   UNL     1      39.398 -13.136   2.438  1.00  0.00     0.301 C 
BRANCH  17  18
HETATM   18  C   UNL     1      39.819 -13.337   1.011  1.00  0.00     0.102 A 
HETATM   19  S   UNL     1      39.842 -12.036  -0.093  1.00  0.00    -0.071 SA
HETATM   20  C   UNL     1      40.385 -13.102  -1.332  1.00  0.00     0.035 A 
HETATM   21  C   UNL     1      40.515 -14.389  -0.802  1.00  0.00     0.074 A 
HETATM   22  C   UNL     1      40.676 -12.821  -2.677  1.00  0.00     0.021 A 
HETATM   23  N   UNL     1      40.186 -14.513   0.543  1.00  0.00    -0.243 NA
HETATM   24  C   UNL     1      40.950 -15.430  -1.645  1.00  0.00     0.033 A 
HETATM   25  C   UNL     1      41.242 -15.160  -2.986  1.00  0.00     0.002 A 
HETATM   26  C   UNL     1      41.105 -13.871  -3.492  1.00  0.00     0.002 A 
ENDBRANCH  17  18
ENDBRANCH  14  17
ENDBRANCH  13  14
ENDBRANCH  10  13
ENDBRANCH   1   9
BRANCH   5  27
HETATM   27  C   UNL     1      42.489 -16.798   3.429  1.00  0.00    -0.016 A 
HETATM   28  C   UNL     1      41.455 -17.272   2.600  1.00  0.00     0.010 A 
HETATM   29  C   UNL     1      41.720 -17.744   1.311  1.00  0.00     0.001 A 
HETATM   30  C   UNL     1      43.019 -17.740   0.816  1.00  0.00     0.000 A 
HETATM   31  C   UNL     1      44.055 -17.253   1.604  1.00  0.00     0.001 A 
HETATM   32  C   UNL     1      43.794 -16.779   2.893  1.00  0.00     0.010 A 
ENDBRANCH   5  27
BRANCH   5  33
HETATM   33  C   UNL     1      42.824 -17.128   5.935  1.00  0.00    -0.016 A 
HETATM   34  C   UNL     1      42.983 -16.671   7.258  1.00  0.00     0.010 A 
HETATM   35  C   UNL     1      43.536 -17.491   8.246  1.00  0.00     0.001 A 
HETATM   36  C   UNL     1      43.932 -18.788   7.941  1.00  0.00     0.000 A 
HETATM   37  C   UNL     1      43.765 -19.273   6.650  1.00  0.00     0.001 A 
HETATM   38  C   UNL     1      43.210 -18.456   5.662  1.00  0.00     0.010 A 
ENDBRANCH   5  33
TORSDOF 7
ENDMDL
MODEL 4
REMARK VINA RESULT:      -8.4      2.238      3.799
REMARK  7 active torsions:
REMARK  status: ('A' for Active; 'I' for Inactive)
REMARK    1  A    between atoms: N_2  and  C_4 
REMARK    2  A    between atoms: N_2  and  C_27 
REMARK    3  A    between atoms: C_4  and  C_5 
REMARK       I    between atoms: C_5  and  N_6 
REMARK    4  A    between atoms: N_6  and  N_7 
REMARK    5  A    between atoms: C_11  and  C_12 
REMARK    6  A    between atoms: C_11  and  C_18 
REMARK    7  A    between atoms: C_27  and  C_28 
ROOT
HETATM    1  N   UNL     1      39.567 -13.616   1.500  1.00  0.00    -0.167 N 
HETATM    2  C   UNL     1      38.610 -12.773   1.013  1.00  0.00     0.346 C 
HETATM    3  O   UNL     1      37.617 -12.382   1.603  1.00  0.00    -0.245 OA
HETATM    4  N   UNL     1      38.911 -12.478  -0.288  1.00  0.00    -0.315 N 
HETATM    5  C   UNL     1      40.028 -13.248  -0.833  1.00  0.00     0.173 C 
HETATM    6  C   UNL     1      40.369 -14.061   0.475  1.00  0.00     0.285 C 
HETATM    7  O   UNL     1      41.216 -14.940   0.618  1.00  0.00    -0.267 OA
HETATM    8  H   UNL     1      38.286 -11.900  -0.832  1.00  0.00     0.166 HD
ENDROOT
BRANCH   1   9
HETATM    9  N   UNL     1      39.332 -14.359   2.654  1.00  0.00    -0.255 N 
HETATM   10  C   UNL     1      39.883 -14.096   3.876  1.00  0.00     0.262 C 
HETATM   11  O   UNL     1      39.472 -14.705   4.867  1.00  0.00    -0.270 OA
HETATM   12  H   UNL     1      38.521 -14.976   2.627  1.00  0.00     0.191 HD
BRANCH  10  13
HETATM   13  C   UNL     1      41.002 -13.055   3.999  1.00  0.00     0.338 C 
BRANCH  13  14
HETATM   14  N   UNL     1      41.964 -13.270   5.178  1.00  0.00    -0.061 N 
HETATM   15  C   UNL     1      41.931 -12.157   6.176  1.00  0.00     0.270 C 
HETATM   16  H   UNL     1      41.614 -14.122   5.643  1.00  0.00     0.280 HD
BRANCH  14  17
HETATM   17  C   UNL     1      43.378 -13.651   4.756  1.00  0.00     0.301 C 
BRANCH  17  18
HETATM   18  C   UNL     1      43.411 -15.041   4.190  1.00  0.00     0.102 A 
HETATM   19  S   UNL     1      43.202 -16.407   5.193  1.00  0.00    -0.071 SA
HETATM   20  C   UNL     1      43.382 -17.435   3.822  1.00  0.00     0.035 A 
HETATM   21  C   UNL     1      43.586 -16.647   2.685  1.00  0.00     0.074 A 
HETATM   22  C   UNL     1      43.345 -18.837   3.757  1.00  0.00     0.021 A 
HETATM   23  N   UNL     1      43.602 -15.275   2.907  1.00  0.00    -0.243 NA
HETATM   24  C   UNL     1      43.759 -17.284   1.441  1.00  0.00     0.033 A 
HETATM   25  C   UNL     1      43.725 -18.681   1.365  1.00  0.00     0.002 A 
HETATM   26  C   UNL     1      43.520 -19.444   2.511  1.00  0.00     0.002 A 
ENDBRANCH  17  18
ENDBRANCH  14  17
ENDBRANCH  13  14
ENDBRANCH  10  13
ENDBRANCH   1   9
BRANCH   5  27
HETATM   27  C   UNL     1      41.163 -12.307  -1.259  1.00  0.00    -0.016 A 
HETATM   28  C   UNL     1      41.405 -12.003  -2.611  1.00  0.00     0.010 A 
HETATM   29  C   UNL     1      42.426 -11.123  -2.984  1.00  0.00     0.001 A 
HETATM   30  C   UNL     1      43.218 -10.518  -2.015  1.00  0.00     0.000 A 
HETATM   31  C   UNL     1      42.983 -10.781  -0.670  1.00  0.00     0.001 A 
HETATM   32  C   UNL     1      41.963 -11.659  -0.295  1.00  0.00     0.010 A 
ENDBRANCH   5  27
BRANCH   5  33
HETATM   33  C   UNL     1      39.587 -14.182  -1.969  1.00  0.00    -0.016 A 
HETATM   34  C   UNL     1      40.428 -15.189  -2.481  1.00  0.00     0.010 A 
HETATM   35  C   UNL     1      40.002 -16.034  -3.511  1.00  0.00     0.001 A 
HETATM   36  C   UNL     1      38.725 -15.903  -4.044  1.00  0.00     0.000 A 
HETATM   37  C   UNL     1      37.866 -14.934  -3.540  1.00  0.00     0.001 A 
HETATM   38  C   UNL     1      38.289 -14.090  -2.510  1.00  0.00     0.010 A 
ENDBRANCH   5  33
TORSDOF 7
ENDMDL
MODEL 5
REMARK VINA RESULT:      -8.3      3.128      6.067
REMARK  7 active torsions:
REMARK  status: ('A' for Active; 'I' for Inactive)
REMARK    1  A    between atoms: N_2  and  C_4 
REMARK    2  A    between atoms: N_2  and  C_27 
REMARK    3  A    between atoms: C_4  and  C_5 
REMARK       I    between atoms: C_5  and  N_6 
REMARK    4  A    between atoms: N_6  and  N_7 
REMARK    5  A    between atoms: C_11  and  C_12 
REMARK    6  A    between atoms: C_11  and  C_18 
REMARK    7  A    between atoms: C_27  and  C_28 
ROOT
HETATM    1  N   UNL     1      41.383 -14.391   4.535  1.00  0.00    -0.167 N 
HETATM    2  C   UNL     1      42.623 -13.901   4.245  1.00  0.00     0.346 C 
HETATM    3  O   UNL     1      42.895 -12.761   3.910  1.00  0.00    -0.245 OA
HETATM    4  N   UNL     1      43.526 -14.926   4.330  1.00  0.00    -0.315 N 
HETATM    5  C   UNL     1      42.920 -16.241   4.527  1.00  0.00     0.173 C 
HETATM    6  C   UNL     1      41.418 -15.765   4.588  1.00  0.00     0.285 C 
HETATM    7  O   UNL     1      40.410 -16.461   4.689  1.00  0.00    -0.267 OA
HETATM    8  H   UNL     1      44.497 -14.762   4.102  1.00  0.00     0.166 HD
ENDROOT
BRANCH   1   9
HETATM    9  N   UNL     1      40.241 -13.677   4.179  1.00  0.00    -0.255 N 
HETATM   10  C   UNL     1      39.661 -12.702   4.940  1.00  0.00     0.262 C 
HETATM   11  O   UNL     1      38.762 -12.012   4.455  1.00  0.00    -0.270 OA
HETATM   12  H   UNL     1      39.978 -13.723   3.195  1.00  0.00     0.191 HD
BRANCH  10  13
HETATM   13  C   UNL     1      40.133 -12.483   6.383  1.00  0.00     0.338 C 
BRANCH  13  14
HETATM   14  N   UNL     1      40.885 -11.165   6.628  1.00  0.00    -0.061 N 
HETATM   15  C   UNL     1      40.905 -10.266   5.433  1.00  0.00     0.270 C 
HETATM   16  H   UNL     1      40.344 -10.694   7.370  1.00  0.00     0.280 HD
BRANCH  14  17
HETATM   17  C   UNL     1      42.262 -11.350   7.257  1.00  0.00     0.301 C 
BRANCH  17  18
HETATM   18  C   UNL     1      42.257 -10.909   8.692  1.00  0.00     0.102 A 
HETATM   19  S   UNL     1      40.801 -10.503   9.485  1.00  0.00    -0.071 SA
HETATM   20  C   UNL     1      41.686 -10.151  10.921  1.00  0.00     0.035 A 
HETATM   21  C   UNL     1      43.046 -10.377  10.685  1.00  0.00     0.074 A 
HETATM   22  C   UNL     1      41.213  -9.707  12.165  1.00  0.00     0.021 A 
HETATM   23  N   UNL     1      43.362 -10.810   9.403  1.00  0.00    -0.243 NA
HETATM   24  C   UNL     1      43.962 -10.150  11.731  1.00  0.00     0.033 A 
HETATM   25  C   UNL     1      43.500  -9.708  12.974  1.00  0.00     0.002 A 
HETATM   26  C   UNL     1      42.142  -9.489  13.186  1.00  0.00     0.002 A 
ENDBRANCH  17  18
ENDBRANCH  14  17
ENDBRANCH  13  14
ENDBRANCH  10  13
ENDBRANCH   1   9
BRANCH   5  27
HETATM   27  C   UNL     1      43.402 -16.854   5.849  1.00  0.00    -0.016 A 
HETATM   28  C   UNL     1      42.684 -16.687   7.048  1.00  0.00     0.010 A 
HETATM   29  C   UNL     1      43.120 -17.272   8.241  1.00  0.00     0.001 A 
HETATM   30  C   UNL     1      44.274 -18.047   8.260  1.00  0.00     0.000 A 
HETATM   31  C   UNL     1      44.989 -18.249   7.084  1.00  0.00     0.001 A 
HETATM   32  C   UNL     1      44.554 -17.666   5.891  1.00  0.00     0.010 A 
ENDBRANCH   5  27
BRANCH   5  33
HETATM   33  C   UNL     1      43.161 -17.174   3.331  1.00  0.00    -0.016 A 
HETATM   34  C   UNL     1      43.780 -16.729   2.147  1.00  0.00     0.010 A 
HETATM   35  C   UNL     1      43.997 -17.598   1.072  1.00  0.00     0.001 A 
HETATM   36  C   UNL     1      43.613 -18.931   1.160  1.00  0.00     0.000 A 
HETATM   37  C   UNL     1      43.022 -19.402   2.325  1.00  0.00     0.001 A 
HETATM   38  C   UNL     1      42.806 -18.536   3.401  1.00  0.00     0.010 A 
ENDBRANCH   5  33
TORSDOF 7
ENDMDL
MODEL 6
REMARK VINA RESULT:      -8.2      3.452      6.635
REMARK  7 active torsions:
REMARK  status: ('A' for Active; 'I' for Inactive)
REMARK    1  A    between atoms: N_2  and  C_4 
REMARK    2  A    between atoms: N_2  and  C_27 
REMARK    3  A    between atoms: C_4  and  C_5 
REMARK       I    between atoms: C_5  and  N_6 
REMARK    4  A    between atoms: N_6  and  N_7 
REMARK    5  A    between atoms: C_11  and  C_12 
REMARK    6  A    between atoms: C_11  and  C_18 
REMARK    7  A    between atoms: C_27  and  C_28 
ROOT
HETATM    1  N   UNL     1      41.538 -13.212   3.673  1.00  0.00    -0.167 N 
HETATM    2  C   UNL     1      40.432 -13.987   3.869  1.00  0.00     0.346 C 
HETATM    3  O   UNL     1      39.277 -13.603   3.940  1.00  0.00    -0.245 OA
HETATM    4  N   UNL     1      40.834 -15.283   4.040  1.00  0.00    -0.315 N 
HETATM    5  C   UNL     1      42.284 -15.452   4.136  1.00  0.00     0.173 C 
HETATM    6  C   UNL     1      42.676 -13.937   3.936  1.00  0.00     0.285 C 
HETATM    7  O   UNL     1      43.798 -13.437   3.976  1.00  0.00    -0.267 OA
HETATM    8  H   UNL     1      40.153 -16.001   4.244  1.00  0.00     0.166 HD
ENDROOT
BRANCH   1   9
HETATM    9  N   UNL     1      41.468 -11.830   3.832  1.00  0.00    -0.255 N 
HETATM   10  C   UNL     1      41.685 -11.168   5.007  1.00  0.00     0.262 C 
HETATM   11  O   UNL     1      41.774  -9.938   5.000  1.00  0.00    -0.270 OA
HETATM   12  H   UNL     1      41.495 -11.282   2.973  1.00  0.00     0.191 HD
BRANCH  10  13
HETATM   13  C   UNL     1      41.812 -11.960   6.314  1.00  0.00     0.338 C 
BRANCH  13  14
HETATM   14  N   UNL     1      40.743 -11.644   7.373  1.00  0.00    -0.061 N 
HETATM   15  C   UNL     1      39.358 -11.998   6.935  1.00  0.00     0.270 C 
HETATM   16  H   UNL     1      40.987 -12.249   8.173  1.00  0.00     0.280 HD
BRANCH  14  17
HETATM   17  C   UNL     1      40.845 -10.236   7.949  1.00  0.00     0.301 C 
BRANCH  17  18
HETATM   18  C   UNL     1      41.210 -10.280   9.404  1.00  0.00     0.102 A 
HETATM   19  S   UNL     1      40.222 -11.088  10.538  1.00  0.00    -0.071 SA
HETATM   20  C   UNL     1      41.311 -10.645  11.797  1.00  0.00     0.035 A 
HETATM   21  C   UNL     1      42.365  -9.906  11.250  1.00  0.00     0.074 A 
HETATM   22  C   UNL     1      41.238 -10.929  13.170  1.00  0.00     0.021 A 
HETATM   23  N   UNL     1      42.296  -9.701   9.877  1.00  0.00    -0.243 NA
HETATM   24  C   UNL     1      43.380  -9.437  12.106  1.00  0.00     0.033 A 
HETATM   25  C   UNL     1      43.317  -9.715  13.475  1.00  0.00     0.002 A 
HETATM   26  C   UNL     1      42.258 -10.452  13.997  1.00  0.00     0.002 A 
ENDBRANCH  17  18
ENDBRANCH  14  17
ENDBRANCH  13  14
ENDBRANCH  10  13
ENDBRANCH   1   9
BRANCH   5  27
HETATM   27  C   UNL     1      42.789 -16.350   2.999  1.00  0.00    -0.016 A 
HETATM   28  C   UNL     1      43.639 -17.445   3.242  1.00  0.00     0.010 A 
HETATM   29  C   UNL     1      44.071 -18.272   2.200  1.00  0.00     0.001 A 
HETATM   30  C   UNL     1      43.654 -18.031   0.895  1.00  0.00     0.000 A 
HETATM   31  C   UNL     1      42.794 -16.970   0.632  1.00  0.00     0.001 A 
HETATM   32  C   UNL     1      42.359 -16.144   1.671  1.00  0.00     0.010 A 
ENDBRANCH   5  27
BRANCH   5  33
HETATM   33  C   UNL     1      42.716 -15.961   5.518  1.00  0.00    -0.016 A 
HETATM   34  C   UNL     1      43.777 -15.375   6.235  1.00  0.00     0.010 A 
HETATM   35  C   UNL     1      44.148 -15.850   7.497  1.00  0.00     0.001 A 
HETATM   36  C   UNL     1      43.463 -16.911   8.077  1.00  0.00     0.000 A 
HETATM   37  C   UNL     1      42.396 -17.492   7.403  1.00  0.00     0.001 A 
HETATM   38  C   UNL     1      42.022 -17.018   6.143  1.00  0.00     0.010 A 
ENDBRANCH   5  33
TORSDOF 7
ENDMDL
MODEL 7
REMARK VINA RESULT:      -8.2      2.272      6.586
REMARK  7 active torsions:
REMARK  status: ('A' for Active; 'I' for Inactive)
REMARK    1  A    between atoms: N_2  and  C_4 
REMARK    2  A    between atoms: N_2  and  C_27 
REMARK    3  A    between atoms: C_4  and  C_5 
REMARK       I    between atoms: C_5  and  N_6 
REMARK    4  A    between atoms: N_6  and  N_7 
REMARK    5  A    between atoms: C_11  and  C_12 
REMARK    6  A    between atoms: C_11  and  C_18 
REMARK    7  A    between atoms: C_27  and  C_28 
ROOT
HETATM    1  N   UNL     1      41.902 -16.127   6.275  1.00  0.00    -0.167 N 
HETATM    2  C   UNL     1      43.197 -15.695   6.266  1.00  0.00     0.346 C 
HETATM    3  O   UNL     1      43.608 -14.619   6.667  1.00  0.00    -0.245 OA
HETATM    4  N   UNL     1      43.970 -16.652   5.668  1.00  0.00    -0.315 N 
HETATM    5  C   UNL     1      43.209 -17.748   5.071  1.00  0.00     0.173 C 
HETATM    6  C   UNL     1      41.773 -17.250   5.491  1.00  0.00     0.285 C 
HETATM    7  O   UNL     1      40.688 -17.755   5.212  1.00  0.00    -0.267 OA
HETATM    8  H   UNL     1      44.957 -16.488   5.528  1.00  0.00     0.166 HD
ENDROOT
BRANCH   1   9
HETATM    9  N   UNL     1      40.860 -15.227   6.484  1.00  0.00    -0.255 N 
HETATM   10  C   UNL     1      40.349 -14.389   5.533  1.00  0.00     0.262 C 
HETATM   11  O   UNL     1      39.314 -13.763   5.773  1.00  0.00    -0.270 OA
HETATM   12  H   UNL     1      40.299 -15.385   7.321  1.00  0.00     0.191 HD
BRANCH  10  13
HETATM   13  C   UNL     1      41.069 -14.236   4.188  1.00  0.00     0.338 C 
BRANCH  13  14
HETATM   14  N   UNL     1      40.165 -14.346   2.950  1.00  0.00    -0.061 N 
HETATM   15  C   UNL     1      40.168 -15.709   2.337  1.00  0.00     0.270 C 
HETATM   16  H   UNL     1      39.215 -14.161   3.309  1.00  0.00     0.280 HD
BRANCH  14  17
HETATM   17  C   UNL     1      40.381 -13.233   1.931  1.00  0.00     0.301 C 
BRANCH  17  18
HETATM   18  C   UNL     1      40.149 -13.734   0.535  1.00  0.00     0.102 A 
HETATM   19  S   UNL     1      41.392 -14.507  -0.343  1.00  0.00    -0.071 SA
HETATM   20  C   UNL     1      40.322 -14.699  -1.680  1.00  0.00     0.035 A 
HETATM   21  C   UNL     1      39.077 -14.155  -1.350  1.00  0.00     0.074 A 
HETATM   22  C   UNL     1      40.567 -15.288  -2.931  1.00  0.00     0.021 A 
HETATM   23  N   UNL     1      38.989 -13.602  -0.078  1.00  0.00    -0.243 NA
HETATM   24  C   UNL     1      38.042 -14.201  -2.304  1.00  0.00     0.033 A 
HETATM   25  C   UNL     1      38.276 -14.786  -3.553  1.00  0.00     0.002 A 
HETATM   26  C   UNL     1      39.523 -15.321  -3.860  1.00  0.00     0.002 A 
ENDBRANCH  17  18
ENDBRANCH  14  17
ENDBRANCH  13  14
ENDBRANCH  10  13
ENDBRANCH   1   9
BRANCH   5  27
HETATM   27  C   UNL     1      43.591 -19.080   5.732  1.00  0.00    -0.016 A 
HETATM   28  C   UNL     1      43.210 -19.388   7.051  1.00  0.00     0.010 A 
HETATM   29  C   UNL     1      43.542 -20.616   7.632  1.00  0.00     0.001 A 
HETATM   30  C   UNL     1      44.250 -21.567   6.905  1.00  0.00     0.000 A 
HETATM   31  C   UNL     1      44.617 -21.297   5.591  1.00  0.00     0.001 A 
HETATM   32  C   UNL     1      44.285 -20.072   5.008  1.00  0.00     0.010 A 
ENDBRANCH   5  27
BRANCH   5  33
HETATM   33  C   UNL     1      43.359 -17.791   3.543  1.00  0.00    -0.016 A 
HETATM   34  C   UNL     1      42.956 -18.905   2.782  1.00  0.00     0.010 A 
HETATM   35  C   UNL     1      43.094 -18.919   1.390  1.00  0.00     0.001 A 
HETATM   36  C   UNL     1      43.623 -17.819   0.726  1.00  0.00     0.000 A 
HETATM   37  C   UNL     1      44.006 -16.697   1.450  1.00  0.00     0.001 A 
HETATM   38  C   UNL     1      43.867 -16.680   2.841  1.00  0.00     0.010 A 
ENDBRANCH   5  33
TORSDOF 7
ENDMDL
MODEL 8
REMARK VINA RESULT:      -8.0      3.800      8.693
REMARK  7 active torsions:
REMARK  status: ('A' for Active; 'I' for Inactive)
REMARK    1  A    between atoms: N_2  and  C_4 
REMARK    2  A    between atoms: N_2  and  C_27 
REMARK    3  A    between atoms: C_4  and  C_5 
REMARK       I    between atoms: C_5  and  N_6 
REMARK    4  A    between atoms: N_6  and  N_7 
REMARK    5  A    between atoms: C_11  and  C_12 
REMARK    6  A    between atoms: C_11  and  C_18 
REMARK    7  A    between atoms: C_27  and  C_28 
ROOT
HETATM    1  N   UNL     1      40.470 -10.574   7.386  1.00  0.00    -0.167 N 
HETATM    2  C   UNL     1      39.762 -11.434   8.174  1.00  0.00     0.346 C 
HETATM    3  O   UNL     1      38.797 -12.101   7.840  1.00  0.00    -0.245 OA
HETATM    4  N   UNL     1      40.274 -11.383   9.442  1.00  0.00    -0.315 N 
HETATM    5  C   UNL     1      41.280 -10.341   9.639  1.00  0.00     0.173 C 
HETATM    6  C   UNL     1      41.292  -9.791   8.160  1.00  0.00     0.285 C 
HETATM    7  O   UNL     1      41.929  -8.838   7.716  1.00  0.00    -0.267 OA
HETATM    8  H   UNL     1      39.845 -11.922  10.181  1.00  0.00     0.166 HD
ENDROOT
BRANCH   1   9
HETATM    9  N   UNL     1      39.954 -10.151   6.163  1.00  0.00    -0.255 N 
HETATM   10  C   UNL     1      40.370 -10.603   4.942  1.00  0.00     0.262 C 
HETATM   11  O   UNL     1      39.728 -10.296   3.935  1.00  0.00    -0.270 OA
HETATM   12  H   UNL     1      39.060  -9.664   6.204  1.00  0.00     0.191 HD
BRANCH  10  13
HETATM   13  C   UNL     1      41.625 -11.477   4.842  1.00  0.00     0.338 C 
BRANCH  13  14
HETATM   14  N   UNL     1      41.359 -12.971   4.594  1.00  0.00    -0.061 N 
HETATM   15  C   UNL     1      39.915 -13.340   4.709  1.00  0.00     0.270 C 
HETATM   16  H   UNL     1      41.649 -13.124   3.615  1.00  0.00     0.280 HD
BRANCH  14  17
HETATM   17  C   UNL     1      42.276 -13.898   5.385  1.00  0.00     0.301 C 
BRANCH  17  18
HETATM   18  C   UNL     1      42.710 -15.064   4.544  1.00  0.00     0.102 A 
HETATM   19  S   UNL     1      42.938 -14.901   2.860  1.00  0.00    -0.071 SA
HETATM   20  C   UNL     1      43.372 -16.565   2.762  1.00  0.00     0.035 A 
HETATM   21  C   UNL     1      43.314 -17.128   4.041  1.00  0.00     0.074 A 
HETATM   22  C   UNL     1      43.737 -17.319   1.636  1.00  0.00     0.021 A 
HETATM   23  N   UNL     1      42.932 -16.258   5.056  1.00  0.00    -0.243 NA
HETATM   24  C   UNL     1      43.633 -18.491   4.198  1.00  0.00     0.033 A 
HETATM   25  C   UNL     1      43.998 -19.250   3.082  1.00  0.00     0.002 A 
HETATM   26  C   UNL     1      44.048 -18.669   1.818  1.00  0.00     0.002 A 
ENDBRANCH  17  18
ENDBRANCH  14  17
ENDBRANCH  13  14
ENDBRANCH  10  13
ENDBRANCH   1   9
BRANCH   5  27
HETATM   27  C   UNL     1      42.619 -10.968  10.049  1.00  0.00    -0.016 A 
HETATM   28  C   UNL     1      43.724 -10.993   9.177  1.00  0.00     0.010 A 
HETATM   29  C   UNL     1      44.947 -11.544   9.573  1.00  0.00     0.001 A 
HETATM   30  C   UNL     1      45.097 -12.070  10.852  1.00  0.00     0.000 A 
HETATM   31  C   UNL     1      44.029 -12.035  11.741  1.00  0.00     0.001 A 
HETATM   32  C   UNL     1      42.807 -11.484  11.349  1.00  0.00     0.010 A 
ENDBRANCH   5  27
BRANCH   5  33
HETATM   33  C   UNL     1      40.812  -9.265  10.629  1.00  0.00    -0.016 A 
HETATM   34  C   UNL     1      41.710  -8.371  11.245  1.00  0.00     0.010 A 
HETATM   35  C   UNL     1      41.260  -7.393  12.137  1.00  0.00     0.001 A 
HETATM   36  C   UNL     1      39.906  -7.276  12.426  1.00  0.00     0.000 A 
HETATM   37  C   UNL     1      38.995  -8.129  11.815  1.00  0.00     0.001 A 
HETATM   38  C   UNL     1      39.442  -9.106  10.921  1.00  0.00     0.010 A 
ENDBRANCH   5  33
TORSDOF 7
ENDMDL
MODEL 9
REMARK VINA RESULT:      -8.0      3.538      7.172
REMARK  7 active torsions:
REMARK  status: ('A' for Active; 'I' for Inactive)
REMARK    1  A    between atoms: N_2  and  C_4 
REMARK    2  A    between atoms: N_2  and  C_27 
REMARK    3  A    between atoms: C_4  and  C_5 
REMARK       I    between atoms: C_5  and  N_6 
REMARK    4  A    between atoms: N_6  and  N_7 
REMARK    5  A    between atoms: C_11  and  C_12 
REMARK    6  A    between atoms: C_11  and  C_18 
REMARK    7  A    between atoms: C_27  and  C_28 
ROOT
HETATM    1  N   UNL     1      43.354 -16.552   6.466  1.00  0.00    -0.167 N 
HETATM    2  C   UNL     1      42.130 -17.144   6.578  1.00  0.00     0.346 C 
HETATM    3  O   UNL     1      41.306 -16.952   7.457  1.00  0.00    -0.245 OA
HETATM    4  N   UNL     1      41.993 -18.054   5.566  1.00  0.00    -0.315 N 
HETATM    5  C   UNL     1      43.207 -18.260   4.779  1.00  0.00     0.173 C 
HETATM    6  C   UNL     1      44.116 -17.214   5.532  1.00  0.00     0.285 C 
HETATM    7  O   UNL     1      45.306 -16.974   5.343  1.00  0.00    -0.267 OA
HETATM    8  H   UNL     1      41.163 -18.629   5.513  1.00  0.00     0.166 HD
ENDROOT
BRANCH   1   9
HETATM    9  N   UNL     1      43.907 -15.865   7.543  1.00  0.00    -0.255 N 
HETATM   10  C   UNL     1      43.965 -14.504   7.655  1.00  0.00     0.262 C 
HETATM   11  O   UNL     1      44.313 -14.000   8.726  1.00  0.00    -0.270 OA
HETATM   12  H   UNL     1      44.051 -16.412   8.392  1.00  0.00     0.191 HD
BRANCH  10  13
HETATM   13  C   UNL     1      43.602 -13.626   6.452  1.00  0.00     0.338 C 
BRANCH  13  14
HETATM   14  N   UNL     1      42.190 -13.019   6.492  1.00  0.00    -0.061 N 
HETATM   15  C   UNL     1      41.290 -13.549   5.422  1.00  0.00     0.270 C 
HETATM   16  H   UNL     1      41.808 -13.317   7.403  1.00  0.00     0.280 HD
BRANCH  14  17
HETATM   17  C   UNL     1      42.178 -11.497   6.582  1.00  0.00     0.301 C 
BRANCH  17  18
HETATM   18  C   UNL     1      42.226 -11.047   8.013  1.00  0.00     0.102 A 
HETATM   19  S   UNL     1      40.802 -10.625   8.854  1.00  0.00    -0.071 SA
HETATM   20  C   UNL     1      41.739 -10.271  10.256  1.00  0.00     0.035 A 
HETATM   21  C   UNL     1      43.088 -10.509   9.975  1.00  0.00     0.074 A 
HETATM   22  C   UNL     1      41.312  -9.816  11.514  1.00  0.00     0.021 A 
HETATM   23  N   UNL     1      43.357 -10.952   8.685  1.00  0.00    -0.243 NA
HETATM   24  C   UNL     1      44.042 -10.283  10.986  1.00  0.00     0.033 A 
HETATM   25  C   UNL     1      43.627  -9.830  12.242  1.00  0.00     0.002 A 
HETATM   26  C   UNL     1      42.278  -9.599  12.499  1.00  0.00     0.002 A 
ENDBRANCH  17  18
ENDBRANCH  14  17
ENDBRANCH  13  14
ENDBRANCH  10  13
ENDBRANCH   1   9
BRANCH   5  27
HETATM   27  C   UNL     1      42.959 -17.881   3.312  1.00  0.00    -0.016 A 
HETATM   28  C   UNL     1      41.660 -17.677   2.810  1.00  0.00     0.010 A 
HETATM   29  C   UNL     1      41.449 -17.306   1.478  1.00  0.00     0.001 A 
HETATM   30  C   UNL     1      42.530 -17.118   0.623  1.00  0.00     0.000 A 
HETATM   31  C   UNL     1      43.824 -17.288   1.101  1.00  0.00     0.001 A 
HETATM   32  C   UNL     1      44.038 -17.658   2.432  1.00  0.00     0.010 A 
ENDBRANCH   5  27
BRANCH   5  33
HETATM   33  C   UNL     1      43.758 -19.686   4.927  1.00  0.00    -0.016 A 
HETATM   34  C   UNL     1      44.305 -20.395   3.841  1.00  0.00     0.010 A 
HETATM   35  C   UNL     1      44.810 -21.690   4.001  1.00  0.00     0.001 A 
HETATM   36  C   UNL     1      44.791 -22.300   5.249  1.00  0.00     0.000 A 
HETATM   37  C   UNL     1      44.279 -21.614   6.344  1.00  0.00     0.001 A 
HETATM   38  C   UNL     1      43.777 -20.320   6.186  1.00  0.00     0.010 A 
ENDBRANCH   5  33
TORSDOF 7
ENDMDL
MODEL 10
REMARK VINA RESULT:      -7.9      2.435      6.227
REMARK  7 active torsions:
REMARK  status: ('A' for Active; 'I' for Inactive)
REMARK    1  A    between atoms: N_2  and  C_4 
REMARK    2  A    between atoms: N_2  and  C_27 
REMARK    3  A    between atoms: C_4  and  C_5 
REMARK       I    between atoms: C_5  and  N_6 
REMARK    4  A    between atoms: N_6  and  N_7 
REMARK    5  A    between atoms: C_11  and  C_12 
REMARK    6  A    between atoms: C_11  and  C_18 
REMARK    7  A    between atoms: C_27  and  C_28 
ROOT
HETATM    1  N   UNL     1      41.499 -14.543   6.151  1.00  0.00    -0.167 N 
HETATM    2  C   UNL     1      42.763 -14.124   5.853  1.00  0.00     0.346 C 
HETATM    3  O   UNL     1      43.197 -12.989   5.955  1.00  0.00    -0.245 OA
HETATM    4  N   UNL     1      43.466 -15.186   5.352  1.00  0.00    -0.315 N 
HETATM    5  C   UNL     1      42.658 -16.382   5.120  1.00  0.00     0.173 C 
HETATM    6  C   UNL     1      41.288 -15.805   5.645  1.00  0.00     0.285 C 
HETATM    7  O   UNL     1      40.189 -16.355   5.648  1.00  0.00    -0.267 OA
HETATM    8  H   UNL     1      44.415 -15.056   5.030  1.00  0.00     0.166 HD
ENDROOT
BRANCH   1   9
HETATM    9  N   UNL     1      40.473 -13.619   6.329  1.00  0.00    -0.255 N 
HETATM   10  C   UNL     1      39.683 -13.126   5.329  1.00  0.00     0.262 C 
HETATM   11  O   UNL     1      38.693 -12.451   5.618  1.00  0.00    -0.270 OA
HETATM   12  H   UNL     1      40.147 -13.497   7.287  1.00  0.00     0.191 HD
BRANCH  10  13
HETATM   13  C   UNL     1      40.040 -13.416   3.866  1.00  0.00     0.338 C 
BRANCH  13  14
HETATM   14  N   UNL     1      40.925 -12.356   3.190  1.00  0.00    -0.061 N 
HETATM   15  C   UNL     1      40.161 -11.432   2.297  1.00  0.00     0.270 C 
HETATM   16  H   UNL     1      41.303 -11.800   3.973  1.00  0.00     0.280 HD
BRANCH  14  17
HETATM   17  C   UNL     1      42.173 -12.929   2.527  1.00  0.00     0.301 C 
BRANCH  17  18
HETATM   18  C   UNL     1      42.107 -12.769   1.036  1.00  0.00     0.102 A 
HETATM   19  S   UNL     1      41.361 -13.950   0.055  1.00  0.00    -0.071 SA
HETATM   20  C   UNL     1      41.737 -13.018  -1.345  1.00  0.00     0.035 A 
HETATM   21  C   UNL     1      42.409 -11.856  -0.952  1.00  0.00     0.074 A 
HETATM   22  C   UNL     1      41.457 -13.294  -2.693  1.00  0.00     0.021 A 
HETATM   23  N   UNL     1      42.618 -11.724   0.416  1.00  0.00    -0.243 NA
HETATM   24  C   UNL     1      42.816 -10.941  -1.942  1.00  0.00     0.033 A 
HETATM   25  C   UNL     1      42.542 -11.206  -3.288  1.00  0.00     0.002 A 
HETATM   26  C   UNL     1      41.871 -12.369  -3.655  1.00  0.00     0.002 A 
ENDBRANCH  17  18
ENDBRANCH  14  17
ENDBRANCH  13  14
ENDBRANCH  10  13
ENDBRANCH   1   9
BRANCH   5  27
HETATM   27  C   UNL     1      43.178 -17.546   5.974  1.00  0.00    -0.016 A 
HETATM   28  C   UNL     1      43.551 -17.369   7.319  1.00  0.00     0.010 A 
HETATM   29  C   UNL     1      43.998 -18.445   8.093  1.00  0.00     0.001 A 
HETATM   30  C   UNL     1      44.068 -19.721   7.546  1.00  0.00     0.000 A 
HETATM   31  C   UNL     1      43.681 -19.928   6.227  1.00  0.00     0.001 A 
HETATM   32  C   UNL     1      43.233 -18.856   5.451  1.00  0.00     0.010 A 
ENDBRANCH   5  27
BRANCH   5  33
HETATM   33  C   UNL     1      42.575 -16.743   3.629  1.00  0.00    -0.016 A 
HETATM   34  C   UNL     1      43.716 -16.789   2.805  1.00  0.00     0.010 A 
HETATM   35  C   UNL     1      43.618 -17.129   1.451  1.00  0.00     0.001 A 
HETATM   36  C   UNL     1      42.384 -17.442   0.894  1.00  0.00     0.000 A 
HETATM   37  C   UNL     1      41.245 -17.428   1.691  1.00  0.00     0.001 A 
HETATM   38  C   UNL     1      41.341 -17.091   3.043  1.00  0.00     0.010 A 
ENDBRANCH   5  33
TORSDOF 7
ENDMDL
